MODEL 1
REMARK VINA RESULT:      -5.4      0.000      0.000
REMARK  Name = Foretinib.pdbqt.pdb
REMARK  11 active torsions:
REMARK  status: ('A' for Active; 'I' for Inactive)
REMARK    1  A    between atoms: C_2  and  N_31
REMARK    2  A    between atoms: C_7  and  O_8
REMARK    3  A    between atoms: O_8  and  C_9
REMARK    4  A    between atoms: C_17  and  O_19
REMARK    5  A    between atoms: C_18  and  O_29
REMARK    6  A    between atoms: O_19  and  C_20
REMARK    7  A    between atoms: C_21  and  C_22
REMARK    8  A    between atoms: C_22  and  N_23
REMARK    9  A    between atoms: C_32  and  C_35
REMARK   10  A    between atoms: C_35  and  C_38
REMARK   11  A    between atoms: N_40  and  C_42
REMARK                            x       y       z     vdW  Elec       q    Type
REMARK                         _______ _______ _______ _____ _____    ______ ____
ROOT
ATOM      1  F   UNL     1      22.076   5.751  52.726  0.00  0.00    +0.000 F 
ATOM      2  C   UNL     1      19.404   8.174  53.111  0.00  0.00    +0.000 A 
ATOM      3  C   UNL     1      20.663   7.578  53.183  0.00  0.00    +0.000 A 
ATOM      4  C   UNL     1      18.358   7.501  52.476  0.00  0.00    +0.000 A 
ATOM      5  C   UNL     1      20.868   6.323  52.618  0.00  0.00    +0.000 A 
ATOM      6  C   UNL     1      18.564   6.244  51.911  0.00  0.00    +0.000 A 
ATOM      7  C   UNL     1      19.829   5.664  51.961  0.00  0.00    +0.000 A 
ENDROOT
BRANCH   2   8
ATOM      8  N   UNL     1      19.126   9.439  53.662  0.00  0.00    +0.000 N 
ATOM      9  C   UNL     1      18.332   9.676  54.772  0.00  0.00    +0.000 C 
ATOM     10  O   UNL     1      17.731   8.832  55.425  0.00  0.00    +0.000 OA
ATOM     11  H   UNL     1      19.512  10.244  53.176  0.00  0.00    +0.000 HD
BRANCH   9  12
ATOM     12  C   UNL     1      18.182  11.125  55.133  0.00  0.00    +0.000 C 
ATOM     13  C   UNL     1      17.892  12.066  54.057  0.00  0.00    +0.000 C 
ATOM     14  C   UNL     1      19.232  12.038  54.698  0.00  0.00    +0.000 C 
BRANCH  12  15
ATOM     15  C   UNL     1      17.530  11.376  56.460  0.00  0.00    +0.000 C 
ATOM     16  O   UNL     1      16.474  11.998  56.491  0.00  0.00    +0.000 OA
ATOM     17  N   UNL     1      18.185  10.818  57.544  0.00  0.00    +0.000 N 
ATOM     18  H   UNL     1      19.026  10.278  57.365  0.00  0.00    +0.000 HD
BRANCH  17  19
ATOM     19  C   UNL     1      17.765  10.903  58.884  0.00  0.00    +0.000 A 
ATOM     20  C   UNL     1      17.612   9.710  59.594  0.00  0.00    +0.000 A 
ATOM     21  C   UNL     1      17.199   9.728  60.924  0.00  0.00    +0.000 A 
ATOM     22  C   UNL     1      16.942  10.948  61.539  0.00  0.00    +0.000 A 
ATOM     23  F   UNL     1      16.546  10.969  62.819  0.00  0.00    +0.000 F 
ATOM     24  C   UNL     1      17.091  12.146  60.849  0.00  0.00    +0.000 A 
ATOM     25  C   UNL     1      17.504  12.118  59.520  0.00  0.00    +0.000 A 
ENDBRANCH  17  19
ENDBRANCH  12  15
ENDBRANCH   9  12
ENDBRANCH   2   8
BRANCH   7  26
ATOM     26  O   UNL     1      19.958   4.397  51.446  0.00  0.00    +0.000 OA
BRANCH  26  27
ATOM     27  C   UNL     1      19.804   3.341  52.322  0.00  0.00    +0.000 A 
ATOM     28  C   UNL     1      18.573   2.667  52.336  0.00  0.00    +0.000 A 
ATOM     29  C   UNL     1      18.442   1.558  53.189  0.00  0.00    +0.000 A 
ATOM     30  C   UNL     1      17.486   3.067  51.542  0.00  0.00    +0.000 A 
ATOM     31  N   UNL     1      19.448   1.127  53.966  0.00  0.00    +0.000 NA
ATOM     32  C   UNL     1      17.225   0.893  53.212  0.00  0.00    +0.000 A 
ATOM     33  C   UNL     1      20.622   1.795  53.914  0.00  0.00    +0.000 A 
ATOM     34  C   UNL     1      20.858   2.891  53.111  0.00  0.00    +0.000 A 
ATOM     35  C   UNL     1      16.138   1.285  52.421  0.00  0.00    +0.000 A 
ATOM     36  C   UNL     1      16.268   2.388  51.575  0.00  0.00    +0.000 A 
BRANCH  36  37
ATOM     37  O   UNL     1      15.170   2.737  50.825  0.00  0.00    +0.000 OA
ATOM     38  C   UNL     1      15.437   3.143  49.511  0.00  0.00    +0.000 C 
ENDBRANCH  36  37
BRANCH  35  39
ATOM     39  O   UNL     1      14.923   0.640  52.436  0.00  0.00    +0.000 OA
BRANCH  39  40
ATOM     40  C   UNL     1      14.656  -0.030  53.554  0.00  0.00    +0.000 C 
ATOM     41  C   UNL     1      14.356  -0.816  54.835  0.00  0.00    +0.000 C 
BRANCH  41  42
ATOM     42  C   UNL     1      14.062  -1.604  56.116  0.00  0.00    +0.000 C 
BRANCH  42  43
ATOM     43  N   UNL     1      13.781  -2.353  57.333  0.00  0.00    +0.000 N 
ATOM     44  C   UNL     1      15.103  -2.749  57.909  0.00  0.00    +0.000 C 
ATOM     45  C   UNL     1      15.802  -2.228  59.206  0.00  0.00    +0.000 C 
ATOM     46  O   UNL     1      15.486  -1.323  60.158  0.00  0.00    +0.000 OA
ATOM     47  C   UNL     1      14.297  -0.961  59.636  0.00  0.00    +0.000 C 
ATOM     48  C   UNL     1      13.447  -1.350  58.388  0.00  0.00    +0.000 C 
ENDBRANCH  42  43
ENDBRANCH  41  42
ENDBRANCH  39  40
ENDBRANCH  35  39
ENDBRANCH  26  27
ENDBRANCH   7  26
TORSDOF 11
ENDMDL
MODEL 2
REMARK VINA RESULT:      -5.1      3.094      5.028
REMARK  Name = Foretinib.pdbqt.pdb
REMARK  11 active torsions:
REMARK  status: ('A' for Active; 'I' for Inactive)
REMARK    1  A    between atoms: C_2  and  N_31
REMARK    2  A    between atoms: C_7  and  O_8
REMARK    3  A    between atoms: O_8  and  C_9
REMARK    4  A    between atoms: C_17  and  O_19
REMARK    5  A    between atoms: C_18  and  O_29
REMARK    6  A    between atoms: O_19  and  C_20
REMARK    7  A    between atoms: C_21  and  C_22
REMARK    8  A    between atoms: C_22  and  N_23
REMARK    9  A    between atoms: C_32  and  C_35
REMARK   10  A    between atoms: C_35  and  C_38
REMARK   11  A    between atoms: N_40  and  C_42
REMARK                            x       y       z     vdW  Elec       q    Type
REMARK                         _______ _______ _______ _____ _____    ______ ____
ROOT
ATOM      1  F   UNL     1      22.159   8.392  54.640  0.00  0.00    +0.000 F 
ATOM      2  C   UNL     1      19.157   8.988  56.590  0.00  0.00    +0.000 A 
ATOM      3  C   UNL     1      20.499   8.789  56.263  0.00  0.00    +0.000 A 
ATOM      4  C   UNL     1      18.197   9.007  55.576  0.00  0.00    +0.000 A 
ATOM      5  C   UNL     1      20.869   8.616  54.933  0.00  0.00    +0.000 A 
ATOM      6  C   UNL     1      18.569   8.832  54.244  0.00  0.00    +0.000 A 
ATOM      7  C   UNL     1      19.912   8.661  53.919  0.00  0.00    +0.000 A 
ENDROOT
BRANCH   2   8
ATOM      8  N   UNL     1      18.713   9.168  57.913  0.00  0.00    +0.000 N 
ATOM      9  C   UNL     1      18.276  10.363  58.458  0.00  0.00    +0.000 C 
ATOM     10  O   UNL     1      18.232  11.446  57.888  0.00  0.00    +0.000 OA
ATOM     11  H   UNL     1      18.758   8.357  58.524  0.00  0.00    +0.000 HD
BRANCH   9  12
ATOM     12  C   UNL     1      17.880  10.281  59.904  0.00  0.00    +0.000 C 
ATOM     13  C   UNL     1      18.806  10.822  60.893  0.00  0.00    +0.000 C 
ATOM     14  C   UNL     1      18.622   9.354  60.752  0.00  0.00    +0.000 C 
BRANCH  12  15
ATOM     15  C   UNL     1      16.415  10.462  60.164  0.00  0.00    +0.000 C 
ATOM     16  O   UNL     1      15.840   9.656  60.888  0.00  0.00    +0.000 OA
ATOM     17  N   UNL     1      15.855  11.586  59.582  0.00  0.00    +0.000 N 
ATOM     18  H   UNL     1      16.466  12.199  59.050  0.00  0.00    +0.000 HD
BRANCH  17  19
ATOM     19  C   UNL     1      14.509  11.978  59.692  0.00  0.00    +0.000 A 
ATOM     20  C   UNL     1      13.796  12.191  58.510  0.00  0.00    +0.000 A 
ATOM     21  C   UNL     1      12.459  12.580  58.552  0.00  0.00    +0.000 A 
ATOM     22  C   UNL     1      11.841  12.754  59.785  0.00  0.00    +0.000 A 
ATOM     23  F   UNL     1      10.555  13.126  59.829  0.00  0.00    +0.000 F 
ATOM     24  C   UNL     1      12.533  12.544  60.972  0.00  0.00    +0.000 A 
ATOM     25  C   UNL     1      13.870  12.156  60.920  0.00  0.00    +0.000 A 
ENDBRANCH  17  19
ENDBRANCH  12  15
ENDBRANCH   9  12
ENDBRANCH   2   8
BRANCH   7  26
ATOM     26  O   UNL     1      20.212   8.429  52.599  0.00  0.00    +0.000 OA
BRANCH  26  27
ATOM     27  C   UNL     1      19.470   7.468  51.942  0.00  0.00    +0.000 A 
ATOM     28  C   UNL     1      19.847   6.124  52.091  0.00  0.00    +0.000 A 
ATOM     29  C   UNL     1      19.053   5.148  51.466  0.00  0.00    +0.000 A 
ATOM     30  C   UNL     1      20.977   5.736  52.827  0.00  0.00    +0.000 A 
ATOM     31  N   UNL     1      17.958   5.459  50.754  0.00  0.00    +0.000 NA
ATOM     32  C   UNL     1      19.425   3.819  51.604  0.00  0.00    +0.000 A 
ATOM     33  C   UNL     1      17.621   6.764  50.645  0.00  0.00    +0.000 A 
ATOM     34  C   UNL     1      18.328   7.800  51.221  0.00  0.00    +0.000 A 
ATOM     35  C   UNL     1      20.551   3.424  52.339  0.00  0.00    +0.000 A 
ATOM     36  C   UNL     1      21.339   4.395  52.958  0.00  0.00    +0.000 A 
BRANCH  36  37
ATOM     37  O   UNL     1      22.437   3.958  53.661  0.00  0.00    +0.000 OA
ATOM     38  C   UNL     1      23.097   4.931  54.423  0.00  0.00    +0.000 C 
ENDBRANCH  36  37
BRANCH  35  39
ATOM     39  O   UNL     1      20.936   2.112  52.481  0.00  0.00    +0.000 OA
BRANCH  39  40
ATOM     40  C   UNL     1      20.205   1.401  53.336  0.00  0.00    +0.000 C 
ATOM     41  C   UNL     1      19.373   0.587  54.333  0.00  0.00    +0.000 C 
BRANCH  41  42
ATOM     42  C   UNL     1      18.542  -0.222  55.335  0.00  0.00    +0.000 C 
BRANCH  42  43
ATOM     43  N   UNL     1      17.751  -0.991  56.286  0.00  0.00    +0.000 N 
ATOM     44  C   UNL     1      16.488  -1.374  55.584  0.00  0.00    +0.000 C 
ATOM     45  C   UNL     1      16.025  -2.787  55.101  0.00  0.00    +0.000 C 
ATOM     46  O   UNL     1      16.560  -4.027  55.141  0.00  0.00    +0.000 OA
ATOM     47  C   UNL     1      17.703  -3.681  55.768  0.00  0.00    +0.000 C 
ATOM     48  C   UNL     1      18.334  -2.366  56.318  0.00  0.00    +0.000 C 
ENDBRANCH  42  43
ENDBRANCH  41  42
ENDBRANCH  39  40
ENDBRANCH  35  39
ENDBRANCH  26  27
ENDBRANCH   7  26
TORSDOF 11
ENDMDL
MODEL 3
REMARK VINA RESULT:      -5.1     16.025     20.016
REMARK  Name = Foretinib.pdbqt.pdb
REMARK  11 active torsions:
REMARK  status: ('A' for Active; 'I' for Inactive)
REMARK    1  A    between atoms: C_2  and  N_31
REMARK    2  A    between atoms: C_7  and  O_8
REMARK    3  A    between atoms: O_8  and  C_9
REMARK    4  A    between atoms: C_17  and  O_19
REMARK    5  A    between atoms: C_18  and  O_29
REMARK    6  A    between atoms: O_19  and  C_20
REMARK    7  A    between atoms: C_21  and  C_22
REMARK    8  A    between atoms: C_22  and  N_23
REMARK    9  A    between atoms: C_32  and  C_35
REMARK   10  A    between atoms: C_35  and  C_38
REMARK   11  A    between atoms: N_40  and  C_42
REMARK                            x       y       z     vdW  Elec       q    Type
REMARK                         _______ _______ _______ _____ _____    ______ ____
ROOT
ATOM      1  F   UNL     1       2.522   5.666  67.541  0.00  0.00    +0.000 F 
ATOM      2  C   UNL     1       2.088   8.556  69.692  0.00  0.00    +0.000 A 
ATOM      3  C   UNL     1       2.468   7.290  69.245  0.00  0.00    +0.000 A 
ATOM      4  C   UNL     1       1.414   9.418  68.824  0.00  0.00    +0.000 A 
ATOM      5  C   UNL     1       2.179   6.899  67.942  0.00  0.00    +0.000 A 
ATOM      6  C   UNL     1       1.123   9.025  67.519  0.00  0.00    +0.000 A 
ATOM      7  C   UNL     1       1.528   7.771  67.069  0.00  0.00    +0.000 A 
ENDROOT
BRANCH   2   8
ATOM      8  N   UNL     1       2.347   9.014  70.996  0.00  0.00    +0.000 N 
ATOM      9  C   UNL     1       2.373  10.342  71.391  0.00  0.00    +0.000 C 
ATOM     10  O   UNL     1       2.201  11.315  70.669  0.00  0.00    +0.000 OA
ATOM     11  H   UNL     1       2.573   8.309  71.692  0.00  0.00    +0.000 HD
BRANCH   9  12
ATOM     12  C   UNL     1       2.700  10.554  72.841  0.00  0.00    +0.000 C 
ATOM     13  C   UNL     1       2.481  11.885  73.398  0.00  0.00    +0.000 C 
ATOM     14  C   UNL     1       3.859  11.383  73.154  0.00  0.00    +0.000 C 
BRANCH  12  15
ATOM     15  C   UNL     1       2.407   9.382  73.728  0.00  0.00    +0.000 C 
ATOM     16  O   UNL     1       1.249   8.993  73.831  0.00  0.00    +0.000 OA
ATOM     17  N   UNL     1       3.520   8.809  74.320  0.00  0.00    +0.000 N 
ATOM     18  H   UNL     1       4.430   9.202  74.100  0.00  0.00    +0.000 HD
BRANCH  17  19
ATOM     19  C   UNL     1       3.505   7.695  75.179  0.00  0.00    +0.000 A 
ATOM     20  C   UNL     1       3.443   7.935  76.553  0.00  0.00    +0.000 A 
ATOM     21  C   UNL     1       3.426   6.874  77.455  0.00  0.00    +0.000 A 
ATOM     22  C   UNL     1       3.469   5.571  76.973  0.00  0.00    +0.000 A 
ATOM     23  F   UNL     1       3.451   4.548  77.838  0.00  0.00    +0.000 F 
ATOM     24  C   UNL     1       3.528   5.312  75.608  0.00  0.00    +0.000 A 
ATOM     25  C   UNL     1       3.546   6.379  74.714  0.00  0.00    +0.000 A 
ENDBRANCH  17  19
ENDBRANCH  12  15
ENDBRANCH   9  12
ENDBRANCH   2   8
BRANCH   7  26
ATOM     26  O   UNL     1       1.158   7.413  65.795  0.00  0.00    +0.000 OA
BRANCH  26  27
ATOM     27  C   UNL     1       2.114   7.528  64.805  0.00  0.00    +0.000 A 
ATOM     28  C   UNL     1       2.647   6.349  64.260  0.00  0.00    +0.000 A 
ATOM     29  C   UNL     1       3.576   6.473  63.213  0.00  0.00    +0.000 A 
ATOM     30  C   UNL     1       2.289   5.074  64.727  0.00  0.00    +0.000 A 
ATOM     31  N   UNL     1       3.951   7.665  62.722  0.00  0.00    +0.000 NA
ATOM     32  C   UNL     1       4.112   5.312  62.676  0.00  0.00    +0.000 A 
ATOM     33  C   UNL     1       3.405   8.776  63.265  0.00  0.00    +0.000 A 
ATOM     34  C   UNL     1       2.483   8.766  64.291  0.00  0.00    +0.000 A 
ATOM     35  C   UNL     1       3.758   4.037  63.136  0.00  0.00    +0.000 A 
ATOM     36  C   UNL     1       2.836   3.914  64.176  0.00  0.00    +0.000 A 
BRANCH  36  37
ATOM     37  O   UNL     1       2.528   2.642  64.597  0.00  0.00    +0.000 OA
ATOM     38  C   UNL     1       1.694   2.560  65.720  0.00  0.00    +0.000 C 
ENDBRANCH  36  37
BRANCH  35  39
ATOM     39  O   UNL     1       4.283   2.876  62.618  0.00  0.00    +0.000 OA
BRANCH  39  40
ATOM     40  C   UNL     1       5.018   3.032  61.519  0.00  0.00    +0.000 C 
ATOM     41  C   UNL     1       5.878   3.214  60.264  0.00  0.00    +0.000 C 
BRANCH  41  42
ATOM     42  C   UNL     1       6.743   3.392  59.011  0.00  0.00    +0.000 C 
BRANCH  42  43
ATOM     43  N   UNL     1       7.566   3.560  57.822  0.00  0.00    +0.000 N 
ATOM     44  C   UNL     1       7.863   5.021  57.707  0.00  0.00    +0.000 C 
ATOM     45  C   UNL     1       9.221   5.765  57.917  0.00  0.00    +0.000 C 
ATOM     46  O   UNL     1      10.473   5.382  58.252  0.00  0.00    +0.000 OA
ATOM     47  C   UNL     1      10.205   4.065  58.362  0.00  0.00    +0.000 C 
ATOM     48  C   UNL     1       8.953   3.150  58.197  0.00  0.00    +0.000 C 
ENDBRANCH  42  43
ENDBRANCH  41  42
ENDBRANCH  39  40
ENDBRANCH  35  39
ENDBRANCH  26  27
ENDBRANCH   7  26
TORSDOF 11
ENDMDL
MODEL 4
REMARK VINA RESULT:      -5.1      7.963     13.038
REMARK  Name = Foretinib.pdbqt.pdb
REMARK  11 active torsions:
REMARK  status: ('A' for Active; 'I' for Inactive)
REMARK    1  A    between atoms: C_2  and  N_31
REMARK    2  A    between atoms: C_7  and  O_8
REMARK    3  A    between atoms: O_8  and  C_9
REMARK    4  A    between atoms: C_17  and  O_19
REMARK    5  A    between atoms: C_18  and  O_29
REMARK    6  A    between atoms: O_19  and  C_20
REMARK    7  A    between atoms: C_21  and  C_22
REMARK    8  A    between atoms: C_22  and  N_23
REMARK    9  A    between atoms: C_32  and  C_35
REMARK   10  A    between atoms: C_35  and  C_38
REMARK   11  A    between atoms: N_40  and  C_42
REMARK                            x       y       z     vdW  Elec       q    Type
REMARK                         _______ _______ _______ _____ _____    ______ ____
ROOT
ATOM      1  F   UNL     1      13.739  14.915  63.250  0.00  0.00    +0.000 F 
ATOM      2  C   UNL     1      14.727  12.299  60.939  0.00  0.00    +0.000 A 
ATOM      3  C   UNL     1      14.787  13.247  61.960  0.00  0.00    +0.000 A 
ATOM      4  C   UNL     1      13.528  12.103  60.250  0.00  0.00    +0.000 A 
ATOM      5  C   UNL     1      13.654  13.984  62.288  0.00  0.00    +0.000 A 
ATOM      6  C   UNL     1      12.394  12.843  60.578  0.00  0.00    +0.000 A 
ATOM      7  C   UNL     1      12.450  13.769  61.617  0.00  0.00    +0.000 A 
ENDROOT
BRANCH   2   8
ATOM      8  N   UNL     1      15.835  11.520  60.555  0.00  0.00    +0.000 N 
ATOM      9  C   UNL     1      16.613  11.730  59.428  0.00  0.00    +0.000 C 
ATOM     10  O   UNL     1      16.444  12.600  58.584  0.00  0.00    +0.000 OA
ATOM     11  H   UNL     1      16.051  10.716  61.136  0.00  0.00    +0.000 HD
BRANCH   9  12
ATOM     12  C   UNL     1      17.721  10.735  59.242  0.00  0.00    +0.000 C 
ATOM     13  C   UNL     1      17.692   9.526  60.058  0.00  0.00    +0.000 C 
ATOM     14  C   UNL     1      18.688  10.596  60.325  0.00  0.00    +0.000 C 
BRANCH  12  15
ATOM     15  C   UNL     1      18.212  10.599  57.832  0.00  0.00    +0.000 C 
ATOM     16  O   UNL     1      19.350  10.966  57.565  0.00  0.00    +0.000 OA
ATOM     17  N   UNL     1      17.316  10.005  56.959  0.00  0.00    +0.000 N 
ATOM     18  H   UNL     1      16.423   9.697  57.332  0.00  0.00    +0.000 HD
BRANCH  17  19
ATOM     19  C   UNL     1      17.549   9.756  55.595  0.00  0.00    +0.000 A 
ATOM     20  C   UNL     1      16.953  10.613  54.667  0.00  0.00    +0.000 A 
ATOM     21  C   UNL     1      17.145  10.418  53.301  0.00  0.00    +0.000 A 
ATOM     22  C   UNL     1      17.939   9.361  52.870  0.00  0.00    +0.000 A 
ATOM     23  F   UNL     1      18.128   9.173  51.558  0.00  0.00    +0.000 F 
ATOM     24  C   UNL     1      18.542   8.499  53.779  0.00  0.00    +0.000 A 
ATOM     25  C   UNL     1      18.344   8.701  55.142  0.00  0.00    +0.000 A 
ENDBRANCH  17  19
ENDBRANCH  12  15
ENDBRANCH   9  12
ENDBRANCH   2   8
BRANCH   7  26
ATOM     26  O   UNL     1      11.321  14.515  61.853  0.00  0.00    +0.000 OA
BRANCH  26  27
ATOM     27  C   UNL     1      10.278  13.890  62.508  0.00  0.00    +0.000 A 
ATOM     28  C   UNL     1       9.144  13.537  61.760  0.00  0.00    +0.000 A 
ATOM     29  C   UNL     1       8.110  12.851  62.421  0.00  0.00    +0.000 A 
ATOM     30  C   UNL     1       9.012  13.851  60.398  0.00  0.00    +0.000 A 
ATOM     31  N   UNL     1       8.183  12.521  63.720  0.00  0.00    +0.000 NA
ATOM     32  C   UNL     1       6.984  12.507  61.688  0.00  0.00    +0.000 A 
ATOM     33  C   UNL     1       9.298  12.866  64.402  0.00  0.00    +0.000 A 
ATOM     34  C   UNL     1      10.370  13.536  63.850  0.00  0.00    +0.000 A 
ATOM     35  C   UNL     1       6.847  12.816  60.329  0.00  0.00    +0.000 A 
ATOM     36  C   UNL     1       7.873  13.498  59.674  0.00  0.00    +0.000 A 
BRANCH  36  37
ATOM     37  O   UNL     1       7.687  13.784  58.342  0.00  0.00    +0.000 OA
ATOM     38  C   UNL     1       8.273  12.884  57.441  0.00  0.00    +0.000 C 
ENDBRANCH  36  37
BRANCH  35  39
ATOM     39  O   UNL     1       5.735  12.486  59.590  0.00  0.00    +0.000 OA
BRANCH  39  40
ATOM     40  C   UNL     1       5.152  11.340  59.931  0.00  0.00    +0.000 C 
ATOM     41  C   UNL     1       4.476  10.016  60.307  0.00  0.00    +0.000 C 
BRANCH  41  42
ATOM     42  C   UNL     1       3.804   8.690  60.678  0.00  0.00    +0.000 C 
BRANCH  42  43
ATOM     43  N   UNL     1       3.165   7.430  61.030  0.00  0.00    +0.000 N 
ATOM     44  C   UNL     1       4.205   6.365  60.885  0.00  0.00    +0.000 C 
ATOM     45  C   UNL     1       4.913   5.529  62.000  0.00  0.00    +0.000 C 
ATOM     46  O   UNL     1       4.842   5.490  63.348  0.00  0.00    +0.000 OA
ATOM     47  C   UNL     1       3.909   6.455  63.480  0.00  0.00    +0.000 C 
ATOM     48  C   UNL     1       3.100   7.381  62.521  0.00  0.00    +0.000 C 
ENDBRANCH  42  43
ENDBRANCH  41  42
ENDBRANCH  39  40
ENDBRANCH  35  39
ENDBRANCH  26  27
ENDBRANCH   7  26
TORSDOF 11
ENDMDL
MODEL 5
REMARK VINA RESULT:      -5.1      7.198     11.997
REMARK  Name = Foretinib.pdbqt.pdb
REMARK  11 active torsions:
REMARK  status: ('A' for Active; 'I' for Inactive)
REMARK    1  A    between atoms: C_2  and  N_31
REMARK    2  A    between atoms: C_7  and  O_8
REMARK    3  A    between atoms: O_8  and  C_9
REMARK    4  A    between atoms: C_17  and  O_19
REMARK    5  A    between atoms: C_18  and  O_29
REMARK    6  A    between atoms: O_19  and  C_20
REMARK    7  A    between atoms: C_21  and  C_22
REMARK    8  A    between atoms: C_22  and  N_23
REMARK    9  A    between atoms: C_32  and  C_35
REMARK   10  A    between atoms: C_35  and  C_38
REMARK   11  A    between atoms: N_40  and  C_42
REMARK                            x       y       z     vdW  Elec       q    Type
REMARK                         _______ _______ _______ _____ _____    ______ ____
ROOT
ATOM      1  F   UNL     1      13.631  12.217  57.864  0.00  0.00    +0.000 F 
ATOM      2  C   UNL     1      11.327  12.783  60.609  0.00  0.00    +0.000 A 
ATOM      3  C   UNL     1      11.812  12.489  59.334  0.00  0.00    +0.000 A 
ATOM      4  C   UNL     1      12.226  13.058  61.642  0.00  0.00    +0.000 A 
ATOM      5  C   UNL     1      13.184  12.468  59.103  0.00  0.00    +0.000 A 
ATOM      6  C   UNL     1      13.600  13.037  61.409  0.00  0.00    +0.000 A 
ATOM      7  C   UNL     1      14.081  12.717  60.141  0.00  0.00    +0.000 A 
ENDROOT
BRANCH   2   8
ATOM      8  N   UNL     1       9.953  12.823  60.912  0.00  0.00    +0.000 N 
ATOM      9  C   UNL     1       9.110  11.725  60.966  0.00  0.00    +0.000 C 
ATOM     10  O   UNL     1       9.419  10.563  60.734  0.00  0.00    +0.000 OA
ATOM     11  H   UNL     1       9.546  13.741  61.064  0.00  0.00    +0.000 HD
BRANCH   9  12
ATOM     12  C   UNL     1       7.682  12.053  61.289  0.00  0.00    +0.000 C 
ATOM     13  C   UNL     1       7.188  13.375  60.922  0.00  0.00    +0.000 C 
ATOM     14  C   UNL     1       7.438  13.029  62.345  0.00  0.00    +0.000 C 
BRANCH  12  15
ATOM     15  C   UNL     1       6.728  10.903  61.155  0.00  0.00    +0.000 C 
ATOM     16  O   UNL     1       6.059  10.807  60.132  0.00  0.00    +0.000 OA
ATOM     17  N   UNL     1       6.741  10.011  62.213  0.00  0.00    +0.000 N 
ATOM     18  H   UNL     1       7.391  10.185  62.974  0.00  0.00    +0.000 HD
BRANCH  17  19
ATOM     19  C   UNL     1       5.951   8.851  62.313  0.00  0.00    +0.000 A 
ATOM     20  C   UNL     1       4.733   8.951  62.989  0.00  0.00    +0.000 A 
ATOM     21  C   UNL     1       3.906   7.839  63.122  0.00  0.00    +0.000 A 
ATOM     22  C   UNL     1       4.305   6.625  62.572  0.00  0.00    +0.000 A 
ATOM     23  F   UNL     1       3.511   5.554  62.696  0.00  0.00    +0.000 F 
ATOM     24  C   UNL     1       5.513   6.507  61.894  0.00  0.00    +0.000 A 
ATOM     25  C   UNL     1       6.334   7.625  61.767  0.00  0.00    +0.000 A 
ENDBRANCH  17  19
ENDBRANCH  12  15
ENDBRANCH   9  12
ENDBRANCH   2   8
BRANCH   7  26
ATOM     26  O   UNL     1      15.440  12.776  59.954  0.00  0.00    +0.000 OA
BRANCH  26  27
ATOM     27  C   UNL     1      16.143  11.592  60.058  0.00  0.00    +0.000 A 
ATOM     28  C   UNL     1      16.962  11.212  58.983  0.00  0.00    +0.000 A 
ATOM     29  C   UNL     1      17.718  10.035  59.119  0.00  0.00    +0.000 A 
ATOM     30  C   UNL     1      17.039  11.956  57.795  0.00  0.00    +0.000 A 
ATOM     31  N   UNL     1      17.688   9.286  60.233  0.00  0.00    +0.000 NA
ATOM     32  C   UNL     1      18.523   9.650  58.057  0.00  0.00    +0.000 A 
ATOM     33  C   UNL     1      16.897   9.694  61.251  0.00  0.00    +0.000 A 
ATOM     34  C   UNL     1      16.119  10.832  61.223  0.00  0.00    +0.000 A 
ATOM     35  C   UNL     1      18.606  10.389  56.870  0.00  0.00    +0.000 A 
ATOM     36  C   UNL     1      17.854  11.557  56.735  0.00  0.00    +0.000 A 
BRANCH  36  37
ATOM     37  O   UNL     1      17.965  12.242  55.548  0.00  0.00    +0.000 OA
ATOM     38  C   UNL     1      18.581  13.499  55.628  0.00  0.00    +0.000 C 
ENDBRANCH  36  37
BRANCH  35  39
ATOM     39  O   UNL     1      19.395  10.020  55.806  0.00  0.00    +0.000 OA
BRANCH  39  40
ATOM     40  C   UNL     1      20.405   9.208  56.109  0.00  0.00    +0.000 C 
ATOM     41  C   UNL     1      21.567   8.278  56.475  0.00  0.00    +0.000 C 
BRANCH  41  42
ATOM     42  C   UNL     1      22.727   7.348  56.847  0.00  0.00    +0.000 C 
BRANCH  42  43
ATOM     43  N   UNL     1      23.829   6.464  57.199  0.00  0.00    +0.000 N 
ATOM     44  C   UNL     1      23.283   5.072  57.194  0.00  0.00    +0.000 C 
ATOM     45  C   UNL     1      23.571   3.909  56.190  0.00  0.00    +0.000 C 
ATOM     46  O   UNL     1      24.335   3.777  55.083  0.00  0.00    +0.000 OA
ATOM     47  C   UNL     1      24.823   5.034  55.083  0.00  0.00    +0.000 C 
ATOM     48  C   UNL     1      24.664   6.306  55.970  0.00  0.00    +0.000 C 
ENDBRANCH  42  43
ENDBRANCH  41  42
ENDBRANCH  39  40
ENDBRANCH  35  39
ENDBRANCH  26  27
ENDBRANCH   7  26
TORSDOF 11
ENDMDL
MODEL 6
REMARK VINA RESULT:      -5.0     16.336     20.247
REMARK  Name = Foretinib.pdbqt.pdb
REMARK  11 active torsions:
REMARK  status: ('A' for Active; 'I' for Inactive)
REMARK    1  A    between atoms: C_2  and  N_31
REMARK    2  A    between atoms: C_7  and  O_8
REMARK    3  A    between atoms: O_8  and  C_9
REMARK    4  A    between atoms: C_17  and  O_19
REMARK    5  A    between atoms: C_18  and  O_29
REMARK    6  A    between atoms: O_19  and  C_20
REMARK    7  A    between atoms: C_21  and  C_22
REMARK    8  A    between atoms: C_22  and  N_23
REMARK    9  A    between atoms: C_32  and  C_35
REMARK   10  A    between atoms: C_35  and  C_38
REMARK   11  A    between atoms: N_40  and  C_42
REMARK                            x       y       z     vdW  Elec       q    Type
REMARK                         _______ _______ _______ _____ _____    ______ ____
ROOT
ATOM      1  F   UNL     1       2.537   5.624  67.600  0.00  0.00    +0.000 F 
ATOM      2  C   UNL     1       2.092   8.593  69.637  0.00  0.00    +0.000 A 
ATOM      3  C   UNL     1       2.464   7.307  69.245  0.00  0.00    +0.000 A 
ATOM      4  C   UNL     1       1.455   9.435  68.722  0.00  0.00    +0.000 A 
ATOM      5  C   UNL     1       2.203   6.875  67.948  0.00  0.00    +0.000 A 
ATOM      6  C   UNL     1       1.193   9.001  67.424  0.00  0.00    +0.000 A 
ATOM      7  C   UNL     1       1.590   7.726  67.028  0.00  0.00    +0.000 A 
ENDROOT
BRANCH   2   8
ATOM      8  N   UNL     1       2.325   9.094  70.931  0.00  0.00    +0.000 N 
ATOM      9  C   UNL     1       3.537   9.059  71.601  0.00  0.00    +0.000 C 
ATOM     10  O   UNL     1       4.579   8.570  71.185  0.00  0.00    +0.000 OA
ATOM     11  H   UNL     1       1.522   9.474  71.424  0.00  0.00    +0.000 HD
BRANCH   9  12
ATOM     12  C   UNL     1       3.502   9.642  72.983  0.00  0.00    +0.000 C 
ATOM     13  C   UNL     1       4.774   9.997  73.603  0.00  0.00    +0.000 C 
ATOM     14  C   UNL     1       4.005   8.815  74.074  0.00  0.00    +0.000 C 
BRANCH  12  15
ATOM     15  C   UNL     1       2.331  10.538  73.256  0.00  0.00    +0.000 C 
ATOM     16  O   UNL     1       2.202  11.560  72.592  0.00  0.00    +0.000 OA
ATOM     17  N   UNL     1       1.461  10.078  74.230  0.00  0.00    +0.000 N 
ATOM     18  H   UNL     1       1.664   9.182  74.663  0.00  0.00    +0.000 HD
BRANCH  17  19
ATOM     19  C   UNL     1       0.289  10.731  74.653  0.00  0.00    +0.000 A 
ATOM     20  C   UNL     1       0.380  11.576  75.760  0.00  0.00    +0.000 A 
ATOM     21  C   UNL     1      -0.746  12.251  76.227  0.00  0.00    +0.000 A 
ATOM     22  C   UNL     1      -1.962  12.075  75.577  0.00  0.00    +0.000 A 
ATOM     23  F   UNL     1      -3.046  12.724  76.022  0.00  0.00    +0.000 F 
ATOM     24  C   UNL     1      -2.071  11.239  74.472  0.00  0.00    +0.000 A 
ATOM     25  C   UNL     1      -0.941  10.568  74.012  0.00  0.00    +0.000 A 
ENDBRANCH  17  19
ENDBRANCH  12  15
ENDBRANCH   9  12
ENDBRANCH   2   8
BRANCH   7  26
ATOM     26  O   UNL     1       1.248   7.328  65.759  0.00  0.00    +0.000 OA
BRANCH  26  27
ATOM     27  C   UNL     1       2.220   7.427  64.783  0.00  0.00    +0.000 A 
ATOM     28  C   UNL     1       2.740   6.240  64.245  0.00  0.00    +0.000 A 
ATOM     29  C   UNL     1       3.688   6.348  63.213  0.00  0.00    +0.000 A 
ATOM     30  C   UNL     1       2.353   4.971  64.704  0.00  0.00    +0.000 A 
ATOM     31  N   UNL     1       4.092   7.533  62.730  0.00  0.00    +0.000 NA
ATOM     32  C   UNL     1       4.211   5.178  62.682  0.00  0.00    +0.000 A 
ATOM     33  C   UNL     1       3.558   8.654  63.266  0.00  0.00    +0.000 A 
ATOM     34  C   UNL     1       2.620   8.659  64.278  0.00  0.00    +0.000 A 
ATOM     35  C   UNL     1       3.827   3.909  63.135  0.00  0.00    +0.000 A 
ATOM     36  C   UNL     1       2.886   3.802  64.160  0.00  0.00    +0.000 A 
BRANCH  36  37
ATOM     37  O   UNL     1       2.549   2.535  64.574  0.00  0.00    +0.000 OA
ATOM     38  C   UNL     1       1.686   2.466  65.676  0.00  0.00    +0.000 C 
ENDBRANCH  36  37
BRANCH  35  39
ATOM     39  O   UNL     1       4.339   2.740  62.623  0.00  0.00    +0.000 OA
BRANCH  39  40
ATOM     40  C   UNL     1       5.088   2.883  61.533  0.00  0.00    +0.000 C 
ATOM     41  C   UNL     1       5.966   3.051  60.287  0.00  0.00    +0.000 C 
BRANCH  41  42
ATOM     42  C   UNL     1       6.848   3.215  59.045  0.00  0.00    +0.000 C 
BRANCH  42  43
ATOM     43  N   UNL     1       7.687   3.370  57.866  0.00  0.00    +0.000 N 
ATOM     44  C   UNL     1       7.862   4.840  57.651  0.00  0.00    +0.000 C 
ATOM     45  C   UNL     1       9.145   5.712  57.838  0.00  0.00    +0.000 C 
ATOM     46  O   UNL     1      10.415   5.463  58.227  0.00  0.00    +0.000 OA
ATOM     47  C   UNL     1      10.257   4.139  58.426  0.00  0.00    +0.000 C 
ATOM     48  C   UNL     1       9.093   3.110  58.300  0.00  0.00    +0.000 C 
ENDBRANCH  42  43
ENDBRANCH  41  42
ENDBRANCH  39  40
ENDBRANCH  35  39
ENDBRANCH  26  27
ENDBRANCH   7  26
TORSDOF 11
ENDMDL
MODEL 7
REMARK VINA RESULT:      -4.9      6.557      9.678
REMARK  Name = Foretinib.pdbqt.pdb
REMARK  11 active torsions:
REMARK  status: ('A' for Active; 'I' for Inactive)
REMARK    1  A    between atoms: C_2  and  N_31
REMARK    2  A    between atoms: C_7  and  O_8
REMARK    3  A    between atoms: O_8  and  C_9
REMARK    4  A    between atoms: C_17  and  O_19
REMARK    5  A    between atoms: C_18  and  O_29
REMARK    6  A    between atoms: O_19  and  C_20
REMARK    7  A    between atoms: C_21  and  C_22
REMARK    8  A    between atoms: C_22  and  N_23
REMARK    9  A    between atoms: C_32  and  C_35
REMARK   10  A    between atoms: C_35  and  C_38
REMARK   11  A    between atoms: N_40  and  C_42
REMARK                            x       y       z     vdW  Elec       q    Type
REMARK                         _______ _______ _______ _____ _____    ______ ____
ROOT
ATOM      1  F   UNL     1      21.132  11.565  60.827  0.00  0.00    +0.000 F 
ATOM      2  C   UNL     1      18.135  10.652  58.997  0.00  0.00    +0.000 A 
ATOM      3  C   UNL     1      19.317  11.304  59.350  0.00  0.00    +0.000 A 
ATOM      4  C   UNL     1      17.663   9.605  59.791  0.00  0.00    +0.000 A 
ATOM      5  C   UNL     1      20.016  10.905  60.485  0.00  0.00    +0.000 A 
ATOM      6  C   UNL     1      18.363   9.207  60.928  0.00  0.00    +0.000 A 
ATOM      7  C   UNL     1      19.556   9.843  61.263  0.00  0.00    +0.000 A 
ENDROOT
BRANCH   2   8
ATOM      8  N   UNL     1      17.378  11.005  57.864  0.00  0.00    +0.000 N 
ATOM      9  C   UNL     1      17.676  10.654  56.557  0.00  0.00    +0.000 C 
ATOM     10  O   UNL     1      18.649  10.011  56.184  0.00  0.00    +0.000 OA
ATOM     11  H   UNL     1      16.570  11.600  58.023  0.00  0.00    +0.000 HD
BRANCH   9  12
ATOM     12  C   UNL     1      16.712  11.183  55.536  0.00  0.00    +0.000 C 
ATOM     13  C   UNL     1      16.343  10.305  54.431  0.00  0.00    +0.000 C 
ATOM     14  C   UNL     1      17.235  11.472  54.205  0.00  0.00    +0.000 C 
BRANCH  12  15
ATOM     15  C   UNL     1      15.644  12.080  56.086  0.00  0.00    +0.000 C 
ATOM     16  O   UNL     1      15.943  13.222  56.417  0.00  0.00    +0.000 OA
ATOM     17  N   UNL     1      14.377  11.522  56.118  0.00  0.00    +0.000 N 
ATOM     18  H   UNL     1      14.264  10.579  55.758  0.00  0.00    +0.000 HD
BRANCH  17  19
ATOM     19  C   UNL     1      13.213  12.166  56.575  0.00  0.00    +0.000 A 
ATOM     20  C   UNL     1      12.281  12.579  55.621  0.00  0.00    +0.000 A 
ATOM     21  C   UNL     1      11.109  13.222  56.011  0.00  0.00    +0.000 A 
ATOM     22  C   UNL     1      10.875  13.447  57.363  0.00  0.00    +0.000 A 
ATOM     23  F   UNL     1       9.747  14.062  57.742  0.00  0.00    +0.000 F 
ATOM     24  C   UNL     1      11.789  13.040  58.328  0.00  0.00    +0.000 A 
ATOM     25  C   UNL     1      12.959  12.399  57.928  0.00  0.00    +0.000 A 
ENDBRANCH  17  19
ENDBRANCH  12  15
ENDBRANCH   9  12
ENDBRANCH   2   8
BRANCH   7  26
ATOM     26  O   UNL     1      20.169   9.452  62.428  0.00  0.00    +0.000 OA
BRANCH  26  27
ATOM     27  C   UNL     1      20.380   8.099  62.608  0.00  0.00    +0.000 A 
ATOM     28  C   UNL     1      19.779   7.478  63.714  0.00  0.00    +0.000 A 
ATOM     29  C   UNL     1      19.951   6.090  63.859  0.00  0.00    +0.000 A 
ATOM     30  C   UNL     1      19.032   8.190  64.665  0.00  0.00    +0.000 A 
ATOM     31  N   UNL     1      20.650   5.357  62.979  0.00  0.00    +0.000 NA
ATOM     32  C   UNL     1      19.366   5.472  64.954  0.00  0.00    +0.000 A 
ATOM     33  C   UNL     1      21.202   5.991  61.920  0.00  0.00    +0.000 A 
ATOM     34  C   UNL     1      21.091   7.345  61.681  0.00  0.00    +0.000 A 
ATOM     35  C   UNL     1      18.618   6.177  65.906  0.00  0.00    +0.000 A 
ATOM     36  C   UNL     1      18.449   7.555  65.762  0.00  0.00    +0.000 A 
BRANCH  36  37
ATOM     37  O   UNL     1      17.713   8.201  66.726  0.00  0.00    +0.000 OA
ATOM     38  C   UNL     1      18.324   9.321  67.306  0.00  0.00    +0.000 C 
ENDBRANCH  36  37
BRANCH  35  39
ATOM     39  O   UNL     1      18.036   5.580  67.000  0.00  0.00    +0.000 OA
BRANCH  39  40
ATOM     40  C   UNL     1      17.822   4.272  66.880  0.00  0.00    +0.000 C 
ATOM     41  C   UNL     1      17.558   2.769  66.740  0.00  0.00    +0.000 C 
BRANCH  41  42
ATOM     42  C   UNL     1      17.289   1.267  66.595  0.00  0.00    +0.000 C 
BRANCH  42  43
ATOM     43  N   UNL     1      17.035  -0.160  66.459  0.00  0.00    +0.000 N 
ATOM     44  C   UNL     1      15.564  -0.317  66.244  0.00  0.00    +0.000 C 
ATOM     45  C   UNL     1      14.803  -0.754  64.951  0.00  0.00    +0.000 C 
ATOM     46  O   UNL     1      15.177  -1.099  63.699  0.00  0.00    +0.000 OA
ATOM     47  C   UNL     1      16.504  -0.952  63.889  0.00  0.00    +0.000 C 
ATOM     48  C   UNL     1      17.435  -0.538  65.070  0.00  0.00    +0.000 C 
ENDBRANCH  42  43
ENDBRANCH  41  42
ENDBRANCH  39  40
ENDBRANCH  35  39
ENDBRANCH  26  27
ENDBRANCH   7  26
TORSDOF 11
ENDMDL
MODEL 8
REMARK VINA RESULT:      -4.8     12.367     16.288
REMARK  Name = Foretinib.pdbqt.pdb
REMARK  11 active torsions:
REMARK  status: ('A' for Active; 'I' for Inactive)
REMARK    1  A    between atoms: C_2  and  N_31
REMARK    2  A    between atoms: C_7  and  O_8
REMARK    3  A    between atoms: O_8  and  C_9
REMARK    4  A    between atoms: C_17  and  O_19
REMARK    5  A    between atoms: C_18  and  O_29
REMARK    6  A    between atoms: O_19  and  C_20
REMARK    7  A    between atoms: C_21  and  C_22
REMARK    8  A    between atoms: C_22  and  N_23
REMARK    9  A    between atoms: C_32  and  C_35
REMARK   10  A    between atoms: C_35  and  C_38
REMARK   11  A    between atoms: N_40  and  C_42
REMARK                            x       y       z     vdW  Elec       q    Type
REMARK                         _______ _______ _______ _____ _____    ______ ____
ROOT
ATOM      1  F   UNL     1       5.617   4.087  60.981  0.00  0.00    +0.000 F 
ATOM      2  C   UNL     1       4.138   6.414  63.339  0.00  0.00    +0.000 A 
ATOM      3  C   UNL     1       4.546   5.219  62.747  0.00  0.00    +0.000 A 
ATOM      4  C   UNL     1       4.449   7.629  62.725  0.00  0.00    +0.000 A 
ATOM      5  C   UNL     1       5.262   5.247  61.554  0.00  0.00    +0.000 A 
ATOM      6  C   UNL     1       5.165   7.656  61.530  0.00  0.00    +0.000 A 
ATOM      7  C   UNL     1       5.594   6.462  60.955  0.00  0.00    +0.000 A 
ENDROOT
BRANCH   2   8
ATOM      8  N   UNL     1       3.410   6.459  64.543  0.00  0.00    +0.000 N 
ATOM      9  C   UNL     1       2.030   6.508  64.647  0.00  0.00    +0.000 C 
ATOM     10  O   UNL     1       1.235   6.547  63.716  0.00  0.00    +0.000 OA
ATOM     11  H   UNL     1       3.951   6.498  65.402  0.00  0.00    +0.000 HD
BRANCH   9  12
ATOM     12  C   UNL     1       1.513   6.574  66.054  0.00  0.00    +0.000 C 
ATOM     13  C   UNL     1       0.180   7.130  66.262  0.00  0.00    +0.000 C 
ATOM     14  C   UNL     1       1.390   7.893  66.664  0.00  0.00    +0.000 C 
BRANCH  12  15
ATOM     15  C   UNL     1       1.921   5.425  66.926  0.00  0.00    +0.000 C 
ATOM     16  O   UNL     1       2.428   5.662  68.017  0.00  0.00    +0.000 OA
ATOM     17  N   UNL     1       1.627   4.173  66.414  0.00  0.00    +0.000 N 
ATOM     18  H   UNL     1       1.152   4.126  65.517  0.00  0.00    +0.000 HD
BRANCH  17  19
ATOM     19  C   UNL     1       1.898   2.947  67.048  0.00  0.00    +0.000 A 
ATOM     20  C   UNL     1       0.829   2.275  67.646  0.00  0.00    +0.000 A 
ATOM     21  C   UNL     1       1.033   1.056  68.289  0.00  0.00    +0.000 A 
ATOM     22  C   UNL     1       2.313   0.515  68.329  0.00  0.00    +0.000 A 
ATOM     23  F   UNL     1       2.512  -0.658  68.946  0.00  0.00    +0.000 F 
ATOM     24  C   UNL     1       3.388   1.168  67.738  0.00  0.00    +0.000 A 
ATOM     25  C   UNL     1       3.175   2.386  67.098  0.00  0.00    +0.000 A 
ENDBRANCH  17  19
ENDBRANCH  12  15
ENDBRANCH   9  12
ENDBRANCH   2   8
BRANCH   7  26
ATOM     26  O   UNL     1       6.239   6.545  59.745  0.00  0.00    +0.000 OA
BRANCH  26  27
ATOM     27  C   UNL     1       5.573   6.053  58.640  0.00  0.00    +0.000 A 
ATOM     28  C   UNL     1       6.142   4.968  57.955  0.00  0.00    +0.000 A 
ATOM     29  C   UNL     1       5.432   4.436  56.865  0.00  0.00    +0.000 A 
ATOM     30  C   UNL     1       7.381   4.415  58.315  0.00  0.00    +0.000 A 
ATOM     31  N   UNL     1       4.241   4.920  56.479  0.00  0.00    +0.000 NA
ATOM     32  C   UNL     1       5.993   3.369  56.180  0.00  0.00    +0.000 A 
ATOM     33  C   UNL     1       3.721   5.957  57.173  0.00  0.00    +0.000 A 
ATOM     34  C   UNL     1       4.332   6.550  58.258  0.00  0.00    +0.000 A 
ATOM     35  C   UNL     1       7.227   2.811  56.535  0.00  0.00    +0.000 A 
ATOM     36  C   UNL     1       7.933   3.341  57.616  0.00  0.00    +0.000 A 
BRANCH  36  37
ATOM     37  O   UNL     1       9.143   2.763  57.920  0.00  0.00    +0.000 OA
ATOM     38  C   UNL     1      10.122   3.633  58.419  0.00  0.00    +0.000 C 
ENDBRANCH  36  37
BRANCH  35  39
ATOM     39  O   UNL     1       7.799   1.756  55.863  0.00  0.00    +0.000 OA
BRANCH  39  40
ATOM     40  C   UNL     1       7.692   1.809  54.538  0.00  0.00    +0.000 C 
ATOM     41  C   UNL     1       7.554   1.879  53.013  0.00  0.00    +0.000 C 
BRANCH  41  42
ATOM     42  C   UNL     1       7.413   1.955  51.489  0.00  0.00    +0.000 C 
BRANCH  42  43
ATOM     43  N   UNL     1       7.280   2.028  50.041  0.00  0.00    +0.000 N 
ATOM     44  C   UNL     1       6.718   3.378  49.728  0.00  0.00    +0.000 C 
ATOM     45  C   UNL     1       7.416   4.595  49.040  0.00  0.00    +0.000 C 
ATOM     46  O   UNL     1       8.652   4.827  48.545  0.00  0.00    +0.000 OA
ATOM     47  C   UNL     1       9.162   3.612  48.832  0.00  0.00    +0.000 C 
ATOM     48  C   UNL     1       8.644   2.299  49.495  0.00  0.00    +0.000 C 
ENDBRANCH  42  43
ENDBRANCH  41  42
ENDBRANCH  39  40
ENDBRANCH  35  39
ENDBRANCH  26  27
ENDBRANCH   7  26
TORSDOF 11
ENDMDL
MODEL 9
REMARK VINA RESULT:      -4.8      9.271     15.149
REMARK  Name = Foretinib.pdbqt.pdb
REMARK  11 active torsions:
REMARK  status: ('A' for Active; 'I' for Inactive)
REMARK    1  A    between atoms: C_2  and  N_31
REMARK    2  A    between atoms: C_7  and  O_8
REMARK    3  A    between atoms: O_8  and  C_9
REMARK    4  A    between atoms: C_17  and  O_19
REMARK    5  A    between atoms: C_18  and  O_29
REMARK    6  A    between atoms: O_19  and  C_20
REMARK    7  A    between atoms: C_21  and  C_22
REMARK    8  A    between atoms: C_22  and  N_23
REMARK    9  A    between atoms: C_32  and  C_35
REMARK   10  A    between atoms: C_35  and  C_38
REMARK   11  A    between atoms: N_40  and  C_42
REMARK                            x       y       z     vdW  Elec       q    Type
REMARK                         _______ _______ _______ _____ _____    ______ ____
ROOT
ATOM      1  F   UNL     1       6.612  11.929  61.476  0.00  0.00    +0.000 F 
ATOM      2  C   UNL     1       5.867   8.909  59.609  0.00  0.00    +0.000 A 
ATOM      3  C   UNL     1       6.047   9.787  60.677  0.00  0.00    +0.000 A 
ATOM      4  C   UNL     1       6.060   9.365  58.302  0.00  0.00    +0.000 A 
ATOM      5  C   UNL     1       6.411  11.108  60.435  0.00  0.00    +0.000 A 
ATOM      6  C   UNL     1       6.425  10.687  58.061  0.00  0.00    +0.000 A 
ATOM      7  C   UNL     1       6.578  11.568  59.129  0.00  0.00    +0.000 A 
ENDROOT
BRANCH   2   8
ATOM      8  N   UNL     1       5.501   7.561  59.782  0.00  0.00    +0.000 N 
ATOM      9  C   UNL     1       6.307   6.468  59.508  0.00  0.00    +0.000 C 
ATOM     10  O   UNL     1       7.443   6.502  59.052  0.00  0.00    +0.000 OA
ATOM     11  H   UNL     1       4.552   7.383  60.097  0.00  0.00    +0.000 HD
BRANCH   9  12
ATOM     12  C   UNL     1       5.659   5.138  59.761  0.00  0.00    +0.000 C 
ATOM     13  C   UNL     1       6.152   3.989  59.009  0.00  0.00    +0.000 C 
ATOM     14  C   UNL     1       4.826   4.584  58.700  0.00  0.00    +0.000 C 
BRANCH  12  15
ATOM     15  C   UNL     1       5.244   4.902  61.182  0.00  0.00    +0.000 C 
ATOM     16  O   UNL     1       5.473   5.771  62.016  0.00  0.00    +0.000 OA
ATOM     17  N   UNL     1       4.579   3.708  61.403  0.00  0.00    +0.000 N 
ATOM     18  H   UNL     1       4.408   3.105  60.604  0.00  0.00    +0.000 HD
BRANCH  17  19
ATOM     19  C   UNL     1       4.081   3.268  62.643  0.00  0.00    +0.000 A 
ATOM     20  C   UNL     1       4.848   2.349  63.362  0.00  0.00    +0.000 A 
ATOM     21  C   UNL     1       4.408   1.875  64.596  0.00  0.00    +0.000 A 
ATOM     22  C   UNL     1       3.197   2.329  65.106  0.00  0.00    +0.000 A 
ATOM     23  F   UNL     1       2.773   1.877  66.293  0.00  0.00    +0.000 F 
ATOM     24  C   UNL     1       2.421   3.245  64.405  0.00  0.00    +0.000 A 
ATOM     25  C   UNL     1       2.868   3.713  63.172  0.00  0.00    +0.000 A 
ENDBRANCH  17  19
ENDBRANCH  12  15
ENDBRANCH   9  12
ENDBRANCH   2   8
BRANCH   7  26
ATOM     26  O   UNL     1       7.002  12.841  58.835  0.00  0.00    +0.000 OA
BRANCH  26  27
ATOM     27  C   UNL     1       8.185  12.967  58.134  0.00  0.00    +0.000 A 
ATOM     28  C   UNL     1       9.389  12.782  58.831  0.00  0.00    +0.000 A 
ATOM     29  C   UNL     1      10.587  12.854  58.100  0.00  0.00    +0.000 A 
ATOM     30  C   UNL     1       9.431  12.537  60.213  0.00  0.00    +0.000 A 
ATOM     31  N   UNL     1      10.608  13.080  56.777  0.00  0.00    +0.000 NA
ATOM     32  C   UNL     1      11.781  12.680  58.784  0.00  0.00    +0.000 A 
ATOM     33  C   UNL     1       9.426  13.240  56.140  0.00  0.00    +0.000 A 
ATOM     34  C   UNL     1       8.196  13.184  56.761  0.00  0.00    +0.000 A 
ATOM     35  C   UNL     1      11.829  12.434  60.162  0.00  0.00    +0.000 A 
ATOM     36  C   UNL     1      10.639  12.363  60.888  0.00  0.00    +0.000 A 
BRANCH  36  37
ATOM     37  O   UNL     1      10.740  12.127  62.239  0.00  0.00    +0.000 OA
ATOM     38  C   UNL     1      10.254  13.145  63.071  0.00  0.00    +0.000 C 
ENDBRANCH  36  37
BRANCH  35  39
ATOM     39  O   UNL     1      13.004  12.263  60.857  0.00  0.00    +0.000 OA
BRANCH  39  40
ATOM     40  C   UNL     1      14.092  12.142  60.100  0.00  0.00    +0.000 C 
ATOM     41  C   UNL     1      15.343  12.018  59.224  0.00  0.00    +0.000 C 
BRANCH  41  42
ATOM     42  C   UNL     1      16.596  11.901  58.349  0.00  0.00    +0.000 C 
BRANCH  42  43
ATOM     43  N   UNL     1      17.785  11.789  57.517  0.00  0.00    +0.000 N 
ATOM     44  C   UNL     1      18.409  10.467  57.834  0.00  0.00    +0.000 C 
ATOM     45  C   UNL     1      18.499   9.186  56.942  0.00  0.00    +0.000 C 
ATOM     46  O   UNL     1      18.078   8.862  55.701  0.00  0.00    +0.000 OA
ATOM     47  C   UNL     1      17.509  10.051  55.416  0.00  0.00    +0.000 C 
ATOM     48  C   UNL     1      17.320  11.415  56.148  0.00  0.00    +0.000 C 
ENDBRANCH  42  43
ENDBRANCH  41  42
ENDBRANCH  39  40
ENDBRANCH  35  39
ENDBRANCH  26  27
ENDBRANCH   7  26
TORSDOF 11
ENDMDL
