MODEL 1
REMARK VINA RESULT:      -3.4      0.000      0.000
REMARK  Name = 
REMARK  7 active torsions:
REMARK  status: ('A' for Active; 'I' for Inactive)
REMARK    1  A    between atoms: S_1  and  O_3
REMARK    2  A    between atoms: S_1  and  O_6
REMARK    3  A    between atoms: O_3  and  C_9
REMARK    4  A    between atoms: O_4  and  C_10
REMARK    5  A    between atoms: O_5  and  C_11
REMARK    6  A    between atoms: C_12  and  C_14
REMARK    7  A    between atoms: C_13  and  C_15
REMARK                            x       y       z     vdW  Elec       q    Type
REMARK                         _______ _______ _______ _____ _____    ______ ____
ROOT
ATOM      1  O   UNL     1       1.848  10.374  72.534  0.00  0.00    +0.000 OA
ATOM      2  C   UNL     1       3.734  10.590  70.981  0.00  0.00    +0.000 C 
ATOM      3  C   UNL     1       4.126   9.136  71.280  0.00  0.00    +0.000 C 
ATOM      4  C   UNL     1       3.636   8.706  72.670  0.00  0.00    +0.000 C 
ATOM      5  C   UNL     1       2.220  10.762  71.205  0.00  0.00    +0.000 C 
ATOM      6  C   UNL     1       2.136   8.997  72.816  0.00  0.00    +0.000 C 
ATOM      7  C   UNL     1       1.776  12.208  71.018  0.00  0.00    +0.000 C 
ATOM      8  C   UNL     1       1.645   8.705  74.229  0.00  0.00    +0.000 C 
ENDROOT
BRANCH   3   9
ATOM      9  O   UNL     1       5.543   8.914  71.228  0.00  0.00    +0.000 OA
ATOM     10  H   UNL     1       5.940   9.175  72.085  0.00  0.00    +0.000 HD
ENDBRANCH   3   9
BRANCH   4  11
ATOM     11  O   UNL     1       3.906   7.311  72.841  0.00  0.00    +0.000 OA
ATOM     12  H   UNL     1       4.128   6.987  71.943  0.00  0.00    +0.000 HD
ENDBRANCH   4  11
BRANCH   2  13
ATOM     13  O   UNL     1       4.450  11.466  71.853  0.00  0.00    +0.000 OA
BRANCH  13  14
ATOM     14  S   UNL     1       5.653  12.360  71.234  0.00  0.00    +0.000 S 
ATOM     15  O   UNL     1       5.502  12.389  69.799  0.00  0.00    +0.000 OA
ATOM     16  O   UNL     1       5.798  13.562  72.026  0.00  0.00    +0.000 OA
BRANCH  14  17
ATOM     17  O   UNL     1       6.932  11.426  71.514  0.00  0.00    +0.000 OA
ATOM     18  H   UNL     1       7.039  11.369  72.487  0.00  0.00    +0.000 HD
ENDBRANCH  14  17
ENDBRANCH  13  14
ENDBRANCH   2  13
TORSDOF 5
ENDMDL
MODEL 2
REMARK VINA RESULT:      -3.2      3.582      5.274
REMARK  Name = 
REMARK  7 active torsions:
REMARK  status: ('A' for Active; 'I' for Inactive)
REMARK    1  A    between atoms: S_1  and  O_3
REMARK    2  A    between atoms: S_1  and  O_6
REMARK    3  A    between atoms: O_3  and  C_9
REMARK    4  A    between atoms: O_4  and  C_10
REMARK    5  A    between atoms: O_5  and  C_11
REMARK    6  A    between atoms: C_12  and  C_14
REMARK    7  A    between atoms: C_13  and  C_15
REMARK                            x       y       z     vdW  Elec       q    Type
REMARK                         _______ _______ _______ _____ _____    ______ ____
ROOT
ATOM      1  O   UNL     1       7.952  12.064  70.912  0.00  0.00    +0.000 OA
ATOM      2  C   UNL     1       6.176  11.289  72.414  0.00  0.00    +0.000 C 
ATOM      3  C   UNL     1       7.228  11.042  73.505  0.00  0.00    +0.000 C 
ATOM      4  C   UNL     1       8.610  10.781  72.890  0.00  0.00    +0.000 C 
ATOM      5  C   UNL     1       6.675  12.399  71.471  0.00  0.00    +0.000 C 
ATOM      6  C   UNL     1       8.973  11.902  71.907  0.00  0.00    +0.000 C 
ATOM      7  C   UNL     1       5.719  12.630  70.306  0.00  0.00    +0.000 C 
ATOM      8  C   UNL     1      10.279  11.606  71.179  0.00  0.00    +0.000 C 
ENDROOT
BRANCH   3   9
ATOM      9  O   UNL     1       6.908   9.929  74.353  0.00  0.00    +0.000 OA
ATOM     10  H   UNL     1       7.581   9.861  75.061  0.00  0.00    +0.000 HD
ENDBRANCH   3   9
BRANCH   4  11
ATOM     11  O   UNL     1       9.572  10.694  73.946  0.00  0.00    +0.000 OA
ATOM     12  H   UNL     1      10.436  10.853  73.512  0.00  0.00    +0.000 HD
ENDBRANCH   4  11
BRANCH   2  13
ATOM     13  O   UNL     1       5.967  10.086  71.671  0.00  0.00    +0.000 OA
BRANCH  13  14
ATOM     14  S   UNL     1       4.534   9.340  71.793  0.00  0.00    +0.000 S 
ATOM     15  O   UNL     1       4.347   8.941  73.168  0.00  0.00    +0.000 OA
ATOM     16  O   UNL     1       3.545  10.102  71.062  0.00  0.00    +0.000 OA
BRANCH  14  17
ATOM     17  O   UNL     1       4.804   7.977  70.983  0.00  0.00    +0.000 OA
ATOM     18  H   UNL     1       4.121   7.920  70.282  0.00  0.00    +0.000 HD
ENDBRANCH  14  17
ENDBRANCH  13  14
ENDBRANCH   2  13
TORSDOF 5
ENDMDL
MODEL 3
REMARK VINA RESULT:      -3.0     18.654     20.218
REMARK  Name = 
REMARK  7 active torsions:
REMARK  status: ('A' for Active; 'I' for Inactive)
REMARK    1  A    between atoms: S_1  and  O_3
REMARK    2  A    between atoms: S_1  and  O_6
REMARK    3  A    between atoms: O_3  and  C_9
REMARK    4  A    between atoms: O_4  and  C_10
REMARK    5  A    between atoms: O_5  and  C_11
REMARK    6  A    between atoms: C_12  and  C_14
REMARK    7  A    between atoms: C_13  and  C_15
REMARK                            x       y       z     vdW  Elec       q    Type
REMARK                         _______ _______ _______ _____ _____    ______ ____
ROOT
ATOM      1  O   UNL     1      17.682  -0.649  60.376  0.00  0.00    +0.000 OA
ATOM      2  C   UNL     1      18.919   0.505  62.152  0.00  0.00    +0.000 C 
ATOM      3  C   UNL     1      17.635   0.553  62.993  0.00  0.00    +0.000 C 
ATOM      4  C   UNL     1      16.387   0.513  62.099  0.00  0.00    +0.000 C 
ATOM      5  C   UNL     1      18.855  -0.703  61.199  0.00  0.00    +0.000 C 
ATOM      6  C   UNL     1      16.465  -0.679  61.135  0.00  0.00    +0.000 C 
ATOM      7  C   UNL     1      20.059  -0.758  60.266  0.00  0.00    +0.000 C 
ATOM      8  C   UNL     1      15.307  -0.671  60.143  0.00  0.00    +0.000 C 
ENDROOT
BRANCH   3   9
ATOM      9  O   UNL     1      17.546   1.726  63.816  0.00  0.00    +0.000 OA
ATOM     10  H   UNL     1      16.784   2.267  63.523  0.00  0.00    +0.000 HD
ENDBRANCH   3   9
BRANCH   4  11
ATOM     11  O   UNL     1      15.228   0.423  62.933  0.00  0.00    +0.000 OA
ATOM     12  H   UNL     1      14.473   0.388  62.311  0.00  0.00    +0.000 HD
ENDBRANCH   4  11
BRANCH   2  13
ATOM     13  O   UNL     1      19.037   1.709  61.393  0.00  0.00    +0.000 OA
BRANCH  13  14
ATOM     14  S   UNL     1      20.211   2.757  61.781  0.00  0.00    +0.000 S 
ATOM     15  O   UNL     1      20.661   3.401  60.570  0.00  0.00    +0.000 OA
ATOM     16  O   UNL     1      19.807   3.499  62.955  0.00  0.00    +0.000 OA
BRANCH  14  17
ATOM     17  O   UNL     1      21.405   1.767  62.210  0.00  0.00    +0.000 OA
ATOM     18  H   UNL     1      21.731   1.338  61.391  0.00  0.00    +0.000 HD
ENDBRANCH  14  17
ENDBRANCH  13  14
ENDBRANCH   2  13
TORSDOF 5
ENDMDL
MODEL 4
REMARK VINA RESULT:      -3.0     13.197     14.993
REMARK  Name = 
REMARK  7 active torsions:
REMARK  status: ('A' for Active; 'I' for Inactive)
REMARK    1  A    between atoms: S_1  and  O_3
REMARK    2  A    between atoms: S_1  and  O_6
REMARK    3  A    between atoms: O_3  and  C_9
REMARK    4  A    between atoms: O_4  and  C_10
REMARK    5  A    between atoms: O_5  and  C_11
REMARK    6  A    between atoms: C_12  and  C_14
REMARK    7  A    between atoms: C_13  and  C_15
REMARK                            x       y       z     vdW  Elec       q    Type
REMARK                         _______ _______ _______ _____ _____    ______ ____
ROOT
ATOM      1  O   UNL     1      16.656   9.486  66.558  0.00  0.00    +0.000 OA
ATOM      2  C   UNL     1      17.336   7.816  68.220  0.00  0.00    +0.000 C 
ATOM      3  C   UNL     1      18.722   7.750  67.564  0.00  0.00    +0.000 C 
ATOM      4  C   UNL     1      18.651   8.149  66.083  0.00  0.00    +0.000 C 
ATOM      5  C   UNL     1      16.719   9.203  67.962  0.00  0.00    +0.000 C 
ATOM      6  C   UNL     1      17.947   9.505  65.933  0.00  0.00    +0.000 C 
ATOM      7  C   UNL     1      15.299   9.307  68.507  0.00  0.00    +0.000 C 
ATOM      8  C   UNL     1      17.742   9.868  64.467  0.00  0.00    +0.000 C 
ENDROOT
BRANCH   3   9
ATOM      9  O   UNL     1      19.317   6.445  67.638  0.00  0.00    +0.000 OA
ATOM     10  H   UNL     1      19.035   6.011  68.470  0.00  0.00    +0.000 HD
ENDBRANCH   3   9
BRANCH   4  11
ATOM     11  O   UNL     1      19.982   8.202  65.559  0.00  0.00    +0.000 OA
ATOM     12  H   UNL     1      20.277   9.123  65.713  0.00  0.00    +0.000 HD
ENDBRANCH   4  11
BRANCH   2  13
ATOM     13  O   UNL     1      16.494   6.805  67.662  0.00  0.00    +0.000 OA
BRANCH  13  14
ATOM     14  S   UNL     1      16.158   5.497  68.556  0.00  0.00    +0.000 S 
ATOM     15  O   UNL     1      15.719   4.444  67.671  0.00  0.00    +0.000 OA
ATOM     16  O   UNL     1      17.215   5.308  69.526  0.00  0.00    +0.000 OA
BRANCH  14  17
ATOM     17  O   UNL     1      14.841   5.971  69.348  0.00  0.00    +0.000 OA
ATOM     18  H   UNL     1      14.257   6.411  68.696  0.00  0.00    +0.000 HD
ENDBRANCH  14  17
ENDBRANCH  13  14
ENDBRANCH   2  13
TORSDOF 5
ENDMDL
MODEL 5
REMARK VINA RESULT:      -3.0     16.686     18.454
REMARK  Name = 
REMARK  7 active torsions:
REMARK  status: ('A' for Active; 'I' for Inactive)
REMARK    1  A    between atoms: S_1  and  O_3
REMARK    2  A    between atoms: S_1  and  O_6
REMARK    3  A    between atoms: O_3  and  C_9
REMARK    4  A    between atoms: O_4  and  C_10
REMARK    5  A    between atoms: O_5  and  C_11
REMARK    6  A    between atoms: C_12  and  C_14
REMARK    7  A    between atoms: C_13  and  C_15
REMARK                            x       y       z     vdW  Elec       q    Type
REMARK                         _______ _______ _______ _____ _____    ______ ____
ROOT
ATOM      1  O   UNL     1      20.155   9.565  60.277  0.00  0.00    +0.000 OA
ATOM      2  C   UNL     1      18.026   9.659  61.490  0.00  0.00    +0.000 C 
ATOM      3  C   UNL     1      17.278   9.590  60.151  0.00  0.00    +0.000 C 
ATOM      4  C   UNL     1      18.142  10.139  59.007  0.00  0.00    +0.000 C 
ATOM      5  C   UNL     1      19.397   8.974  61.341  0.00  0.00    +0.000 C 
ATOM      6  C   UNL     1      19.512   9.448  59.000  0.00  0.00    +0.000 C 
ATOM      7  C   UNL     1      20.234   9.089  62.609  0.00  0.00    +0.000 C 
ATOM      8  C   UNL     1      20.443  10.063  57.960  0.00  0.00    +0.000 C 
ENDROOT
BRANCH   3   9
ATOM      9  O   UNL     1      16.044  10.323  60.159  0.00  0.00    +0.000 OA
ATOM     10  H   UNL     1      15.295   9.691  60.163  0.00  0.00    +0.000 HD
ENDBRANCH   3   9
BRANCH   4  11
ATOM     11  O   UNL     1      17.454   9.926  57.770  0.00  0.00    +0.000 OA
ATOM     12  H   UNL     1      17.864   9.122  57.390  0.00  0.00    +0.000 HD
ENDBRANCH   4  11
BRANCH   2  13
ATOM     13  O   UNL     1      18.211  11.026  61.864  0.00  0.00    +0.000 OA
BRANCH  13  14
ATOM     14  S   UNL     1      17.403  11.593  63.148  0.00  0.00    +0.000 S 
ATOM     15  O   UNL     1      18.339  12.284  64.003  0.00  0.00    +0.000 OA
ATOM     16  O   UNL     1      16.169  12.198  62.696  0.00  0.00    +0.000 OA
BRANCH  14  17
ATOM     17  O   UNL     1      17.031  10.236  63.927  0.00  0.00    +0.000 OA
ATOM     18  H   UNL     1      17.375   9.493  63.390  0.00  0.00    +0.000 HD
ENDBRANCH  14  17
ENDBRANCH  13  14
ENDBRANCH   2  13
TORSDOF 5
ENDMDL
MODEL 6
REMARK VINA RESULT:      -3.0      7.487      9.107
REMARK  Name = 
REMARK  7 active torsions:
REMARK  status: ('A' for Active; 'I' for Inactive)
REMARK    1  A    between atoms: S_1  and  O_3
REMARK    2  A    between atoms: S_1  and  O_6
REMARK    3  A    between atoms: O_3  and  C_9
REMARK    4  A    between atoms: O_4  and  C_10
REMARK    5  A    between atoms: O_5  and  C_11
REMARK    6  A    between atoms: C_12  and  C_14
REMARK    7  A    between atoms: C_13  and  C_15
REMARK                            x       y       z     vdW  Elec       q    Type
REMARK                         _______ _______ _______ _____ _____    ______ ____
ROOT
ATOM      1  O   UNL     1      11.382  13.355  71.096  0.00  0.00    +0.000 OA
ATOM      2  C   UNL     1      12.426  12.545  69.031  0.00  0.00    +0.000 C 
ATOM      3  C   UNL     1      11.047  12.533  68.357  0.00  0.00    +0.000 C 
ATOM      4  C   UNL     1       9.927  12.366  69.394  0.00  0.00    +0.000 C 
ATOM      5  C   UNL     1      12.433  13.600  70.152  0.00  0.00    +0.000 C 
ATOM      6  C   UNL     1      10.076  13.412  70.507  0.00  0.00    +0.000 C 
ATOM      7  C   UNL     1      13.745  13.601  70.928  0.00  0.00    +0.000 C 
ATOM      8  C   UNL     1       9.060  13.190  71.622  0.00  0.00    +0.000 C 
ENDROOT
BRANCH   3   9
ATOM      9  O   UNL     1      10.905  11.484  67.387  0.00  0.00    +0.000 OA
ATOM     10  H   UNL     1      11.019  10.618  67.831  0.00  0.00    +0.000 HD
ENDBRANCH   3   9
BRANCH   4  11
ATOM     11  O   UNL     1       8.665  12.497  68.732  0.00  0.00    +0.000 OA
ATOM     12  H   UNL     1       8.123  11.757  69.075  0.00  0.00    +0.000 HD
ENDBRANCH   4  11
BRANCH   2  13
ATOM     13  O   UNL     1      12.699  11.256  69.583  0.00  0.00    +0.000 OA
BRANCH  13  14
ATOM     14  S   UNL     1      13.857  10.351  68.900  0.00  0.00    +0.000 S 
ATOM     15  O   UNL     1      13.299   9.708  67.734  0.00  0.00    +0.000 OA
ATOM     16  O   UNL     1      15.085  11.114  68.857  0.00  0.00    +0.000 OA
BRANCH  14  17
ATOM     17  O   UNL     1      14.042   9.180  69.988  0.00  0.00    +0.000 OA
ATOM     18  H   UNL     1      13.389   9.344  70.701  0.00  0.00    +0.000 HD
ENDBRANCH  14  17
ENDBRANCH  13  14
ENDBRANCH   2  13
TORSDOF 5
ENDMDL
MODEL 7
REMARK VINA RESULT:      -3.0     12.416     14.107
REMARK  Name = 
REMARK  7 active torsions:
REMARK  status: ('A' for Active; 'I' for Inactive)
REMARK    1  A    between atoms: S_1  and  O_3
REMARK    2  A    between atoms: S_1  and  O_6
REMARK    3  A    between atoms: O_3  and  C_9
REMARK    4  A    between atoms: O_4  and  C_10
REMARK    5  A    between atoms: O_5  and  C_11
REMARK    6  A    between atoms: C_12  and  C_14
REMARK    7  A    between atoms: C_13  and  C_15
REMARK                            x       y       z     vdW  Elec       q    Type
REMARK                         _______ _______ _______ _____ _____    ______ ____
ROOT
ATOM      1  O   UNL     1      18.618   7.792  67.327  0.00  0.00    +0.000 OA
ATOM      2  C   UNL     1      16.628   7.737  68.759  0.00  0.00    +0.000 C 
ATOM      3  C   UNL     1      16.664   6.202  68.724  0.00  0.00    +0.000 C 
ATOM      4  C   UNL     1      17.359   5.696  67.452  0.00  0.00    +0.000 C 
ATOM      5  C   UNL     1      18.053   8.282  68.550  0.00  0.00    +0.000 C 
ATOM      6  C   UNL     1      18.733   6.362  67.298  0.00  0.00    +0.000 C 
ATOM      7  C   UNL     1      18.076   9.805  68.479  0.00  0.00    +0.000 C 
ATOM      8  C   UNL     1      19.394   5.982  65.977  0.00  0.00    +0.000 C 
ENDROOT
BRANCH   3   9
ATOM      9  O   UNL     1      15.358   5.608  68.775  0.00  0.00    +0.000 OA
ATOM     10  H   UNL     1      15.362   4.883  69.434  0.00  0.00    +0.000 HD
ENDBRANCH   3   9
BRANCH   4  11
ATOM     11  O   UNL     1      17.487   4.272  67.535  0.00  0.00    +0.000 OA
ATOM     12  H   UNL     1      18.131   4.120  68.257  0.00  0.00    +0.000 HD
ENDBRANCH   4  11
BRANCH   2  13
ATOM     13  O   UNL     1      15.773   8.218  67.720  0.00  0.00    +0.000 OA
BRANCH  13  14
ATOM     14  S   UNL     1      14.347   8.870  68.130  0.00  0.00    +0.000 S 
ATOM     15  O   UNL     1      14.564  10.256  68.471  0.00  0.00    +0.000 OA
ATOM     16  O   UNL     1      13.348   8.451  67.171  0.00  0.00    +0.000 OA
BRANCH  14  17
ATOM     17  O   UNL     1      14.036   8.127  69.522  0.00  0.00    +0.000 OA
ATOM     18  H   UNL     1      13.334   7.467  69.345  0.00  0.00    +0.000 HD
ENDBRANCH  14  17
ENDBRANCH  13  14
ENDBRANCH   2  13
TORSDOF 5
ENDMDL
MODEL 8
REMARK VINA RESULT:      -2.9      4.165      5.857
REMARK  Name = 
REMARK  7 active torsions:
REMARK  status: ('A' for Active; 'I' for Inactive)
REMARK    1  A    between atoms: S_1  and  O_3
REMARK    2  A    between atoms: S_1  and  O_6
REMARK    3  A    between atoms: O_3  and  C_9
REMARK    4  A    between atoms: O_4  and  C_10
REMARK    5  A    between atoms: O_5  and  C_11
REMARK    6  A    between atoms: C_12  and  C_14
REMARK    7  A    between atoms: C_13  and  C_15
REMARK                            x       y       z     vdW  Elec       q    Type
REMARK                         _______ _______ _______ _____ _____    ______ ____
ROOT
ATOM      1  O   UNL     1       2.241   9.293  76.446  0.00  0.00    +0.000 OA
ATOM      2  C   UNL     1       4.131   8.160  75.370  0.00  0.00    +0.000 C 
ATOM      3  C   UNL     1       3.506   8.452  73.999  0.00  0.00    +0.000 C 
ATOM      4  C   UNL     1       1.983   8.610  74.109  0.00  0.00    +0.000 C 
ATOM      5  C   UNL     1       3.672   9.232  76.376  0.00  0.00    +0.000 C 
ATOM      6  C   UNL     1       1.634   9.640  75.193  0.00  0.00    +0.000 C 
ATOM      7  C   UNL     1       4.181   8.949  77.784  0.00  0.00    +0.000 C 
ATOM      8  C   UNL     1       0.129   9.723  75.421  0.00  0.00    +0.000 C 
ENDROOT
BRANCH   3   9
ATOM      9  O   UNL     1       3.771   7.426  73.031  0.00  0.00    +0.000 OA
ATOM     10  H   UNL     1       3.042   7.407  72.376  0.00  0.00    +0.000 HD
ENDBRANCH   3   9
BRANCH   4  11
ATOM     11  O   UNL     1       1.470   9.014  72.835  0.00  0.00    +0.000 OA
ATOM     12  H   UNL     1       2.204   8.853  72.207  0.00  0.00    +0.000 HD
ENDBRANCH   4  11
BRANCH   2  13
ATOM     13  O   UNL     1       3.712   6.870  75.821  0.00  0.00    +0.000 OA
BRANCH  13  14
ATOM     14  S   UNL     1       4.805   5.674  75.866  0.00  0.00    +0.000 S 
ATOM     15  O   UNL     1       6.117   6.264  75.989  0.00  0.00    +0.000 OA
ATOM     16  O   UNL     1       4.329   4.639  76.758  0.00  0.00    +0.000 OA
BRANCH  14  17
ATOM     17  O   UNL     1       4.729   5.103  74.364  0.00  0.00    +0.000 OA
ATOM     18  H   UNL     1       5.131   4.210  74.376  0.00  0.00    +0.000 HD
ENDBRANCH  14  17
ENDBRANCH  13  14
ENDBRANCH   2  13
TORSDOF 5
ENDMDL
MODEL 9
REMARK VINA RESULT:      -2.9      3.589      5.197
REMARK  Name = 
REMARK  7 active torsions:
REMARK  status: ('A' for Active; 'I' for Inactive)
REMARK    1  A    between atoms: S_1  and  O_3
REMARK    2  A    between atoms: S_1  and  O_6
REMARK    3  A    between atoms: O_3  and  C_9
REMARK    4  A    between atoms: O_4  and  C_10
REMARK    5  A    between atoms: O_5  and  C_11
REMARK    6  A    between atoms: C_12  and  C_14
REMARK    7  A    between atoms: C_13  and  C_15
REMARK                            x       y       z     vdW  Elec       q    Type
REMARK                         _______ _______ _______ _____ _____    ______ ____
ROOT
ATOM      1  O   UNL     1       5.725   6.584  76.081  0.00  0.00    +0.000 OA
ATOM      2  C   UNL     1       4.163   8.392  75.530  0.00  0.00    +0.000 C 
ATOM      3  C   UNL     1       2.997   7.399  75.647  0.00  0.00    +0.000 C 
ATOM      4  C   UNL     1       3.466   5.963  75.373  0.00  0.00    +0.000 C 
ATOM      5  C   UNL     1       5.324   7.917  76.423  0.00  0.00    +0.000 C 
ATOM      6  C   UNL     1       4.675   5.622  76.254  0.00  0.00    +0.000 C 
ATOM      7  C   UNL     1       6.553   8.808  76.281  0.00  0.00    +0.000 C 
ATOM      8  C   UNL     1       5.248   4.251  75.912  0.00  0.00    +0.000 C 
ENDROOT
BRANCH   3   9
ATOM      9  O   UNL     1       1.919   7.688  74.744  0.00  0.00    +0.000 OA
ATOM     10  H   UNL     1       1.110   7.881  75.262  0.00  0.00    +0.000 HD
ENDBRANCH   3   9
BRANCH   4  11
ATOM     11  O   UNL     1       2.378   5.069  75.628  0.00  0.00    +0.000 OA
ATOM     12  H   UNL     1       2.371   4.456  74.864  0.00  0.00    +0.000 HD
ENDBRANCH   4  11
BRANCH   2  13
ATOM     13  O   UNL     1       4.598   8.457  74.171  0.00  0.00    +0.000 OA
BRANCH  13  14
ATOM     14  S   UNL     1       4.436   9.858  73.373  0.00  0.00    +0.000 S 
ATOM     15  O   UNL     1       4.314  10.920  74.343  0.00  0.00    +0.000 OA
ATOM     16  O   UNL     1       5.398   9.897  72.293  0.00  0.00    +0.000 OA
BRANCH  14  17
ATOM     17  O   UNL     1       2.973   9.698  72.724  0.00  0.00    +0.000 OA
ATOM     18  H   UNL     1       2.559   8.912  73.138  0.00  0.00    +0.000 HD
ENDBRANCH  14  17
ENDBRANCH  13  14
ENDBRANCH   2  13
TORSDOF 5
ENDMDL
