MODEL 1
REMARK VINA RESULT:      -5.0      0.000      0.000
REMARK  Name = Fulvestrant.pdbqt.pdb
REMARK  12 active torsions:
REMARK  status: ('A' for Active; 'I' for Inactive)
REMARK    1  A    between atoms: C_6  and  O_40
REMARK    2  A    between atoms: C_8  and  C_19
REMARK    3  A    between atoms: C_18  and  O_42
REMARK    4  A    between atoms: C_20  and  C_21
REMARK    5  A    between atoms: C_22  and  C_23
REMARK    6  A    between atoms: C_23  and  C_24
REMARK    7  A    between atoms: C_25  and  C_26
REMARK    8  A    between atoms: C_27  and  S_28
REMARK    9  A    between atoms: S_28  and  C_30
REMARK   10  A    between atoms: C_30  and  C_31
REMARK   11  A    between atoms: C_32  and  C_33
REMARK   12  A    between atoms: C_33  and  C_36
REMARK                            x       y       z     vdW  Elec       q    Type
REMARK                         _______ _______ _______ _____ _____    ______ ____
ROOT
ATOM      1  C   UNL     1      15.670   5.654  70.208  0.00  0.00    +0.000 C 
ATOM      2  C   UNL     1      15.994   6.883  71.187  0.00  0.00    +0.000 C 
ATOM      3  C   UNL     1      15.061   4.363  70.665  0.00  0.00    +0.000 A 
ATOM      4  C   UNL     1      14.324   4.256  72.017  0.00  0.00    +0.000 A 
ATOM      5  C   UNL     1      15.160   6.680  72.367  0.00  0.00    +0.000 C 
ATOM      6  C   UNL     1      15.581   8.111  70.346  0.00  0.00    +0.000 C 
ATOM      7  C   UNL     1      15.266   6.222  68.956  0.00  0.00    +0.000 C 
ATOM      8  C   UNL     1      15.118   3.129  69.838  0.00  0.00    +0.000 A 
ATOM      9  C   UNL     1      14.387   5.455  72.767  0.00  0.00    +0.000 C 
ATOM     10  C   UNL     1      15.186   7.724  69.038  0.00  0.00    +0.000 C 
ATOM     11  C   UNL     1      17.517   6.901  71.475  0.00  0.00    +0.000 C 
ATOM     12  C   UNL     1      13.666   3.010  72.499  0.00  0.00    +0.000 A 
ATOM     13  C   UNL     1      14.429   2.062  70.464  0.00  0.00    +0.000 A 
ATOM     14  C   UNL     1      13.723   1.859  71.677  0.00  0.00    +0.000 A 
ATOM     15  C   UNL     1      13.002   2.927  73.721  0.00  0.00    +0.000 A 
ATOM     16  C   UNL     1      13.142   0.657  72.048  0.00  0.00    +0.000 A 
ATOM     17  C   UNL     1      12.411   1.723  74.108  0.00  0.00    +0.000 A 
ATOM     18  C   UNL     1      12.486   0.606  73.274  0.00  0.00    +0.000 A 
ENDROOT
BRANCH   8  19
ATOM     19  C   UNL     1      15.915   2.999  68.675  0.00  0.00    +0.000 C 
ATOM     20  C   UNL     1      16.760   2.856  67.406  0.00  0.00    +0.000 C 
BRANCH  20  21
ATOM     21  C   UNL     1      17.581   2.708  66.122  0.00  0.00    +0.000 C 
ATOM     22  C   UNL     1      18.416   2.587  64.843  0.00  0.00    +0.000 C 
BRANCH  22  23
ATOM     23  C   UNL     1      19.263   2.497  63.570  0.00  0.00    +0.000 C 
BRANCH  23  24
ATOM     24  C   UNL     1      20.128   2.380  62.311  0.00  0.00    +0.000 C 
ATOM     25  C   UNL     1      20.964   2.271  61.032  0.00  0.00    +0.000 C 
BRANCH  25  26
ATOM     26  C   UNL     1      21.771   2.168  59.734  0.00  0.00    +0.000 C 
ATOM     27  C   UNL     1      22.588   2.031  58.445  0.00  0.00    +0.000 C 
BRANCH  27  28
ATOM     28  S   UNL     1      23.537   1.842  56.975  0.00  0.00    +0.000 S 
ATOM     29  O   UNL     1      23.645   0.358  57.167  0.00  0.00    +0.000 OA
BRANCH  28  30
ATOM     30  C   UNL     1      22.120   1.670  55.945  0.00  0.00    +0.000 C 
BRANCH  30  31
ATOM     31  C   UNL     1      20.873   1.512  55.067  0.00  0.00    +0.000 C 
ATOM     32  C   UNL     1      19.616   1.350  54.205  0.00  0.00    +0.000 C 
BRANCH  32  33
ATOM     33  C   UNL     1      18.410   1.191  53.389  0.00  0.00    +0.000 C 
ATOM     34  F   UNL     1      17.342   1.097  54.231  0.00  0.00    +0.000 F 
ATOM     35  F   UNL     1      18.492  -0.011  52.754  0.00  0.00    +0.000 F 
BRANCH  33  36
ATOM     36  C   UNL     1      18.208   2.326  52.379  0.00  0.00    +0.000 C 
ATOM     37  F   UNL     1      18.197   1.872  51.099  0.00  0.00    +0.000 F 
ATOM     38  F   UNL     1      19.187   3.261  52.457  0.00  0.00    +0.000 F 
ATOM     39  F   UNL     1      17.030   2.972  52.576  0.00  0.00    +0.000 F 
ENDBRANCH  33  36
ENDBRANCH  32  33
ENDBRANCH  30  31
ENDBRANCH  28  30
ENDBRANCH  27  28
ENDBRANCH  25  26
ENDBRANCH  23  24
ENDBRANCH  22  23
ENDBRANCH  20  21
ENDBRANCH   8  19
BRANCH   6  40
ATOM     40  O   UNL     1      15.182   9.303  70.913  0.00  0.00    +0.000 OA
ATOM     41  H   UNL     1      14.852   9.929  70.244  0.00  0.00    +0.000 HD
ENDBRANCH   6  40
BRANCH  18  42
ATOM     42  O   UNL     1      11.893  -0.550  73.695  0.00  0.00    +0.000 OA
ATOM     43  H   UNL     1      12.522  -1.282  73.567  0.00  0.00    +0.000 HD
ENDBRANCH  18  42
TORSDOF 12
ENDMDL
MODEL 2
REMARK VINA RESULT:      -4.9      4.929      7.003
REMARK  Name = Fulvestrant.pdbqt.pdb
REMARK  12 active torsions:
REMARK  status: ('A' for Active; 'I' for Inactive)
REMARK    1  A    between atoms: C_6  and  O_40
REMARK    2  A    between atoms: C_8  and  C_19
REMARK    3  A    between atoms: C_18  and  O_42
REMARK    4  A    between atoms: C_20  and  C_21
REMARK    5  A    between atoms: C_22  and  C_23
REMARK    6  A    between atoms: C_23  and  C_24
REMARK    7  A    between atoms: C_25  and  C_26
REMARK    8  A    between atoms: C_27  and  S_28
REMARK    9  A    between atoms: S_28  and  C_30
REMARK   10  A    between atoms: C_30  and  C_31
REMARK   11  A    between atoms: C_32  and  C_33
REMARK   12  A    between atoms: C_33  and  C_36
REMARK                            x       y       z     vdW  Elec       q    Type
REMARK                         _______ _______ _______ _____ _____    ______ ____
ROOT
ATOM      1  C   UNL     1      11.063  -1.064  70.612  0.00  0.00    +0.000 C 
ATOM      2  C   UNL     1      11.439  -1.605  72.074  0.00  0.00    +0.000 C 
ATOM      3  C   UNL     1       9.691  -1.157  70.017  0.00  0.00    +0.000 A 
ATOM      4  C   UNL     1       8.448  -1.402  70.898  0.00  0.00    +0.000 A 
ATOM      5  C   UNL     1      10.176  -1.697  72.800  0.00  0.00    +0.000 C 
ATOM      6  C   UNL     1      12.382  -0.508  72.616  0.00  0.00    +0.000 C 
ATOM      7  C   UNL     1      11.848   0.115  70.396  0.00  0.00    +0.000 C 
ATOM      8  C   UNL     1       9.453  -1.001  68.557  0.00  0.00    +0.000 A 
ATOM      9  C   UNL     1       8.777  -1.614  72.257  0.00  0.00    +0.000 C 
ATOM     10  C   UNL     1      12.641   0.476  71.626  0.00  0.00    +0.000 C 
ATOM     11  C   UNL     1      12.192  -2.952  71.927  0.00  0.00    +0.000 C 
ATOM     12  C   UNL     1       7.058  -1.462  70.362  0.00  0.00    +0.000 A 
ATOM     13  C   UNL     1       8.073  -1.080  68.254  0.00  0.00    +0.000 A 
ATOM     14  C   UNL     1       6.867  -1.290  68.971  0.00  0.00    +0.000 A 
ATOM     15  C   UNL     1       5.944  -1.682  71.169  0.00  0.00    +0.000 A 
ATOM     16  C   UNL     1       5.611  -1.333  68.387  0.00  0.00    +0.000 A 
ATOM     17  C   UNL     1       4.672  -1.727  70.595  0.00  0.00    +0.000 A 
ATOM     18  C   UNL     1       4.518  -1.554  69.218  0.00  0.00    +0.000 A 
ENDROOT
BRANCH   8  19
ATOM     19  C   UNL     1      10.489  -0.968  67.593  0.00  0.00    +0.000 C 
ATOM     20  C   UNL     1      11.604  -0.953  66.543  0.00  0.00    +0.000 C 
BRANCH  20  21
ATOM     21  C   UNL     1      12.713  -0.966  65.487  0.00  0.00    +0.000 C 
ATOM     22  C   UNL     1      13.844  -0.979  64.454  0.00  0.00    +0.000 C 
BRANCH  22  23
ATOM     23  C   UNL     1      14.997  -0.989  63.446  0.00  0.00    +0.000 C 
BRANCH  23  24
ATOM     24  C   UNL     1      16.139  -1.029  62.425  0.00  0.00    +0.000 C 
ATOM     25  C   UNL     1      17.265  -1.044  61.387  0.00  0.00    +0.000 C 
BRANCH  25  26
ATOM     26  C   UNL     1      18.374  -1.034  60.329  0.00  0.00    +0.000 C 
ATOM     27  C   UNL     1      19.467  -1.056  59.256  0.00  0.00    +0.000 C 
BRANCH  27  28
ATOM     28  S   UNL     1      20.711  -1.111  58.012  0.00  0.00    +0.000 S 
ATOM     29  O   UNL     1      20.452  -2.563  57.737  0.00  0.00    +0.000 OA
BRANCH  28  30
ATOM     30  C   UNL     1      19.613  -0.607  56.731  0.00  0.00    +0.000 C 
BRANCH  30  31
ATOM     31  C   UNL     1      18.668  -0.185  55.601  0.00  0.00    +0.000 C 
ATOM     32  C   UNL     1      17.729   0.223  54.460  0.00  0.00    +0.000 C 
BRANCH  32  33
ATOM     33  C   UNL     1      16.836   0.607  53.363  0.00  0.00    +0.000 C 
ATOM     34  F   UNL     1      17.447   0.279  52.190  0.00  0.00    +0.000 F 
ATOM     35  F   UNL     1      16.735   1.965  53.365  0.00  0.00    +0.000 F 
BRANCH  33  36
ATOM     36  C   UNL     1      15.451  -0.042  53.455  0.00  0.00    +0.000 C 
ATOM     37  F   UNL     1      15.419  -1.047  54.368  0.00  0.00    +0.000 F 
ATOM     38  F   UNL     1      15.055  -0.572  52.271  0.00  0.00    +0.000 F 
ATOM     39  F   UNL     1      14.499   0.853  53.823  0.00  0.00    +0.000 F 
ENDBRANCH  33  36
ENDBRANCH  32  33
ENDBRANCH  30  31
ENDBRANCH  28  30
ENDBRANCH  27  28
ENDBRANCH  25  26
ENDBRANCH  23  24
ENDBRANCH  22  23
ENDBRANCH  20  21
ENDBRANCH   8  19
BRANCH   6  40
ATOM     40  O   UNL     1      12.536  -0.256  73.963  0.00  0.00    +0.000 OA
ATOM     41  H   UNL     1      13.063   0.547  74.122  0.00  0.00    +0.000 HD
ENDBRANCH   6  40
BRANCH  18  42
ATOM     42  O   UNL     1       3.254  -1.608  68.702  0.00  0.00    +0.000 OA
ATOM     43  H   UNL     1       2.945  -2.530  68.741  0.00  0.00    +0.000 HD
ENDBRANCH  18  42
TORSDOF 12
ENDMDL
MODEL 3
REMARK VINA RESULT:      -4.8      6.134      9.263
REMARK  Name = Fulvestrant.pdbqt.pdb
REMARK  12 active torsions:
REMARK  status: ('A' for Active; 'I' for Inactive)
REMARK    1  A    between atoms: C_6  and  O_40
REMARK    2  A    between atoms: C_8  and  C_19
REMARK    3  A    between atoms: C_18  and  O_42
REMARK    4  A    between atoms: C_20  and  C_21
REMARK    5  A    between atoms: C_22  and  C_23
REMARK    6  A    between atoms: C_23  and  C_24
REMARK    7  A    between atoms: C_25  and  C_26
REMARK    8  A    between atoms: C_27  and  S_28
REMARK    9  A    between atoms: S_28  and  C_30
REMARK   10  A    between atoms: C_30  and  C_31
REMARK   11  A    between atoms: C_32  and  C_33
REMARK   12  A    between atoms: C_33  and  C_36
REMARK                            x       y       z     vdW  Elec       q    Type
REMARK                         _______ _______ _______ _____ _____    ______ ____
ROOT
ATOM      1  C   UNL     1      10.873   0.202  74.672  0.00  0.00    +0.000 C 
ATOM      2  C   UNL     1       9.877  -1.046  74.517  0.00  0.00    +0.000 C 
ATOM      3  C   UNL     1      10.539   1.443  75.443  0.00  0.00    +0.000 A 
ATOM      4  C   UNL     1       9.396   1.462  76.479  0.00  0.00    +0.000 A 
ATOM      5  C   UNL     1       8.921  -0.929  75.613  0.00  0.00    +0.000 C 
ATOM      6  C   UNL     1      10.822  -2.261  74.652  0.00  0.00    +0.000 C 
ATOM      7  C   UNL     1      12.199  -0.338  74.740  0.00  0.00    +0.000 C 
ATOM      8  C   UNL     1      11.299   2.709  75.264  0.00  0.00    +0.000 A 
ATOM      9  C   UNL     1       8.683   0.241  76.526  0.00  0.00    +0.000 C 
ATOM     10  C   UNL     1      12.177  -1.844  74.753  0.00  0.00    +0.000 C 
ATOM     11  C   UNL     1       9.240  -1.002  73.105  0.00  0.00    +0.000 C 
ATOM     12  C   UNL     1       9.050   2.656  77.300  0.00  0.00    +0.000 A 
ATOM     13  C   UNL     1      10.824   3.716  76.138  0.00  0.00    +0.000 A 
ATOM     14  C   UNL     1       9.807   3.838  77.118  0.00  0.00    +0.000 A 
ATOM     15  C   UNL     1       8.017   2.660  78.235  0.00  0.00    +0.000 A 
ATOM     16  C   UNL     1       9.553   4.996  77.837  0.00  0.00    +0.000 A 
ATOM     17  C   UNL     1       7.750   3.818  78.967  0.00  0.00    +0.000 A 
ATOM     18  C   UNL     1       8.515   4.968  78.762  0.00  0.00    +0.000 A 
ENDROOT
BRANCH   8  19
ATOM     19  C   UNL     1      12.237   2.921  74.225  0.00  0.00    +0.000 C 
ATOM     20  C   UNL     1      13.236   3.153  73.088  0.00  0.00    +0.000 C 
BRANCH  20  21
ATOM     21  C   UNL     1      14.213   3.387  71.932  0.00  0.00    +0.000 C 
ATOM     22  C   UNL     1      15.207   3.597  70.786  0.00  0.00    +0.000 C 
BRANCH  22  23
ATOM     23  C   UNL     1      16.221   3.781  69.652  0.00  0.00    +0.000 C 
BRANCH  23  24
ATOM     24  C   UNL     1      17.216   3.994  68.507  0.00  0.00    +0.000 C 
ATOM     25  C   UNL     1      18.184   4.218  67.341  0.00  0.00    +0.000 C 
BRANCH  25  26
ATOM     26  C   UNL     1      19.125   4.449  66.154  0.00  0.00    +0.000 C 
ATOM     27  C   UNL     1      20.078   4.711  64.984  0.00  0.00    +0.000 C 
BRANCH  27  28
ATOM     28  S   UNL     1      21.182   5.043  63.654  0.00  0.00    +0.000 S 
ATOM     29  O   UNL     1      20.421   4.147  62.723  0.00  0.00    +0.000 OA
BRANCH  28  30
ATOM     30  C   UNL     1      20.290   6.463  63.117  0.00  0.00    +0.000 C 
BRANCH  30  31
ATOM     31  C   UNL     1      19.514   7.691  62.628  0.00  0.00    +0.000 C 
ATOM     32  C   UNL     1      18.738   8.925  62.155  0.00  0.00    +0.000 C 
BRANCH  32  33
ATOM     33  C   UNL     1      17.996  10.109  61.713  0.00  0.00    +0.000 C 
ATOM     34  F   UNL     1      18.885  11.132  61.567  0.00  0.00    +0.000 F 
ATOM     35  F   UNL     1      17.163  10.480  62.725  0.00  0.00    +0.000 F 
BRANCH  33  36
ATOM     36  C   UNL     1      17.211   9.883  60.417  0.00  0.00    +0.000 C 
ATOM     37  F   UNL     1      17.937   9.201  59.494  0.00  0.00    +0.000 F 
ATOM     38  F   UNL     1      16.831  11.049  59.838  0.00  0.00    +0.000 F 
ATOM     39  F   UNL     1      16.079   9.165  60.633  0.00  0.00    +0.000 F 
ENDBRANCH  33  36
ENDBRANCH  32  33
ENDBRANCH  30  31
ENDBRANCH  28  30
ENDBRANCH  27  28
ENDBRANCH  25  26
ENDBRANCH  23  24
ENDBRANCH  22  23
ENDBRANCH  20  21
ENDBRANCH   8  19
BRANCH   6  40
ATOM     40  O   UNL     1      10.395  -3.492  75.105  0.00  0.00    +0.000 OA
ATOM     41  H   UNL     1      11.117  -4.146  75.108  0.00  0.00    +0.000 HD
ENDBRANCH   6  40
BRANCH  18  42
ATOM     42  O   UNL     1       8.215   6.078  79.502  0.00  0.00    +0.000 OA
ATOM     43  H   UNL     1       9.045   6.543  79.707  0.00  0.00    +0.000 HD
ENDBRANCH  18  42
TORSDOF 12
ENDMDL
MODEL 4
REMARK VINA RESULT:      -4.7      6.085      8.244
REMARK  Name = Fulvestrant.pdbqt.pdb
REMARK  12 active torsions:
REMARK  status: ('A' for Active; 'I' for Inactive)
REMARK    1  A    between atoms: C_6  and  O_40
REMARK    2  A    between atoms: C_8  and  C_19
REMARK    3  A    between atoms: C_18  and  O_42
REMARK    4  A    between atoms: C_20  and  C_21
REMARK    5  A    between atoms: C_22  and  C_23
REMARK    6  A    between atoms: C_23  and  C_24
REMARK    7  A    between atoms: C_25  and  C_26
REMARK    8  A    between atoms: C_27  and  S_28
REMARK    9  A    between atoms: S_28  and  C_30
REMARK   10  A    between atoms: C_30  and  C_31
REMARK   11  A    between atoms: C_32  and  C_33
REMARK   12  A    between atoms: C_33  and  C_36
REMARK                            x       y       z     vdW  Elec       q    Type
REMARK                         _______ _______ _______ _____ _____    ______ ____
ROOT
ATOM      1  C   UNL     1      12.840   0.903  73.210  0.00  0.00    +0.000 C 
ATOM      2  C   UNL     1      12.040  -0.455  72.916  0.00  0.00    +0.000 C 
ATOM      3  C   UNL     1      12.314   2.009  74.075  0.00  0.00    +0.000 A 
ATOM      4  C   UNL     1      11.161   1.770  75.072  0.00  0.00    +0.000 A 
ATOM      5  C   UNL     1      11.056  -0.577  73.987  0.00  0.00    +0.000 C 
ATOM      6  C   UNL     1      13.149  -1.529  72.975  0.00  0.00    +0.000 C 
ATOM      7  C   UNL     1      14.229   0.556  73.274  0.00  0.00    +0.000 C 
ATOM      8  C   UNL     1      12.884   3.381  74.031  0.00  0.00    +0.000 A 
ATOM      9  C   UNL     1      10.633   0.460  74.990  0.00  0.00    +0.000 C 
ATOM     10  C   UNL     1      14.426  -0.933  73.155  0.00  0.00    +0.000 C 
ATOM     11  C   UNL     1      11.430  -0.375  71.493  0.00  0.00    +0.000 C 
ATOM     12  C   UNL     1      10.629   2.823  75.982  0.00  0.00    +0.000 A 
ATOM     13  C   UNL     1      12.252   4.227  74.974  0.00  0.00    +0.000 A 
ATOM     14  C   UNL     1      11.208   4.113  75.928  0.00  0.00    +0.000 A 
ATOM     15  C   UNL     1       9.589   2.593  76.880  0.00  0.00    +0.000 A 
ATOM     16  C   UNL     1      10.775   5.152  76.736  0.00  0.00    +0.000 A 
ATOM     17  C   UNL     1       9.142   3.630  77.701  0.00  0.00    +0.000 A 
ATOM     18  C   UNL     1       9.734   4.892  77.622  0.00  0.00    +0.000 A 
ENDROOT
BRANCH   8  19
ATOM     19  C   UNL     1      13.801   3.819  73.046  0.00  0.00    +0.000 C 
ATOM     20  C   UNL     1      14.793   4.273  71.970  0.00  0.00    +0.000 C 
BRANCH  20  21
ATOM     21  C   UNL     1      15.785   4.700  70.885  0.00  0.00    +0.000 C 
ATOM     22  C   UNL     1      16.753   5.135  69.779  0.00  0.00    +0.000 C 
BRANCH  22  23
ATOM     23  C   UNL     1      17.693   5.576  68.654  0.00  0.00    +0.000 C 
BRANCH  23  24
ATOM     24  C   UNL     1      18.605   6.025  67.508  0.00  0.00    +0.000 C 
ATOM     25  C   UNL     1      19.540   6.449  66.371  0.00  0.00    +0.000 C 
BRANCH  25  26
ATOM     26  C   UNL     1      20.500   6.850  65.246  0.00  0.00    +0.000 C 
ATOM     27  C   UNL     1      21.451   7.220  64.103  0.00  0.00    +0.000 C 
BRANCH  27  28
ATOM     28  S   UNL     1      22.538   7.613  62.776  0.00  0.00    +0.000 S 
ATOM     29  O   UNL     1      22.298   6.289  62.111  0.00  0.00    +0.000 OA
BRANCH  28  30
ATOM     30  C   UNL     1      21.277   8.390  61.823  0.00  0.00    +0.000 C 
BRANCH  30  31
ATOM     31  C   UNL     1      20.189   9.058  60.974  0.00  0.00    +0.000 C 
ATOM     32  C   UNL     1      19.089   9.720  60.138  0.00  0.00    +0.000 C 
BRANCH  32  33
ATOM     33  C   UNL     1      18.030  10.350  59.344  0.00  0.00    +0.000 C 
ATOM     34  F   UNL     1      17.770   9.544  58.277  0.00  0.00    +0.000 F 
ATOM     35  F   UNL     1      18.531  11.506  58.826  0.00  0.00    +0.000 F 
BRANCH  33  36
ATOM     36  C   UNL     1      16.753  10.622  60.145  0.00  0.00    +0.000 C 
ATOM     37  F   UNL     1      16.079   9.479  60.433  0.00  0.00    +0.000 F 
ATOM     38  F   UNL     1      15.892  11.429  59.477  0.00  0.00    +0.000 F 
ATOM     39  F   UNL     1      17.020  11.228  61.330  0.00  0.00    +0.000 F 
ENDBRANCH  33  36
ENDBRANCH  32  33
ENDBRANCH  30  31
ENDBRANCH  28  30
ENDBRANCH  27  28
ENDBRANCH  25  26
ENDBRANCH  23  24
ENDBRANCH  22  23
ENDBRANCH  20  21
ENDBRANCH   8  19
BRANCH   6  40
ATOM     40  O   UNL     1      12.898  -2.844  73.305  0.00  0.00    +0.000 OA
ATOM     41  H   UNL     1      13.643  -3.245  73.786  0.00  0.00    +0.000 HD
ENDBRANCH   6  40
BRANCH  18  42
ATOM     42  O   UNL     1       9.262   5.875  78.444  0.00  0.00    +0.000 OA
ATOM     43  H   UNL     1       8.289   5.836  78.444  0.00  0.00    +0.000 HD
ENDBRANCH  18  42
TORSDOF 12
ENDMDL
MODEL 5
REMARK VINA RESULT:      -4.7     13.919     19.778
REMARK  Name = Fulvestrant.pdbqt.pdb
REMARK  12 active torsions:
REMARK  status: ('A' for Active; 'I' for Inactive)
REMARK    1  A    between atoms: C_6  and  O_40
REMARK    2  A    between atoms: C_8  and  C_19
REMARK    3  A    between atoms: C_18  and  O_42
REMARK    4  A    between atoms: C_20  and  C_21
REMARK    5  A    between atoms: C_22  and  C_23
REMARK    6  A    between atoms: C_23  and  C_24
REMARK    7  A    between atoms: C_25  and  C_26
REMARK    8  A    between atoms: C_27  and  S_28
REMARK    9  A    between atoms: S_28  and  C_30
REMARK   10  A    between atoms: C_30  and  C_31
REMARK   11  A    between atoms: C_32  and  C_33
REMARK   12  A    between atoms: C_33  and  C_36
REMARK                            x       y       z     vdW  Elec       q    Type
REMARK                         _______ _______ _______ _____ _____    ______ ____
ROOT
ATOM      1  C   UNL     1      15.662  12.245  59.484  0.00  0.00    +0.000 C 
ATOM      2  C   UNL     1      17.232  12.574  59.523  0.00  0.00    +0.000 C 
ATOM      3  C   UNL     1      14.822  12.340  58.246  0.00  0.00    +0.000 A 
ATOM      4  C   UNL     1      15.460  12.361  56.842  0.00  0.00    +0.000 A 
ATOM      5  C   UNL     1      17.694  12.467  58.143  0.00  0.00    +0.000 C 
ATOM      6  C   UNL     1      17.792  11.471  60.447  0.00  0.00    +0.000 C 
ATOM      7  C   UNL     1      15.445  11.169  60.405  0.00  0.00    +0.000 C 
ATOM      8  C   UNL     1      13.337  12.399  58.305  0.00  0.00    +0.000 A 
ATOM      9  C   UNL     1      16.875  12.378  56.886  0.00  0.00    +0.000 C 
ATOM     10  C   UNL     1      16.746  10.673  60.981  0.00  0.00    +0.000 C 
ATOM     11  C   UNL     1      17.430  13.974  60.158  0.00  0.00    +0.000 C 
ATOM     12  C   UNL     1      14.670  12.413  55.579  0.00  0.00    +0.000 A 
ATOM     13  C   UNL     1      12.777  12.433  57.006  0.00  0.00    +0.000 A 
ATOM     14  C   UNL     1      13.258  12.448  55.672  0.00  0.00    +0.000 A 
ATOM     15  C   UNL     1      15.259  12.429  54.317  0.00  0.00    +0.000 A 
ATOM     16  C   UNL     1      12.446  12.500  54.551  0.00  0.00    +0.000 A 
ATOM     17  C   UNL     1      14.453  12.480  53.178  0.00  0.00    +0.000 A 
ATOM     18  C   UNL     1      13.063  12.515  53.304  0.00  0.00    +0.000 A 
ENDROOT
BRANCH   8  19
ATOM     19  C   UNL     1      12.606  12.587  59.503  0.00  0.00    +0.000 C 
ATOM     20  C   UNL     1      11.823  12.810  60.800  0.00  0.00    +0.000 C 
BRANCH  20  21
ATOM     21  C   UNL     1      11.053  13.060  62.100  0.00  0.00    +0.000 C 
ATOM     22  C   UNL     1      10.256  13.300  63.385  0.00  0.00    +0.000 C 
BRANCH  22  23
ATOM     23  C   UNL     1       9.430  13.534  64.654  0.00  0.00    +0.000 C 
BRANCH  23  24
ATOM     24  C   UNL     1       8.610  13.734  65.933  0.00  0.00    +0.000 C 
ATOM     25  C   UNL     1       7.761  13.927  67.193  0.00  0.00    +0.000 C 
BRANCH  25  26
ATOM     26  C   UNL     1       6.882  14.118  68.434  0.00  0.00    +0.000 C 
ATOM     27  C   UNL     1       5.976  14.321  69.652  0.00  0.00    +0.000 C 
BRANCH  27  28
ATOM     28  S   UNL     1       4.912  14.570  71.032  0.00  0.00    +0.000 S 
ATOM     29  O   UNL     1       3.810  15.096  70.160  0.00  0.00    +0.000 OA
BRANCH  28  30
ATOM     30  C   UNL     1       4.264  12.934  70.972  0.00  0.00    +0.000 C 
BRANCH  30  31
ATOM     31  C   UNL     1       3.722  11.501  70.920  0.00  0.00    +0.000 C 
ATOM     32  C   UNL     1       3.195  10.062  70.878  0.00  0.00    +0.000 C 
BRANCH  32  33
ATOM     33  C   UNL     1       2.699   8.684  70.843  0.00  0.00    +0.000 C 
ATOM     34  F   UNL     1       1.785   8.541  71.844  0.00  0.00    +0.000 F 
ATOM     35  F   UNL     1       3.736   7.860  71.164  0.00  0.00    +0.000 F 
BRANCH  33  36
ATOM     36  C   UNL     1       2.092   8.292  69.492  0.00  0.00    +0.000 C 
ATOM     37  F   UNL     1       2.744   7.244  68.926  0.00  0.00    +0.000 F 
ATOM     38  F   UNL     1       2.133   9.311  68.598  0.00  0.00    +0.000 F 
ATOM     39  F   UNL     1       0.790   7.926  69.611  0.00  0.00    +0.000 F 
ENDBRANCH  33  36
ENDBRANCH  32  33
ENDBRANCH  30  31
ENDBRANCH  28  30
ENDBRANCH  27  28
ENDBRANCH  25  26
ENDBRANCH  23  24
ENDBRANCH  22  23
ENDBRANCH  20  21
ENDBRANCH   8  19
BRANCH   6  40
ATOM     40  O   UNL     1      19.094  11.020  60.367  0.00  0.00    +0.000 OA
ATOM     41  H   UNL     1      19.366  10.556  61.179  0.00  0.00    +0.000 HD
ENDBRANCH   6  40
BRANCH  18  42
ATOM     42  O   UNL     1      12.316  12.565  52.161  0.00  0.00    +0.000 OA
ATOM     43  H   UNL     1      11.377  12.624  52.411  0.00  0.00    +0.000 HD
ENDBRANCH  18  42
TORSDOF 12
ENDMDL
MODEL 6
REMARK VINA RESULT:      -4.7      4.659      6.529
REMARK  Name = Fulvestrant.pdbqt.pdb
REMARK  12 active torsions:
REMARK  status: ('A' for Active; 'I' for Inactive)
REMARK    1  A    between atoms: C_6  and  O_40
REMARK    2  A    between atoms: C_8  and  C_19
REMARK    3  A    between atoms: C_18  and  O_42
REMARK    4  A    between atoms: C_20  and  C_21
REMARK    5  A    between atoms: C_22  and  C_23
REMARK    6  A    between atoms: C_23  and  C_24
REMARK    7  A    between atoms: C_25  and  C_26
REMARK    8  A    between atoms: C_27  and  S_28
REMARK    9  A    between atoms: S_28  and  C_30
REMARK   10  A    between atoms: C_30  and  C_31
REMARK   11  A    between atoms: C_32  and  C_33
REMARK   12  A    between atoms: C_33  and  C_36
REMARK                            x       y       z     vdW  Elec       q    Type
REMARK                         _______ _______ _______ _____ _____    ______ ____
ROOT
ATOM      1  C   UNL     1      13.849   0.572  71.098  0.00  0.00    +0.000 C 
ATOM      2  C   UNL     1      12.928  -0.738  71.001  0.00  0.00    +0.000 C 
ATOM      3  C   UNL     1      13.563   1.725  72.013  0.00  0.00    +0.000 A 
ATOM      4  C   UNL     1      12.608   1.578  73.216  0.00  0.00    +0.000 A 
ATOM      5  C   UNL     1      12.161  -0.777  72.241  0.00  0.00    +0.000 C 
ATOM      6  C   UNL     1      13.963  -1.878  70.883  0.00  0.00    +0.000 C 
ATOM      7  C   UNL     1      15.201   0.139  70.910  0.00  0.00    +0.000 C 
ATOM      8  C   UNL     1      14.194   3.057  71.821  0.00  0.00    +0.000 A 
ATOM      9  C   UNL     1      11.997   0.303  73.275  0.00  0.00    +0.000 C 
ATOM     10  C   UNL     1      15.284  -1.362  70.800  0.00  0.00    +0.000 C 
ATOM     11  C   UNL     1      12.065  -0.645  69.717  0.00  0.00    +0.000 C 
ATOM     12  C   UNL     1      12.321   2.679  74.178  0.00  0.00    +0.000 A 
ATOM     13  C   UNL     1      13.803   3.958  72.841  0.00  0.00    +0.000 A 
ATOM     14  C   UNL     1      12.955   3.929  73.977  0.00  0.00    +0.000 A 
ATOM     15  C   UNL     1      11.459   2.533  75.262  0.00  0.00    +0.000 A 
ATOM     16  C   UNL     1      12.745   5.008  74.820  0.00  0.00    +0.000 A 
ATOM     17  C   UNL     1      11.238   3.611  76.122  0.00  0.00    +0.000 A 
ATOM     18  C   UNL     1      11.878   4.831  75.894  0.00  0.00    +0.000 A 
ENDROOT
BRANCH   8  19
ATOM     19  C   UNL     1      14.932   3.417  70.668  0.00  0.00    +0.000 C 
ATOM     20  C   UNL     1      15.748   3.809  69.432  0.00  0.00    +0.000 C 
BRANCH  20  21
ATOM     21  C   UNL     1      16.588   4.203  68.214  0.00  0.00    +0.000 C 
ATOM     22  C   UNL     1      17.451   4.606  67.015  0.00  0.00    +0.000 C 
BRANCH  22  23
ATOM     23  C   UNL     1      18.339   5.020  65.837  0.00  0.00    +0.000 C 
BRANCH  23  24
ATOM     24  C   UNL     1      19.249   5.451  64.682  0.00  0.00    +0.000 C 
ATOM     25  C   UNL     1      20.169   5.848  63.524  0.00  0.00    +0.000 C 
BRANCH  25  26
ATOM     26  C   UNL     1      21.101   6.212  62.363  0.00  0.00    +0.000 C 
ATOM     27  C   UNL     1      22.061   6.560  61.222  0.00  0.00    +0.000 C 
BRANCH  27  28
ATOM     28  S   UNL     1      23.191   6.948  59.929  0.00  0.00    +0.000 S 
ATOM     29  O   UNL     1      23.075   5.574  59.337  0.00  0.00    +0.000 OA
BRANCH  28  30
ATOM     30  C   UNL     1      21.937   7.580  58.867  0.00  0.00    +0.000 C 
BRANCH  30  31
ATOM     31  C   UNL     1      20.861   8.131  57.925  0.00  0.00    +0.000 C 
ATOM     32  C   UNL     1      19.787   8.699  56.991  0.00  0.00    +0.000 C 
BRANCH  32  33
ATOM     33  C   UNL     1      18.760   9.250  56.103  0.00  0.00    +0.000 C 
ATOM     34  F   UNL     1      17.641   9.480  56.847  0.00  0.00    +0.000 F 
ATOM     35  F   UNL     1      18.420   8.281  55.207  0.00  0.00    +0.000 F 
BRANCH  33  36
ATOM     36  C   UNL     1      19.204  10.526  55.380  0.00  0.00    +0.000 C 
ATOM     37  F   UNL     1      20.056  11.267  56.134  0.00  0.00    +0.000 F 
ATOM     38  F   UNL     1      18.157  11.328  55.066  0.00  0.00    +0.000 F 
ATOM     39  F   UNL     1      19.849  10.249  54.218  0.00  0.00    +0.000 F 
ENDBRANCH  33  36
ENDBRANCH  32  33
ENDBRANCH  30  31
ENDBRANCH  28  30
ENDBRANCH  27  28
ENDBRANCH  25  26
ENDBRANCH  23  24
ENDBRANCH  22  23
ENDBRANCH  20  21
ENDBRANCH   8  19
BRANCH   6  40
ATOM     40  O   UNL     1      13.702  -3.169  71.294  0.00  0.00    +0.000 OA
ATOM     41  H   UNL     1      12.824  -3.246  71.707  0.00  0.00    +0.000 HD
ENDBRANCH   6  40
BRANCH  18  42
ATOM     42  O   UNL     1      11.629   5.857  76.761  0.00  0.00    +0.000 OA
ATOM     43  H   UNL     1      11.247   6.598  76.258  0.00  0.00    +0.000 HD
ENDBRANCH  18  42
TORSDOF 12
ENDMDL
MODEL 7
REMARK VINA RESULT:      -4.5     14.495     19.700
REMARK  Name = Fulvestrant.pdbqt.pdb
REMARK  12 active torsions:
REMARK  status: ('A' for Active; 'I' for Inactive)
REMARK    1  A    between atoms: C_6  and  O_40
REMARK    2  A    between atoms: C_8  and  C_19
REMARK    3  A    between atoms: C_18  and  O_42
REMARK    4  A    between atoms: C_20  and  C_21
REMARK    5  A    between atoms: C_22  and  C_23
REMARK    6  A    between atoms: C_23  and  C_24
REMARK    7  A    between atoms: C_25  and  C_26
REMARK    8  A    between atoms: C_27  and  S_28
REMARK    9  A    between atoms: S_28  and  C_30
REMARK   10  A    between atoms: C_30  and  C_31
REMARK   11  A    between atoms: C_32  and  C_33
REMARK   12  A    between atoms: C_33  and  C_36
REMARK                            x       y       z     vdW  Elec       q    Type
REMARK                         _______ _______ _______ _____ _____    ______ ____
ROOT
ATOM      1  C   UNL     1      13.794  13.866  57.962  0.00  0.00    +0.000 C 
ATOM      2  C   UNL     1      13.918  14.305  56.424  0.00  0.00    +0.000 C 
ATOM      3  C   UNL     1      14.690  12.857  58.615  0.00  0.00    +0.000 A 
ATOM      4  C   UNL     1      16.046  12.465  57.992  0.00  0.00    +0.000 A 
ATOM      5  C   UNL     1      15.273  13.948  56.017  0.00  0.00    +0.000 C 
ATOM      6  C   UNL     1      13.675  15.829  56.480  0.00  0.00    +0.000 C 
ATOM      7  C   UNL     1      13.393  15.032  58.691  0.00  0.00    +0.000 C 
ATOM      8  C   UNL     1      14.330  12.199  59.899  0.00  0.00    +0.000 A 
ATOM      9  C   UNL     1      16.268  13.081  56.738  0.00  0.00    +0.000 C 
ATOM     10  C   UNL     1      13.341  16.244  57.797  0.00  0.00    +0.000 C 
ATOM     11  C   UNL     1      12.800  13.600  55.614  0.00  0.00    +0.000 C 
ATOM     12  C   UNL     1      16.991  11.499  58.620  0.00  0.00    +0.000 A 
ATOM     13  C   UNL     1      15.360  11.329  60.331  0.00  0.00    +0.000 A 
ATOM     14  C   UNL     1      16.626  10.907  59.852  0.00  0.00    +0.000 A 
ATOM     15  C   UNL     1      18.214  11.155  58.048  0.00  0.00    +0.000 A 
ATOM     16  C   UNL     1      17.442   9.997  60.505  0.00  0.00    +0.000 A 
ATOM     17  C   UNL     1      19.048  10.241  58.695  0.00  0.00    +0.000 A 
ATOM     18  C   UNL     1      18.657   9.674  59.909  0.00  0.00    +0.000 A 
ENDROOT
BRANCH   8  19
ATOM     19  C   UNL     1      13.051  12.294  60.498  0.00  0.00    +0.000 C 
ATOM     20  C   UNL     1      11.671  12.378  61.157  0.00  0.00    +0.000 C 
BRANCH  20  21
ATOM     21  C   UNL     1      10.296  12.436  61.829  0.00  0.00    +0.000 C 
ATOM     22  C   UNL     1       8.930  12.471  62.521  0.00  0.00    +0.000 C 
BRANCH  22  23
ATOM     23  C   UNL     1       7.574  12.479  63.231  0.00  0.00    +0.000 C 
BRANCH  23  24
ATOM     24  C   UNL     1       6.205  12.460  63.920  0.00  0.00    +0.000 C 
ATOM     25  C   UNL     1       4.825  12.421  64.584  0.00  0.00    +0.000 C 
BRANCH  25  26
ATOM     26  C   UNL     1       3.432  12.362  65.219  0.00  0.00    +0.000 C 
ATOM     27  C   UNL     1       2.036  12.269  65.842  0.00  0.00    +0.000 C 
BRANCH  27  28
ATOM     28  S   UNL     1       0.426  12.130  66.542  0.00  0.00    +0.000 S 
ATOM     29  O   UNL     1       0.192  10.802  65.885  0.00  0.00    +0.000 OA
BRANCH  28  30
ATOM     30  C   UNL     1       1.009  11.368  68.018  0.00  0.00    +0.000 C 
BRANCH  30  31
ATOM     31  C   UNL     1       1.539  10.712  69.298  0.00  0.00    +0.000 C 
ATOM     32  C   UNL     1       2.051  10.055  70.584  0.00  0.00    +0.000 C 
BRANCH  32  33
ATOM     33  C   UNL     1       2.532   9.428  71.818  0.00  0.00    +0.000 C 
ATOM     34  F   UNL     1       1.459   8.887  72.460  0.00  0.00    +0.000 F 
ATOM     35  F   UNL     1       2.996  10.415  72.634  0.00  0.00    +0.000 F 
BRANCH  33  36
ATOM     36  C   UNL     1       3.613   8.369  71.578  0.00  0.00    +0.000 C 
ATOM     37  F   UNL     1       4.859   8.908  71.560  0.00  0.00    +0.000 F 
ATOM     38  F   UNL     1       3.445   7.724  70.397  0.00  0.00    +0.000 F 
ATOM     39  F   UNL     1       3.612   7.418  72.548  0.00  0.00    +0.000 F 
ENDBRANCH  33  36
ENDBRANCH  32  33
ENDBRANCH  30  31
ENDBRANCH  28  30
ENDBRANCH  27  28
ENDBRANCH  25  26
ENDBRANCH  23  24
ENDBRANCH  22  23
ENDBRANCH  20  21
ENDBRANCH   8  19
BRANCH   6  40
ATOM     40  O   UNL     1      14.184  16.701  55.540  0.00  0.00    +0.000 OA
ATOM     41  H   UNL     1      13.688  16.661  54.703  0.00  0.00    +0.000 HD
ENDBRANCH   6  40
BRANCH  18  42
ATOM     42  O   UNL     1      19.505   8.783  60.504  0.00  0.00    +0.000 OA
ATOM     43  H   UNL     1      19.490   7.955  59.993  0.00  0.00    +0.000 HD
ENDBRANCH  18  42
TORSDOF 12
ENDMDL
MODEL 8
REMARK VINA RESULT:      -4.4      5.909      8.656
REMARK  Name = Fulvestrant.pdbqt.pdb
REMARK  12 active torsions:
REMARK  status: ('A' for Active; 'I' for Inactive)
REMARK    1  A    between atoms: C_6  and  O_40
REMARK    2  A    between atoms: C_8  and  C_19
REMARK    3  A    between atoms: C_18  and  O_42
REMARK    4  A    between atoms: C_20  and  C_21
REMARK    5  A    between atoms: C_22  and  C_23
REMARK    6  A    between atoms: C_23  and  C_24
REMARK    7  A    between atoms: C_25  and  C_26
REMARK    8  A    between atoms: C_27  and  S_28
REMARK    9  A    between atoms: S_28  and  C_30
REMARK   10  A    between atoms: C_30  and  C_31
REMARK   11  A    between atoms: C_32  and  C_33
REMARK   12  A    between atoms: C_33  and  C_36
REMARK                            x       y       z     vdW  Elec       q    Type
REMARK                         _______ _______ _______ _____ _____    ______ ____
ROOT
ATOM      1  C   UNL     1      11.359  -0.487  73.452  0.00  0.00    +0.000 C 
ATOM      2  C   UNL     1      10.185  -1.576  73.355  0.00  0.00    +0.000 C 
ATOM      3  C   UNL     1      11.253   0.783  74.242  0.00  0.00    +0.000 A 
ATOM      4  C   UNL     1      10.186   0.958  75.343  0.00  0.00    +0.000 A 
ATOM      5  C   UNL     1       9.321  -1.332  74.505  0.00  0.00    +0.000 C 
ATOM      6  C   UNL     1      10.950  -2.915  73.434  0.00  0.00    +0.000 C 
ATOM      7  C   UNL     1      12.594  -1.213  73.443  0.00  0.00    +0.000 C 
ATOM      8  C   UNL     1      12.177   1.927  74.021  0.00  0.00    +0.000 A 
ATOM      9  C   UNL     1       9.308  -0.148  75.431  0.00  0.00    +0.000 C 
ATOM     10  C   UNL     1      12.354  -2.700  73.456  0.00  0.00    +0.000 C 
ATOM     11  C   UNL     1       9.481  -1.426  71.982  0.00  0.00    +0.000 C 
ATOM     12  C   UNL     1      10.065   2.181  76.185  0.00  0.00    +0.000 A 
ATOM     13  C   UNL     1      11.904   2.984  74.922  0.00  0.00    +0.000 A 
ATOM     14  C   UNL     1      10.973   3.243  75.960  0.00  0.00    +0.000 A 
ATOM     15  C   UNL     1       9.099   2.326  77.177  0.00  0.00    +0.000 A 
ATOM     16  C   UNL     1      10.931   4.419  76.693  0.00  0.00    +0.000 A 
ATOM     17  C   UNL     1       9.045   3.504  77.925  0.00  0.00    +0.000 A 
ATOM     18  C   UNL     1       9.955   4.533  77.677  0.00  0.00    +0.000 A 
ENDROOT
BRANCH   8  19
ATOM     19  C   UNL     1      13.075   2.010  72.930  0.00  0.00    +0.000 C 
ATOM     20  C   UNL     1      14.039   2.120  71.745  0.00  0.00    +0.000 C 
BRANCH  20  21
ATOM     21  C   UNL     1      14.990   2.256  70.552  0.00  0.00    +0.000 C 
ATOM     22  C   UNL     1      15.925   2.368  69.344  0.00  0.00    +0.000 C 
BRANCH  22  23
ATOM     23  C   UNL     1      16.843   2.454  68.121  0.00  0.00    +0.000 C 
BRANCH  23  24
ATOM     24  C   UNL     1      17.741   2.517  66.881  0.00  0.00    +0.000 C 
ATOM     25  C   UNL     1      18.627   2.613  65.636  0.00  0.00    +0.000 C 
BRANCH  25  26
ATOM     26  C   UNL     1      19.500   2.741  64.383  0.00  0.00    +0.000 C 
ATOM     27  C   UNL     1      20.401   2.881  63.152  0.00  0.00    +0.000 C 
BRANCH  27  28
ATOM     28  S   UNL     1      21.460   3.055  61.757  0.00  0.00    +0.000 S 
ATOM     29  O   UNL     1      20.308   2.979  60.800  0.00  0.00    +0.000 OA
BRANCH  28  30
ATOM     30  C   UNL     1      21.400   4.815  61.788  0.00  0.00    +0.000 C 
BRANCH  30  31
ATOM     31  C   UNL     1      21.350   6.347  61.790  0.00  0.00    +0.000 C 
ATOM     32  C   UNL     1      21.282   7.878  61.790  0.00  0.00    +0.000 C 
BRANCH  32  33
ATOM     33  C   UNL     1      21.207   9.341  61.788  0.00  0.00    +0.000 C 
ATOM     34  F   UNL     1      21.883   9.795  60.695  0.00  0.00    +0.000 F 
ATOM     35  F   UNL     1      21.900   9.795  62.870  0.00  0.00    +0.000 F 
BRANCH  33  36
ATOM     36  C   UNL     1      19.771   9.875  61.800  0.00  0.00    +0.000 C 
ATOM     37  F   UNL     1      19.633  10.981  61.024  0.00  0.00    +0.000 F 
ATOM     38  F   UNL     1      19.361  10.215  63.047  0.00  0.00    +0.000 F 
ATOM     39  F   UNL     1      18.888   8.956  61.334  0.00  0.00    +0.000 F 
ENDBRANCH  33  36
ENDBRANCH  32  33
ENDBRANCH  30  31
ENDBRANCH  28  30
ENDBRANCH  27  28
ENDBRANCH  25  26
ENDBRANCH  23  24
ENDBRANCH  22  23
ENDBRANCH  20  21
ENDBRANCH   8  19
BRANCH   6  40
ATOM     40  O   UNL     1      10.376  -4.076  73.909  0.00  0.00    +0.000 OA
ATOM     41  H   UNL     1       9.529  -4.267  73.468  0.00  0.00    +0.000 HD
ENDBRANCH   6  40
BRANCH  18  42
ATOM     42  O   UNL     1       9.862   5.667  78.433  0.00  0.00    +0.000 OA
ATOM     43  H   UNL     1      10.691   5.771  78.934  0.00  0.00    +0.000 HD
ENDBRANCH  18  42
TORSDOF 12
ENDMDL
MODEL 9
REMARK VINA RESULT:      -4.4      9.605     17.523
REMARK  Name = Fulvestrant.pdbqt.pdb
REMARK  12 active torsions:
REMARK  status: ('A' for Active; 'I' for Inactive)
REMARK    1  A    between atoms: C_6  and  O_40
REMARK    2  A    between atoms: C_8  and  C_19
REMARK    3  A    between atoms: C_18  and  O_42
REMARK    4  A    between atoms: C_20  and  C_21
REMARK    5  A    between atoms: C_22  and  C_23
REMARK    6  A    between atoms: C_23  and  C_24
REMARK    7  A    between atoms: C_25  and  C_26
REMARK    8  A    between atoms: C_27  and  S_28
REMARK    9  A    between atoms: S_28  and  C_30
REMARK   10  A    between atoms: C_30  and  C_31
REMARK   11  A    between atoms: C_32  and  C_33
REMARK   12  A    between atoms: C_33  and  C_36
REMARK                            x       y       z     vdW  Elec       q    Type
REMARK                         _______ _______ _______ _____ _____    ______ ____
ROOT
ATOM      1  C   UNL     1      20.472  -0.118  56.118  0.00  0.00    +0.000 C 
ATOM      2  C   UNL     1      21.890   0.482  56.568  0.00  0.00    +0.000 C 
ATOM      3  C   UNL     1      19.598   0.506  55.072  0.00  0.00    +0.000 A 
ATOM      4  C   UNL     1      20.159   1.528  54.062  0.00  0.00    +0.000 A 
ATOM      5  C   UNL     1      22.318   1.350  55.476  0.00  0.00    +0.000 C 
ATOM      6  C   UNL     1      22.764  -0.782  56.728  0.00  0.00    +0.000 C 
ATOM      7  C   UNL     1      20.591  -1.544  56.181  0.00  0.00    +0.000 C 
ATOM      8  C   UNL     1      18.157   0.161  54.942  0.00  0.00    +0.000 A 
ATOM      9  C   UNL     1      21.514   1.851  54.309  0.00  0.00    +0.000 C 
ATOM     10  C   UNL     1      21.996  -1.961  56.530  0.00  0.00    +0.000 C 
ATOM     11  C   UNL     1      21.715   1.204  57.928  0.00  0.00    +0.000 C 
ATOM     12  C   UNL     1      19.344   2.145  52.978  0.00  0.00    +0.000 A 
ATOM     13  C   UNL     1      17.566   0.843  53.851  0.00  0.00    +0.000 A 
ATOM     14  C   UNL     1      17.981   1.780  52.871  0.00  0.00    +0.000 A 
ATOM     15  C   UNL     1      19.863   3.066  52.070  0.00  0.00    +0.000 A 
ATOM     16  C   UNL     1      17.149   2.306  51.896  0.00  0.00    +0.000 A 
ATOM     17  C   UNL     1      19.037   3.604  51.081  0.00  0.00    +0.000 A 
ATOM     18  C   UNL     1      17.697   3.223  51.004  0.00  0.00    +0.000 A 
ENDROOT
BRANCH   8  19
ATOM     19  C   UNL     1      17.443  -0.599  55.899  0.00  0.00    +0.000 C 
ATOM     20  C   UNL     1      16.668  -1.404  56.947  0.00  0.00    +0.000 C 
BRANCH  20  21
ATOM     21  C   UNL     1      15.895  -2.185  58.013  0.00  0.00    +0.000 C 
ATOM     22  C   UNL     1      15.102  -2.941  59.084  0.00  0.00    +0.000 C 
BRANCH  22  23
ATOM     23  C   UNL     1      14.292  -3.668  60.161  0.00  0.00    +0.000 C 
BRANCH  23  24
ATOM     24  C   UNL     1      13.470  -4.364  61.251  0.00  0.00    +0.000 C 
ATOM     25  C   UNL     1      12.669  -5.046  62.365  0.00  0.00    +0.000 C 
BRANCH  25  26
ATOM     26  C   UNL     1      11.893  -5.718  63.502  0.00  0.00    +0.000 C 
ATOM     27  C   UNL     1      11.093  -6.361  64.639  0.00  0.00    +0.000 C 
BRANCH  27  28
ATOM     28  S   UNL     1      10.153  -7.072  65.947  0.00  0.00    +0.000 S 
ATOM     29  O   UNL     1      11.335  -7.076  66.871  0.00  0.00    +0.000 OA
BRANCH  28  30
ATOM     30  C   UNL     1       9.605  -5.512  66.554  0.00  0.00    +0.000 C 
BRANCH  30  31
ATOM     31  C   UNL     1       9.139  -4.159  67.104  0.00  0.00    +0.000 C 
ATOM     32  C   UNL     1       8.686  -2.808  67.667  0.00  0.00    +0.000 C 
BRANCH  32  33
ATOM     33  C   UNL     1       8.258  -1.518  68.215  0.00  0.00    +0.000 C 
ATOM     34  F   UNL     1       7.580  -1.757  69.372  0.00  0.00    +0.000 F 
ATOM     35  F   UNL     1       7.348  -0.982  67.353  0.00  0.00    +0.000 F 
BRANCH  33  36
ATOM     36  C   UNL     1       9.417  -0.546  68.454  0.00  0.00    +0.000 C 
ATOM     37  F   UNL     1       9.151   0.326  69.460  0.00  0.00    +0.000 F 
ATOM     38  F   UNL     1       9.700   0.195  67.354  0.00  0.00    +0.000 F 
ATOM     39  F   UNL     1      10.560  -1.198  68.792  0.00  0.00    +0.000 F 
ENDBRANCH  33  36
ENDBRANCH  32  33
ENDBRANCH  30  31
ENDBRANCH  28  30
ENDBRANCH  27  28
ENDBRANCH  25  26
ENDBRANCH  23  24
ENDBRANCH  22  23
ENDBRANCH  20  21
ENDBRANCH   8  19
BRANCH   6  40
ATOM     40  O   UNL     1      24.135  -0.764  56.584  0.00  0.00    +0.000 OA
ATOM     41  H   UNL     1      24.521  -1.653  56.683  0.00  0.00    +0.000 HD
ENDBRANCH   6  40
BRANCH  18  42
ATOM     42  O   UNL     1      16.928   3.777  50.020  0.00  0.00    +0.000 OA
ATOM     43  H   UNL     1      17.331   4.622  49.754  0.00  0.00    +0.000 HD
ENDBRANCH  18  42
TORSDOF 12
ENDMDL
