MODEL 1
REMARK VINA RESULT:      -4.7      0.000      0.000
REMARK  Name = Gefitinib.pdbqt.pdb
REMARK  6 active torsions:
REMARK  status: ('A' for Active; 'I' for Inactive)
REMARK    1  A    between atoms: C_3  and  O_11
REMARK    2  A    between atoms: C_6  and  O_21
REMARK    3  A    between atoms: O_11  and  C_12
REMARK    4  A    between atoms: C_13  and  C_14
REMARK    5  A    between atoms: C_14  and  N_15
REMARK    6  A    between atoms: N_23  and  C_25
REMARK                            x       y       z     vdW  Elec       q    Type
REMARK                         _______ _______ _______ _____ _____    ______ ____
ROOT
ATOM      1  N   UNL     1      10.999  13.098  56.113  0.00  0.00    +0.000 NA
ATOM      2  N   UNL     1      12.973  12.557  54.894  0.00  0.00    +0.000 NA
ATOM      3  C   UNL     1      12.900  12.277  59.721  0.00  0.00    +0.000 A 
ATOM      4  C   UNL     1      12.974  12.426  57.282  0.00  0.00    +0.000 A 
ATOM      5  C   UNL     1      13.590  12.149  58.515  0.00  0.00    +0.000 A 
ATOM      6  C   UNL     1      11.569  12.693  59.695  0.00  0.00    +0.000 A 
ATOM      7  C   UNL     1      11.638  12.834  57.253  0.00  0.00    +0.000 A 
ATOM      8  C   UNL     1      10.965  12.961  58.461  0.00  0.00    +0.000 A 
ATOM      9  C   UNL     1      13.620  12.308  56.044  0.00  0.00    +0.000 A 
ATOM     10  C   UNL     1      11.695  12.942  54.980  0.00  0.00    +0.000 A 
ATOM     11  N   UNL     1      14.971  11.876  56.011  0.00  0.00    +0.000 N 
ATOM     12  H   UNL     1      15.530  12.372  56.699  0.00  0.00    +0.000 HD
ENDROOT
BRANCH  11  13
ATOM     13  C   UNL     1      15.735  11.501  54.883  0.00  0.00    +0.000 A 
ATOM     14  C   UNL     1      16.529  10.351  54.956  0.00  0.00    +0.000 A 
ATOM     15  C   UNL     1      17.217   9.884  53.838  0.00  0.00    +0.000 A 
ATOM     16 CL   UNL     1      18.202   8.486  53.997  0.00  0.00    +0.000 Cl
ATOM     17  C   UNL     1      17.094  10.548  52.623  0.00  0.00    +0.000 A 
ATOM     18  F   UNL     1      17.749  10.114  51.536  0.00  0.00    +0.000 F 
ATOM     19  C   UNL     1      16.282  11.669  52.515  0.00  0.00    +0.000 A 
ATOM     20  C   UNL     1      15.596  12.126  53.638  0.00  0.00    +0.000 A 
ENDBRANCH  11  13
BRANCH   6  21
ATOM     21  O   UNL     1      10.925  12.805  60.906  0.00  0.00    +0.000 OA
ATOM     22  C   UNL     1       9.867  11.912  61.115  0.00  0.00    +0.000 C 
ENDBRANCH   6  21
BRANCH   3  23
ATOM     23  O   UNL     1      13.466  12.016  60.946  0.00  0.00    +0.000 OA
BRANCH  23  24
ATOM     24  C   UNL     1      14.633  11.378  60.894  0.00  0.00    +0.000 C 
ATOM     25  C   UNL     1      15.983  10.655  60.821  0.00  0.00    +0.000 C 
BRANCH  25  26
ATOM     26  C   UNL     1      17.343   9.956  60.726  0.00  0.00    +0.000 C 
BRANCH  26  27
ATOM     27  N   UNL     1      18.631   9.282  60.644  0.00  0.00    +0.000 N 
ATOM     28  C   UNL     1      19.152   9.521  59.263  0.00  0.00    +0.000 C 
ATOM     29  C   UNL     1      20.353  10.413  58.809  0.00  0.00    +0.000 C 
ATOM     30  O   UNL     1      21.243  11.204  59.449  0.00  0.00    +0.000 OA
ATOM     31  C   UNL     1      20.773  10.989  60.694  0.00  0.00    +0.000 C 
ATOM     32  C   UNL     1      19.621  10.160  61.337  0.00  0.00    +0.000 C 
ENDBRANCH  26  27
ENDBRANCH  25  26
ENDBRANCH  23  24
ENDBRANCH   3  23
TORSDOF 6
ENDMDL
MODEL 2
REMARK VINA RESULT:      -4.6     10.840     14.232
REMARK  Name = Gefitinib.pdbqt.pdb
REMARK  6 active torsions:
REMARK  status: ('A' for Active; 'I' for Inactive)
REMARK    1  A    between atoms: C_3  and  O_11
REMARK    2  A    between atoms: C_6  and  O_21
REMARK    3  A    between atoms: O_11  and  C_12
REMARK    4  A    between atoms: C_13  and  C_14
REMARK    5  A    between atoms: C_14  and  N_15
REMARK    6  A    between atoms: N_23  and  C_25
REMARK                            x       y       z     vdW  Elec       q    Type
REMARK                         _______ _______ _______ _____ _____    ______ ____
ROOT
ATOM      1  N   UNL     1       1.284   7.105  64.225  0.00  0.00    +0.000 NA
ATOM      2  N   UNL     1       1.908   4.823  63.944  0.00  0.00    +0.000 NA
ATOM      3  C   UNL     1       4.981   8.380  62.808  0.00  0.00    +0.000 A 
ATOM      4  C   UNL     1       3.444   6.560  63.356  0.00  0.00    +0.000 A 
ATOM      5  C   UNL     1       4.687   7.019  62.887  0.00  0.00    +0.000 A 
ATOM      6  C   UNL     1       4.012   9.303  63.202  0.00  0.00    +0.000 A 
ATOM      7  C   UNL     1       2.475   7.482  63.761  0.00  0.00    +0.000 A 
ATOM      8  C   UNL     1       2.780   8.834  63.672  0.00  0.00    +0.000 A 
ATOM      9  C   UNL     1       3.101   5.205  63.460  0.00  0.00    +0.000 A 
ATOM     10  C   UNL     1       1.054   5.788  64.302  0.00  0.00    +0.000 A 
ATOM     11  N   UNL     1       4.053   4.223  63.085  0.00  0.00    +0.000 N 
ATOM     12  H   UNL     1       4.482   4.452  62.193  0.00  0.00    +0.000 HD
ENDROOT
BRANCH  11  13
ATOM     13  C   UNL     1       3.991   2.828  63.297  0.00  0.00    +0.000 A 
ATOM     14  C   UNL     1       4.254   2.326  64.577  0.00  0.00    +0.000 A 
ATOM     15  C   UNL     1       4.103   0.971  64.860  0.00  0.00    +0.000 A 
ATOM     16 CL   UNL     1       4.472   0.408  66.440  0.00  0.00    +0.000 Cl
ATOM     17  C   UNL     1       3.658   0.103  63.869  0.00  0.00    +0.000 A 
ATOM     18  F   UNL     1       3.507  -1.206  64.121  0.00  0.00    +0.000 F 
ATOM     19  C   UNL     1       3.354   0.582  62.601  0.00  0.00    +0.000 A 
ATOM     20  C   UNL     1       3.506   1.940  62.331  0.00  0.00    +0.000 A 
ENDBRANCH  11  13
BRANCH   6  21
ATOM     21  O   UNL     1       4.343  10.635  63.110  0.00  0.00    +0.000 OA
ATOM     22  C   UNL     1       4.526  11.301  64.328  0.00  0.00    +0.000 C 
ENDBRANCH   6  21
BRANCH   3  23
ATOM     23  O   UNL     1       6.184   8.867  62.356  0.00  0.00    +0.000 OA
BRANCH  23  24
ATOM     24  C   UNL     1       6.667   8.246  61.283  0.00  0.00    +0.000 C 
ATOM     25  C   UNL     1       7.237   7.524  60.057  0.00  0.00    +0.000 C 
BRANCH  25  26
ATOM     26  C   UNL     1       7.830   6.785  58.852  0.00  0.00    +0.000 C 
BRANCH  26  27
ATOM     27  N   UNL     1       8.380   6.081  57.702  0.00  0.00    +0.000 N 
ATOM     28  C   UNL     1       9.724   5.572  58.115  0.00  0.00    +0.000 C 
ATOM     29  C   UNL     1      10.175   4.098  58.379  0.00  0.00    +0.000 C 
ATOM     30  O   UNL     1       9.561   2.895  58.335  0.00  0.00    +0.000 OA
ATOM     31  C   UNL     1       8.349   3.354  57.964  0.00  0.00    +0.000 C 
ATOM     32  C   UNL     1       7.715   4.745  57.659  0.00  0.00    +0.000 C 
ENDBRANCH  26  27
ENDBRANCH  25  26
ENDBRANCH  23  24
ENDBRANCH   3  23
TORSDOF 6
ENDMDL
MODEL 3
REMARK VINA RESULT:      -4.3     17.289     20.096
REMARK  Name = Gefitinib.pdbqt.pdb
REMARK  6 active torsions:
REMARK  status: ('A' for Active; 'I' for Inactive)
REMARK    1  A    between atoms: C_3  and  O_11
REMARK    2  A    between atoms: C_6  and  O_21
REMARK    3  A    between atoms: O_11  and  C_12
REMARK    4  A    between atoms: C_13  and  C_14
REMARK    5  A    between atoms: C_14  and  N_15
REMARK    6  A    between atoms: N_23  and  C_25
REMARK                            x       y       z     vdW  Elec       q    Type
REMARK                         _______ _______ _______ _____ _____    ______ ____
ROOT
ATOM      1  N   UNL     1      10.805   4.466  76.505  0.00  0.00    +0.000 NA
ATOM      2  N   UNL     1      12.668   3.838  75.158  0.00  0.00    +0.000 NA
ATOM      3  C   UNL     1       8.986   0.781  75.855  0.00  0.00    +0.000 A 
ATOM      4  C   UNL     1      10.871   2.297  75.499  0.00  0.00    +0.000 A 
ATOM      5  C   UNL     1      10.230   1.063  75.291  0.00  0.00    +0.000 A 
ATOM      6  C   UNL     1       8.370   1.751  76.648  0.00  0.00    +0.000 A 
ATOM      7  C   UNL     1      10.252   3.273  76.283  0.00  0.00    +0.000 A 
ATOM      8  C   UNL     1       9.016   2.977  76.843  0.00  0.00    +0.000 A 
ATOM      9  C   UNL     1      12.116   2.632  74.950  0.00  0.00    +0.000 A 
ATOM     10  C   UNL     1      11.990   4.699  75.926  0.00  0.00    +0.000 A 
ATOM     11  N   UNL     1      12.782   1.688  74.127  0.00  0.00    +0.000 N 
ATOM     12  H   UNL     1      12.775   0.765  74.550  0.00  0.00    +0.000 HD
ENDROOT
BRANCH  11  13
ATOM     13  C   UNL     1      13.926   1.891  73.324  0.00  0.00    +0.000 A 
ATOM     14  C   UNL     1      13.781   2.536  72.090  0.00  0.00    +0.000 A 
ATOM     15  C   UNL     1      14.893   2.852  71.313  0.00  0.00    +0.000 A 
ATOM     16 CL   UNL     1      14.651   3.614  69.792  0.00  0.00    +0.000 Cl
ATOM     17  C   UNL     1      16.169   2.550  71.775  0.00  0.00    +0.000 A 
ATOM     18  F   UNL     1      17.252   2.846  71.041  0.00  0.00    +0.000 F 
ATOM     19  C   UNL     1      16.342   1.945  73.013  0.00  0.00    +0.000 A 
ATOM     20  C   UNL     1      15.223   1.637  73.784  0.00  0.00    +0.000 A 
ENDBRANCH  11  13
BRANCH   6  21
ATOM     21  O   UNL     1       7.144   1.433  77.184  0.00  0.00    +0.000 OA
ATOM     22  C   UNL     1       6.437   2.498  77.755  0.00  0.00    +0.000 C 
ENDBRANCH   6  21
BRANCH   3  23
ATOM     23  O   UNL     1       8.329  -0.412  75.676  0.00  0.00    +0.000 OA
BRANCH  23  24
ATOM     24  C   UNL     1       8.344  -0.873  74.427  0.00  0.00    +0.000 C 
ATOM     25  C   UNL     1       8.379  -1.399  72.988  0.00  0.00    +0.000 C 
BRANCH  25  26
ATOM     26  C   UNL     1       8.449  -1.922  71.549  0.00  0.00    +0.000 C 
BRANCH  26  27
ATOM     27  N   UNL     1       8.511  -2.431  70.186  0.00  0.00    +0.000 N 
ATOM     28  C   UNL     1       8.185  -1.283  69.286  0.00  0.00    +0.000 C 
ATOM     29  C   UNL     1       9.128  -0.500  68.315  0.00  0.00    +0.000 C 
ATOM     30  O   UNL     1      10.438  -0.581  67.994  0.00  0.00    +0.000 OA
ATOM     31  C   UNL     1      10.732  -1.615  68.806  0.00  0.00    +0.000 C 
ATOM     32  C   UNL     1       9.957  -2.508  69.822  0.00  0.00    +0.000 C 
ENDBRANCH  26  27
ENDBRANCH  25  26
ENDBRANCH  23  24
ENDBRANCH   3  23
TORSDOF 6
ENDMDL
MODEL 4
REMARK VINA RESULT:      -4.2     12.350     15.262
REMARK  Name = Gefitinib.pdbqt.pdb
REMARK  6 active torsions:
REMARK  status: ('A' for Active; 'I' for Inactive)
REMARK    1  A    between atoms: C_3  and  O_11
REMARK    2  A    between atoms: C_6  and  O_21
REMARK    3  A    between atoms: O_11  and  C_12
REMARK    4  A    between atoms: C_13  and  C_14
REMARK    5  A    between atoms: C_14  and  N_15
REMARK    6  A    between atoms: N_23  and  C_25
REMARK                            x       y       z     vdW  Elec       q    Type
REMARK                         _______ _______ _______ _____ _____    ______ ____
ROOT
ATOM      1  N   UNL     1      15.978  10.246  68.135  0.00  0.00    +0.000 NA
ATOM      2  N   UNL     1      16.359   7.894  68.175  0.00  0.00    +0.000 NA
ATOM      3  C   UNL     1      13.019   9.902  71.038  0.00  0.00    +0.000 A 
ATOM      4  C   UNL     1      14.713   8.860  69.616  0.00  0.00    +0.000 A 
ATOM      5  C   UNL     1      13.704   8.772  70.592  0.00  0.00    +0.000 A 
ATOM      6  C   UNL     1      13.351  11.147  70.502  0.00  0.00    +0.000 A 
ATOM      7  C   UNL     1      15.040  10.103  69.071  0.00  0.00    +0.000 A 
ATOM      8  C   UNL     1      14.353  11.221  69.528  0.00  0.00    +0.000 A 
ATOM      9  C   UNL     1      15.426   7.756  69.130  0.00  0.00    +0.000 A 
ATOM     10  C   UNL     1      16.595   9.132  67.722  0.00  0.00    +0.000 A 
ATOM     11  N   UNL     1      15.121   6.464  69.631  0.00  0.00    +0.000 N 
ATOM     12  H   UNL     1      15.053   6.472  70.644  0.00  0.00    +0.000 HD
ENDROOT
BRANCH  11  13
ATOM     13  C   UNL     1      15.567   5.216  69.143  0.00  0.00    +0.000 A 
ATOM     14  C   UNL     1      15.173   4.049  69.808  0.00  0.00    +0.000 A 
ATOM     15  C   UNL     1      15.501   2.793  69.304  0.00  0.00    +0.000 A 
ATOM     16 CL   UNL     1      15.019   1.397  70.182  0.00  0.00    +0.000 Cl
ATOM     17  C   UNL     1      16.204   2.688  68.109  0.00  0.00    +0.000 A 
ATOM     18  F   UNL     1      16.529   1.487  67.608  0.00  0.00    +0.000 F 
ATOM     19  C   UNL     1      16.572   3.830  67.410  0.00  0.00    +0.000 A 
ATOM     20  C   UNL     1      16.237   5.082  67.921  0.00  0.00    +0.000 A 
ENDBRANCH  11  13
BRANCH   6  21
ATOM     21  O   UNL     1      12.650  12.235  70.969  0.00  0.00    +0.000 OA
ATOM     22  C   UNL     1      11.704  12.771  70.087  0.00  0.00    +0.000 C 
ENDBRANCH   6  21
BRANCH   3  23
ATOM     23  O   UNL     1      12.028   9.857  71.989  0.00  0.00    +0.000 OA
BRANCH  23  24
ATOM     24  C   UNL     1      12.169   8.890  72.893  0.00  0.00    +0.000 C 
ATOM     25  C   UNL     1      12.347   7.775  73.928  0.00  0.00    +0.000 C 
BRANCH  25  26
ATOM     26  C   UNL     1      12.560   6.657  74.956  0.00  0.00    +0.000 C 
BRANCH  26  27
ATOM     27  N   UNL     1      12.777   5.598  75.931  0.00  0.00    +0.000 N 
ATOM     28  C   UNL     1      11.432   5.230  76.468  0.00  0.00    +0.000 C 
ATOM     29  C   UNL     1      10.608   3.921  76.236  0.00  0.00    +0.000 C 
ATOM     30  O   UNL     1      10.809   2.785  75.532  0.00  0.00    +0.000 OA
ATOM     31  C   UNL     1      12.022   3.117  75.046  0.00  0.00    +0.000 C 
ATOM     32  C   UNL     1      12.985   4.338  75.156  0.00  0.00    +0.000 C 
ENDBRANCH  26  27
ENDBRANCH  25  26
ENDBRANCH  23  24
ENDBRANCH   3  23
TORSDOF 6
ENDMDL
MODEL 5
REMARK VINA RESULT:      -4.1     11.655     14.742
REMARK  Name = Gefitinib.pdbqt.pdb
REMARK  6 active torsions:
REMARK  status: ('A' for Active; 'I' for Inactive)
REMARK    1  A    between atoms: C_3  and  O_11
REMARK    2  A    between atoms: C_6  and  O_21
REMARK    3  A    between atoms: O_11  and  C_12
REMARK    4  A    between atoms: C_13  and  C_14
REMARK    5  A    between atoms: C_14  and  N_15
REMARK    6  A    between atoms: N_23  and  C_25
REMARK                            x       y       z     vdW  Elec       q    Type
REMARK                         _______ _______ _______ _____ _____    ______ ____
ROOT
ATOM      1  N   UNL     1      21.218   1.609  55.214  0.00  0.00    +0.000 NA
ATOM      2  N   UNL     1      20.142  -0.048  56.546  0.00  0.00    +0.000 NA
ATOM      3  C   UNL     1      17.940   1.808  52.660  0.00  0.00    +0.000 A 
ATOM      4  C   UNL     1      19.019   0.864  54.641  0.00  0.00    +0.000 A 
ATOM      5  C   UNL     1      17.928   0.947  53.758  0.00  0.00    +0.000 A 
ATOM      6  C   UNL     1      19.063   2.607  52.442  0.00  0.00    +0.000 A 
ATOM      7  C   UNL     1      20.150   1.655  54.418  0.00  0.00    +0.000 A 
ATOM      8  C   UNL     1      20.146   2.511  53.325  0.00  0.00    +0.000 A 
ATOM      9  C   UNL     1      19.060   0.013  55.753  0.00  0.00    +0.000 A 
ATOM     10  C   UNL     1      21.170   0.754  56.242  0.00  0.00    +0.000 A 
ATOM     11  N   UNL     1      17.950  -0.830  56.015  0.00  0.00    +0.000 N 
ATOM     12  H   UNL     1      17.077  -0.316  55.947  0.00  0.00    +0.000 HD
ENDROOT
BRANCH  11  13
ATOM     13  C   UNL     1      17.865  -1.890  56.945  0.00  0.00    +0.000 A 
ATOM     14  C   UNL     1      17.127  -1.703  58.120  0.00  0.00    +0.000 A 
ATOM     15  C   UNL     1      16.928  -2.751  59.015  0.00  0.00    +0.000 A 
ATOM     16 CL   UNL     1      16.041  -2.452  60.456  0.00  0.00    +0.000 Cl
ATOM     17  C   UNL     1      17.444  -4.010  58.732  0.00  0.00    +0.000 A 
ATOM     18  F   UNL     1      17.264  -5.032  59.582  0.00  0.00    +0.000 F 
ATOM     19  C   UNL     1      18.148  -4.232  57.555  0.00  0.00    +0.000 A 
ATOM     20  C   UNL     1      18.337  -3.177  56.665  0.00  0.00    +0.000 A 
ENDBRANCH  11  13
BRANCH   6  21
ATOM     21  O   UNL     1      19.034   3.440  51.348  0.00  0.00    +0.000 OA
ATOM     22  C   UNL     1      19.278   4.794  51.610  0.00  0.00    +0.000 C 
ENDBRANCH   6  21
BRANCH   3  23
ATOM     23  O   UNL     1      16.894   1.918  51.776  0.00  0.00    +0.000 OA
BRANCH  23  24
ATOM     24  C   UNL     1      15.843   1.152  52.060  0.00  0.00    +0.000 C 
ATOM     25  C   UNL     1      14.628   0.272  52.370  0.00  0.00    +0.000 C 
BRANCH  25  26
ATOM     26  C   UNL     1      13.403  -0.607  52.646  0.00  0.00    +0.000 C 
BRANCH  26  27
ATOM     27  N   UNL     1      12.232  -1.431  52.914  0.00  0.00    +0.000 N 
ATOM     28  C   UNL     1      12.737  -2.802  53.230  0.00  0.00    +0.000 C 
ATOM     29  C   UNL     1      12.740  -3.553  54.601  0.00  0.00    +0.000 C 
ATOM     30  O   UNL     1      12.334  -3.247  55.852  0.00  0.00    +0.000 OA
ATOM     31  C   UNL     1      11.879  -2.010  55.568  0.00  0.00    +0.000 C 
ATOM     32  C   UNL     1      11.788  -1.106  54.303  0.00  0.00    +0.000 C 
ENDBRANCH  26  27
ENDBRANCH  25  26
ENDBRANCH  23  24
ENDBRANCH   3  23
TORSDOF 6
ENDMDL
MODEL 6
REMARK VINA RESULT:      -4.1     12.348     15.992
REMARK  Name = Gefitinib.pdbqt.pdb
REMARK  6 active torsions:
REMARK  status: ('A' for Active; 'I' for Inactive)
REMARK    1  A    between atoms: C_3  and  O_11
REMARK    2  A    between atoms: C_6  and  O_21
REMARK    3  A    between atoms: O_11  and  C_12
REMARK    4  A    between atoms: C_13  and  C_14
REMARK    5  A    between atoms: C_14  and  N_15
REMARK    6  A    between atoms: N_23  and  C_25
REMARK                            x       y       z     vdW  Elec       q    Type
REMARK                         _______ _______ _______ _____ _____    ______ ____
ROOT
ATOM      1  N   UNL     1       0.232   6.946  64.900  0.00  0.00    +0.000 NA
ATOM      2  N   UNL     1       0.737   4.716  65.571  0.00  0.00    +0.000 NA
ATOM      3  C   UNL     1       4.025   7.401  63.253  0.00  0.00    +0.000 A 
ATOM      4  C   UNL     1       2.378   6.012  64.409  0.00  0.00    +0.000 A 
ATOM      5  C   UNL     1       3.655   6.195  63.850  0.00  0.00    +0.000 A 
ATOM      6  C   UNL     1       3.099   8.443  63.208  0.00  0.00    +0.000 A 
ATOM      7  C   UNL     1       1.452   7.058  64.375  0.00  0.00    +0.000 A 
ATOM      8  C   UNL     1       1.832   8.250  63.772  0.00  0.00    +0.000 A 
ATOM      9  C   UNL     1       1.959   4.826  65.026  0.00  0.00    +0.000 A 
ATOM     10  C   UNL     1      -0.071   5.779  65.481  0.00  0.00    +0.000 A 
ATOM     11  N   UNL     1       2.865   3.737  65.110  0.00  0.00    +0.000 N 
ATOM     12  H   UNL     1       3.326   3.575  64.220  0.00  0.00    +0.000 HD
ENDROOT
BRANCH  11  13
ATOM     13  C   UNL     1       2.722   2.545  65.854  0.00  0.00    +0.000 A 
ATOM     14  C   UNL     1       2.216   1.406  65.217  0.00  0.00    +0.000 A 
ATOM     15  C   UNL     1       2.155   0.182  65.879  0.00  0.00    +0.000 A 
ATOM     16 CL   UNL     1       1.492  -1.172  65.056  0.00  0.00    +0.000 Cl
ATOM     17  C   UNL     1       2.628   0.077  67.182  0.00  0.00    +0.000 A 
ATOM     18  F   UNL     1       2.578  -1.093  67.837  0.00  0.00    +0.000 F 
ATOM     19  C   UNL     1       3.171   1.182  67.823  0.00  0.00    +0.000 A 
ATOM     20  C   UNL     1       3.230   2.401  67.150  0.00  0.00    +0.000 A 
ENDBRANCH  11  13
BRANCH   6  21
ATOM     21  O   UNL     1       3.504   9.614  62.610  0.00  0.00    +0.000 OA
ATOM     22  C   UNL     1       3.680  10.704  63.470  0.00  0.00    +0.000 C 
ENDBRANCH   6  21
BRANCH   3  23
ATOM     23  O   UNL     1       5.262   7.618  62.696  0.00  0.00    +0.000 OA
BRANCH  23  24
ATOM     24  C   UNL     1       5.581   6.785  61.707  0.00  0.00    +0.000 C 
ATOM     25  C   UNL     1       5.938   5.814  60.577  0.00  0.00    +0.000 C 
BRANCH  25  26
ATOM     26  C   UNL     1       6.272   4.819  59.460  0.00  0.00    +0.000 C 
BRANCH  26  27
ATOM     27  N   UNL     1       6.602   3.881  58.396  0.00  0.00    +0.000 N 
ATOM     28  C   UNL     1       8.019   4.154  58.009  0.00  0.00    +0.000 C 
ATOM     29  C   UNL     1       9.289   3.275  58.254  0.00  0.00    +0.000 C 
ATOM     30  O   UNL     1       9.518   2.084  58.849  0.00  0.00    +0.000 OA
ATOM     31  C   UNL     1       8.240   1.838  59.199  0.00  0.00    +0.000 C 
ATOM     32  C   UNL     1       6.870   2.566  59.051  0.00  0.00    +0.000 C 
ENDBRANCH  26  27
ENDBRANCH  25  26
ENDBRANCH  23  24
ENDBRANCH   3  23
TORSDOF 6
ENDMDL
MODEL 7
REMARK VINA RESULT:      -4.1     18.600     21.790
REMARK  Name = Gefitinib.pdbqt.pdb
REMARK  6 active torsions:
REMARK  status: ('A' for Active; 'I' for Inactive)
REMARK    1  A    between atoms: C_3  and  O_11
REMARK    2  A    between atoms: C_6  and  O_21
REMARK    3  A    between atoms: O_11  and  C_12
REMARK    4  A    between atoms: C_13  and  C_14
REMARK    5  A    between atoms: C_14  and  N_15
REMARK    6  A    between atoms: N_23  and  C_25
REMARK                            x       y       z     vdW  Elec       q    Type
REMARK                         _______ _______ _______ _____ _____    ______ ____
ROOT
ATOM      1  N   UNL     1       5.995  -3.496  72.691  0.00  0.00    +0.000 NA
ATOM      2  N   UNL     1       7.393  -2.594  70.986  0.00  0.00    +0.000 NA
ATOM      3  C   UNL     1       7.710  -0.995  75.539  0.00  0.00    +0.000 A 
ATOM      4  C   UNL     1       7.561  -1.769  73.225  0.00  0.00    +0.000 A 
ATOM      5  C   UNL     1       8.127  -0.940  74.209  0.00  0.00    +0.000 A 
ATOM      6  C   UNL     1       6.703  -1.893  75.893  0.00  0.00    +0.000 A 
ATOM      7  C   UNL     1       6.560  -2.677  73.579  0.00  0.00    +0.000 A 
ATOM      8  C   UNL     1       6.150  -2.716  74.905  0.00  0.00    +0.000 A 
ATOM      9  C   UNL     1       7.948  -1.758  71.878  0.00  0.00    +0.000 A 
ATOM     10  C   UNL     1       6.441  -3.423  71.431  0.00  0.00    +0.000 A 
ATOM     11  N   UNL     1       8.977  -0.873  71.465  0.00  0.00    +0.000 N 
ATOM     12  H   UNL     1       8.828   0.060  71.838  0.00  0.00    +0.000 HD
ENDROOT
BRANCH  11  13
ATOM     13  C   UNL     1       9.648  -0.842  70.223  0.00  0.00    +0.000 A 
ATOM     14  C   UNL     1      10.826  -1.583  70.072  0.00  0.00    +0.000 A 
ATOM     15  C   UNL     1      11.466  -1.668  68.837  0.00  0.00    +0.000 A 
ATOM     16 CL   UNL     1      12.926  -2.565  68.721  0.00  0.00    +0.000 Cl
ATOM     17  C   UNL     1      10.917  -1.033  67.729  0.00  0.00    +0.000 A 
ATOM     18  F   UNL     1      11.518  -1.103  66.532  0.00  0.00    +0.000 F 
ATOM     19  C   UNL     1       9.729  -0.324  67.843  0.00  0.00    +0.000 A 
ATOM     20  C   UNL     1       9.095  -0.249  69.082  0.00  0.00    +0.000 A 
ENDBRANCH  11  13
BRANCH   6  21
ATOM     21  O   UNL     1       6.322  -1.915  77.214  0.00  0.00    +0.000 OA
ATOM     22  C   UNL     1       5.590  -3.040  77.616  0.00  0.00    +0.000 C 
ENDBRANCH   6  21
BRANCH   3  23
ATOM     23  O   UNL     1       8.239  -0.202  76.529  0.00  0.00    +0.000 OA
BRANCH  23  24
ATOM     24  C   UNL     1       7.641   0.979  76.674  0.00  0.00    +0.000 C 
ATOM     25  C   UNL     1       6.964   2.345  76.830  0.00  0.00    +0.000 C 
BRANCH  25  26
ATOM     26  C   UNL     1       6.308   3.724  76.960  0.00  0.00    +0.000 C 
BRANCH  26  27
ATOM     27  N   UNL     1       5.696   5.040  77.079  0.00  0.00    +0.000 N 
ATOM     28  C   UNL     1       5.288   5.448  75.700  0.00  0.00    +0.000 C 
ATOM     29  C   UNL     1       3.849   5.580  75.103  0.00  0.00    +0.000 C 
ATOM     30  O   UNL     1       2.600   5.382  75.581  0.00  0.00    +0.000 OA
ATOM     31  C   UNL     1       2.969   5.013  76.825  0.00  0.00    +0.000 C 
ATOM     32  C   UNL     1       4.311   4.825  77.594  0.00  0.00    +0.000 C 
ENDBRANCH  26  27
ENDBRANCH  25  26
ENDBRANCH  23  24
ENDBRANCH   3  23
TORSDOF 6
ENDMDL
MODEL 8
REMARK VINA RESULT:      -4.0     18.560     21.888
REMARK  Name = Gefitinib.pdbqt.pdb
REMARK  6 active torsions:
REMARK  status: ('A' for Active; 'I' for Inactive)
REMARK    1  A    between atoms: C_3  and  O_11
REMARK    2  A    between atoms: C_6  and  O_21
REMARK    3  A    between atoms: O_11  and  C_12
REMARK    4  A    between atoms: C_13  and  C_14
REMARK    5  A    between atoms: C_14  and  N_15
REMARK    6  A    between atoms: N_23  and  C_25
REMARK                            x       y       z     vdW  Elec       q    Type
REMARK                         _______ _______ _______ _____ _____    ______ ____
ROOT
ATOM      1  N   UNL     1       0.653   8.365  76.062  0.00  0.00    +0.000 NA
ATOM      2  N   UNL     1       2.478   7.010  76.777  0.00  0.00    +0.000 NA
ATOM      3  C   UNL     1       2.520   9.108  72.420  0.00  0.00    +0.000 A 
ATOM      4  C   UNL     1       2.520   8.019  74.609  0.00  0.00    +0.000 A 
ATOM      5  C   UNL     1       3.131   8.292  73.373  0.00  0.00    +0.000 A 
ATOM      6  C   UNL     1       1.270   9.659  72.706  0.00  0.00    +0.000 A 
ATOM      7  C   UNL     1       1.274   8.578  74.902  0.00  0.00    +0.000 A 
ATOM      8  C   UNL     1       0.675   9.384  73.943  0.00  0.00    +0.000 A 
ATOM      9  C   UNL     1       3.093   7.213  75.601  0.00  0.00    +0.000 A 
ATOM     10  C   UNL     1       1.286   7.592  76.954  0.00  0.00    +0.000 A 
ATOM     11  N   UNL     1       4.369   6.636  75.368  0.00  0.00    +0.000 N 
ATOM     12  H   UNL     1       4.416   6.216  74.445  0.00  0.00    +0.000 HD
ENDROOT
BRANCH  11  13
ATOM     13  C   UNL     1       5.202   5.971  76.293  0.00  0.00    +0.000 A 
ATOM     14  C   UNL     1       5.450   4.604  76.120  0.00  0.00    +0.000 A 
ATOM     15  C   UNL     1       6.347   3.929  76.944  0.00  0.00    +0.000 A 
ATOM     16 CL   UNL     1       6.585   2.244  76.705  0.00  0.00    +0.000 Cl
ATOM     17  C   UNL     1       7.031   4.622  77.937  0.00  0.00    +0.000 A 
ATOM     18  F   UNL     1       7.899   3.989  78.740  0.00  0.00    +0.000 F 
ATOM     19  C   UNL     1       6.832   5.986  78.104  0.00  0.00    +0.000 A 
ATOM     20  C   UNL     1       5.935   6.652  77.272  0.00  0.00    +0.000 A 
ENDBRANCH  11  13
BRANCH   6  21
ATOM     21  O   UNL     1       0.704  10.458  71.740  0.00  0.00    +0.000 OA
ATOM     22  C   UNL     1       0.682  11.829  72.023  0.00  0.00    +0.000 C 
ENDBRANCH   6  21
BRANCH   3  23
ATOM     23  O   UNL     1       3.084   9.398  71.201  0.00  0.00    +0.000 OA
BRANCH  23  24
ATOM     24  C   UNL     1       2.817   8.515  70.241  0.00  0.00    +0.000 C 
ATOM     25  C   UNL     1       2.522   7.508  69.125  0.00  0.00    +0.000 C 
BRANCH  25  26
ATOM     26  C   UNL     1       2.252   6.515  67.989  0.00  0.00    +0.000 C 
BRANCH  26  27
ATOM     27  N   UNL     1       1.993   5.560  66.920  0.00  0.00    +0.000 N 
ATOM     28  C   UNL     1       1.975   4.206  67.551  0.00  0.00    +0.000 C 
ATOM     29  C   UNL     1       0.761   3.248  67.781  0.00  0.00    +0.000 C 
ATOM     30  O   UNL     1      -0.563   3.314  67.520  0.00  0.00    +0.000 OA
ATOM     31  C   UNL     1      -0.548   4.536  66.952  0.00  0.00    +0.000 C 
ATOM     32  C   UNL     1       0.527   5.620  66.638  0.00  0.00    +0.000 C 
ENDBRANCH  26  27
ENDBRANCH  25  26
ENDBRANCH  23  24
ENDBRANCH   3  23
TORSDOF 6
ENDMDL
MODEL 9
REMARK VINA RESULT:      -4.0     10.857     14.549
REMARK  Name = Gefitinib.pdbqt.pdb
REMARK  6 active torsions:
REMARK  status: ('A' for Active; 'I' for Inactive)
REMARK    1  A    between atoms: C_3  and  O_11
REMARK    2  A    between atoms: C_6  and  O_21
REMARK    3  A    between atoms: O_11  and  C_12
REMARK    4  A    between atoms: C_13  and  C_14
REMARK    5  A    between atoms: C_14  and  N_15
REMARK    6  A    between atoms: N_23  and  C_25
REMARK                            x       y       z     vdW  Elec       q    Type
REMARK                         _______ _______ _______ _____ _____    ______ ____
ROOT
ATOM      1  N   UNL     1       1.253  10.710  63.090  0.00  0.00    +0.000 NA
ATOM      2  N   UNL     1       1.031   8.647  64.261  0.00  0.00    +0.000 NA
ATOM      3  C   UNL     1       5.272   9.947  62.334  0.00  0.00    +0.000 A 
ATOM      4  C   UNL     1       3.137   9.253  63.303  0.00  0.00    +0.000 A 
ATOM      5  C   UNL     1       4.499   9.023  63.039  0.00  0.00    +0.000 A 
ATOM      6  C   UNL     1       4.671  11.121  61.880  0.00  0.00    +0.000 A 
ATOM      7  C   UNL     1       2.536  10.433  62.859  0.00  0.00    +0.000 A 
ATOM      8  C   UNL     1       3.316  11.340  62.153  0.00  0.00    +0.000 A 
ATOM      9  C   UNL     1       2.319   8.362  64.012  0.00  0.00    +0.000 A 
ATOM     10  C   UNL     1       0.555   9.805  63.788  0.00  0.00    +0.000 A 
ATOM     11  N   UNL     1       2.881   7.157  64.507  0.00  0.00    +0.000 N 
ATOM     12  H   UNL     1       3.441   6.696  63.797  0.00  0.00    +0.000 HD
ENDROOT
BRANCH  11  13
ATOM     13  C   UNL     1       2.299   6.233  65.403  0.00  0.00    +0.000 A 
ATOM     14  C   UNL     1       1.981   4.950  64.940  0.00  0.00    +0.000 A 
ATOM     15  C   UNL     1       1.504   3.973  65.810  0.00  0.00    +0.000 A 
ATOM     16 CL   UNL     1       1.100   2.428  65.178  0.00  0.00    +0.000 Cl
ATOM     17  C   UNL     1       1.366   4.260  67.163  0.00  0.00    +0.000 A 
ATOM     18  F   UNL     1       0.907   3.332  68.017  0.00  0.00    +0.000 F 
ATOM     19  C   UNL     1       1.710   5.512  67.654  0.00  0.00    +0.000 A 
ATOM     20  C   UNL     1       2.190   6.481  66.776  0.00  0.00    +0.000 A 
ENDBRANCH  11  13
BRANCH   6  21
ATOM     21  O   UNL     1       5.469  12.004  61.190  0.00  0.00    +0.000 OA
ATOM     22  C   UNL     1       5.191  12.134  59.824  0.00  0.00    +0.000 C 
ENDBRANCH   6  21
BRANCH   3  23
ATOM     23  O   UNL     1       6.604   9.759  62.056  0.00  0.00    +0.000 OA
BRANCH  23  24
ATOM     24  C   UNL     1       6.851   8.881  61.086  0.00  0.00    +0.000 C 
ATOM     25  C   UNL     1       7.122   7.862  59.975  0.00  0.00    +0.000 C 
BRANCH  25  26
ATOM     26  C   UNL     1       7.363   6.825  58.872  0.00  0.00    +0.000 C 
BRANCH  26  27
ATOM     27  N   UNL     1       7.584   5.848  57.815  0.00  0.00    +0.000 N 
ATOM     28  C   UNL     1       9.033   5.483  57.866  0.00  0.00    +0.000 C 
ATOM     29  C   UNL     1       9.689   4.137  58.318  0.00  0.00    +0.000 C 
ATOM     30  O   UNL     1       9.217   2.959  58.779  0.00  0.00    +0.000 OA
ATOM     31  C   UNL     1       7.910   3.288  58.734  0.00  0.00    +0.000 C 
ATOM     32  C   UNL     1       7.076   4.540  58.327  0.00  0.00    +0.000 C 
ENDBRANCH  26  27
ENDBRANCH  25  26
ENDBRANCH  23  24
ENDBRANCH   3  23
TORSDOF 6
ENDMDL
