MODEL 1
REMARK VINA RESULT:      -4.0      0.000      0.000
REMARK  Name = Genistein.pdbqt.pdb
REMARK  4 active torsions:
REMARK  status: ('A' for Active; 'I' for Inactive)
REMARK    1  A    between atoms: C_4  and  C_12
REMARK    2  A    between atoms: C_7  and  O_20
REMARK    3  A    between atoms: C_11  and  O_22
REMARK    4  A    between atoms: C_17  and  O_18
REMARK                            x       y       z     vdW  Elec       q    Type
REMARK                         _______ _______ _______ _____ _____    ______ ____
ROOT
ATOM      1  O   UNL     1      21.066   9.136  58.528  0.00  0.00    +0.000 OA
ATOM      2  O   UNL     1      17.623   9.385  56.165  0.00  0.00    +0.000 OA
ATOM      3  C   UNL     1      19.930   8.836  56.342  0.00  0.00    +0.000 A 
ATOM      4  C   UNL     1      18.626   9.716  58.337  0.00  0.00    +0.000 A 
ATOM      5  C   UNL     1      21.078   8.768  57.185  0.00  0.00    +0.000 A 
ATOM      6  C   UNL     1      18.610   9.327  56.889  0.00  0.00    +0.000 A 
ATOM      7  C   UNL     1      20.038   8.443  55.005  0.00  0.00    +0.000 A 
ATOM      8  C   UNL     1      19.829   9.526  58.779  0.00  0.00    +0.000 A 
ATOM      9  C   UNL     1      22.295   8.316  56.680  0.00  0.00    +0.000 A 
ATOM     10  C   UNL     1      21.260   7.992  54.507  0.00  0.00    +0.000 A 
ATOM     11  C   UNL     1      22.371   7.931  55.345  0.00  0.00    +0.000 A 
ENDROOT
BRANCH   4  12
ATOM     12  C   UNL     1      17.501  10.222  59.121  0.00  0.00    +0.000 A 
ATOM     13  C   UNL     1      17.016   9.518  60.226  0.00  0.00    +0.000 A 
ATOM     14  C   UNL     1      16.883  11.431  58.780  0.00  0.00    +0.000 A 
ATOM     15  C   UNL     1      15.945  10.000  60.975  0.00  0.00    +0.000 A 
ATOM     16  C   UNL     1      15.809  11.925  59.520  0.00  0.00    +0.000 A 
ATOM     17  C   UNL     1      15.349  11.203  60.613  0.00  0.00    +0.000 A 
BRANCH  17  18
ATOM     18  O   UNL     1      14.298  11.703  61.325  0.00  0.00    +0.000 OA
ATOM     19  H   UNL     1      14.313  12.673  61.249  0.00  0.00    +0.000 HD
ENDBRANCH  17  18
ENDBRANCH   4  12
BRANCH   7  20
ATOM     20  O   UNL     1      18.992   8.474  54.124  0.00  0.00    +0.000 OA
ATOM     21  H   UNL     1      18.161   8.278  54.614  0.00  0.00    +0.000 HD
ENDBRANCH   7  20
BRANCH  11  22
ATOM     22  O   UNL     1      23.572   7.491  54.869  0.00  0.00    +0.000 OA
ATOM     23  H   UNL     1      23.510   7.429  53.899  0.00  0.00    +0.000 HD
ENDBRANCH  11  22
TORSDOF 4
ENDMDL
MODEL 2
REMARK VINA RESULT:      -4.0     18.895     20.116
REMARK  Name = Genistein.pdbqt.pdb
REMARK  4 active torsions:
REMARK  status: ('A' for Active; 'I' for Inactive)
REMARK    1  A    between atoms: C_4  and  C_12
REMARK    2  A    between atoms: C_7  and  O_20
REMARK    3  A    between atoms: C_11  and  O_22
REMARK    4  A    between atoms: C_17  and  O_18
REMARK                            x       y       z     vdW  Elec       q    Type
REMARK                         _______ _______ _______ _____ _____    ______ ____
ROOT
ATOM      1  O   UNL     1       1.229   9.217  66.108  0.00  0.00    +0.000 OA
ATOM      2  O   UNL     1       2.508   5.794  68.145  0.00  0.00    +0.000 OA
ATOM      3  C   UNL     1       1.868   6.819  66.097  0.00  0.00    +0.000 A 
ATOM      4  C   UNL     1       1.906   8.130  68.273  0.00  0.00    +0.000 A 
ATOM      5  C   UNL     1       1.433   8.010  65.444  0.00  0.00    +0.000 A 
ATOM      6  C   UNL     1       2.134   6.817  67.584  0.00  0.00    +0.000 A 
ATOM      7  C   UNL     1       2.046   5.654  65.346  0.00  0.00    +0.000 A 
ATOM      8  C   UNL     1       1.518   8.980  67.376  0.00  0.00    +0.000 A 
ATOM      9  C   UNL     1       1.187   8.011  64.073  0.00  0.00    +0.000 A 
ATOM     10  C   UNL     1       1.798   5.662  63.975  0.00  0.00    +0.000 A 
ATOM     11  C   UNL     1       1.374   6.835  63.353  0.00  0.00    +0.000 A 
ENDROOT
BRANCH   4  12
ATOM     12  C   UNL     1       2.083   8.415  69.695  0.00  0.00    +0.000 A 
ATOM     13  C   UNL     1       3.251   8.045  70.367  0.00  0.00    +0.000 A 
ATOM     14  C   UNL     1       1.081   9.071  70.419  0.00  0.00    +0.000 A 
ATOM     15  C   UNL     1       3.421   8.317  71.722  0.00  0.00    +0.000 A 
ATOM     16  C   UNL     1       1.237   9.350  71.776  0.00  0.00    +0.000 A 
ATOM     17  C   UNL     1       2.409   8.969  72.417  0.00  0.00    +0.000 A 
BRANCH  17  18
ATOM     18  O   UNL     1       2.543   9.251  73.745  0.00  0.00    +0.000 OA
ATOM     19  H   UNL     1       2.959   8.484  74.178  0.00  0.00    +0.000 HD
ENDBRANCH  17  18
ENDBRANCH   4  12
BRANCH   7  20
ATOM     20  O   UNL     1       2.460   4.466  65.886  0.00  0.00    +0.000 OA
ATOM     21  H   UNL     1       2.233   4.459  66.844  0.00  0.00    +0.000 HD
ENDBRANCH   7  20
BRANCH  11  22
ATOM     22  O   UNL     1       1.128   6.856  62.011  0.00  0.00    +0.000 OA
ATOM     23  H   UNL     1       0.938   5.946  61.722  0.00  0.00    +0.000 HD
ENDBRANCH  11  22
TORSDOF 4
ENDMDL
MODEL 3
REMARK VINA RESULT:      -3.9      2.492      2.997
REMARK  Name = Genistein.pdbqt.pdb
REMARK  4 active torsions:
REMARK  status: ('A' for Active; 'I' for Inactive)
REMARK    1  A    between atoms: C_4  and  C_12
REMARK    2  A    between atoms: C_7  and  O_20
REMARK    3  A    between atoms: C_11  and  O_22
REMARK    4  A    between atoms: C_17  and  O_18
REMARK                            x       y       z     vdW  Elec       q    Type
REMARK                         _______ _______ _______ _____ _____    ______ ____
ROOT
ATOM      1  O   UNL     1      21.418   8.699  59.035  0.00  0.00    +0.000 OA
ATOM      2  O   UNL     1      17.390   9.830  59.076  0.00  0.00    +0.000 OA
ATOM      3  C   UNL     1      19.301   9.167  57.826  0.00  0.00    +0.000 A 
ATOM      4  C   UNL     1      19.394   9.400  60.354  0.00  0.00    +0.000 A 
ATOM      5  C   UNL     1      20.675   8.786  57.859  0.00  0.00    +0.000 A 
ATOM      6  C   UNL     1      18.571   9.502  59.105  0.00  0.00    +0.000 A 
ATOM      7  C   UNL     1      18.638   9.226  56.597  0.00  0.00    +0.000 A 
ATOM      8  C   UNL     1      20.586   9.032  60.007  0.00  0.00    +0.000 A 
ATOM      9  C   UNL     1      21.349   8.478  56.680  0.00  0.00    +0.000 A 
ATOM     10  C   UNL     1      19.319   8.916  55.421  0.00  0.00    +0.000 A 
ATOM     11  C   UNL     1      20.661   8.546  55.473  0.00  0.00    +0.000 A 
ENDROOT
BRANCH   4  12
ATOM     12  C   UNL     1      18.949   9.665  61.721  0.00  0.00    +0.000 A 
ATOM     13  C   UNL     1      19.137   8.724  62.737  0.00  0.00    +0.000 A 
ATOM     14  C   UNL     1      18.324  10.875  62.043  0.00  0.00    +0.000 A 
ATOM     15  C   UNL     1      18.714   8.976  64.040  0.00  0.00    +0.000 A 
ATOM     16  C   UNL     1      17.895  11.140  63.343  0.00  0.00    +0.000 A 
ATOM     17  C   UNL     1      18.095  10.186  64.332  0.00  0.00    +0.000 A 
BRANCH  17  18
ATOM     18  O   UNL     1      17.669  10.464  65.598  0.00  0.00    +0.000 OA
ATOM     19  H   UNL     1      18.042  11.324  65.863  0.00  0.00    +0.000 HD
ENDBRANCH  17  18
ENDBRANCH   4  12
BRANCH   7  20
ATOM     20  O   UNL     1      17.323   9.580  56.467  0.00  0.00    +0.000 OA
ATOM     21  H   UNL     1      16.987   9.874  57.345  0.00  0.00    +0.000 HD
ENDBRANCH   7  20
BRANCH  11  22
ATOM     22  O   UNL     1      21.338   8.239  54.328  0.00  0.00    +0.000 OA
ATOM     23  H   UNL     1      20.687   7.997  53.645  0.00  0.00    +0.000 HD
ENDBRANCH  11  22
TORSDOF 4
ENDMDL
MODEL 4
REMARK VINA RESULT:      -3.9     11.243     12.620
REMARK  Name = Genistein.pdbqt.pdb
REMARK  4 active torsions:
REMARK  status: ('A' for Active; 'I' for Inactive)
REMARK    1  A    between atoms: C_4  and  C_12
REMARK    2  A    between atoms: C_7  and  O_20
REMARK    3  A    between atoms: C_11  and  O_22
REMARK    4  A    between atoms: C_17  and  O_18
REMARK                            x       y       z     vdW  Elec       q    Type
REMARK                         _______ _______ _______ _____ _____    ______ ____
ROOT
ATOM      1  O   UNL     1       5.727   4.195  58.320  0.00  0.00    +0.000 OA
ATOM      2  O   UNL     1       9.527   5.938  58.501  0.00  0.00    +0.000 OA
ATOM      3  C   UNL     1       8.199   3.979  58.265  0.00  0.00    +0.000 A 
ATOM      4  C   UNL     1       7.134   6.266  58.570  0.00  0.00    +0.000 A 
ATOM      5  C   UNL     1       6.885   3.428  58.209  0.00  0.00    +0.000 A 
ATOM      6  C   UNL     1       8.397   5.465  58.453  0.00  0.00    +0.000 A 
ATOM      7  C   UNL     1       9.303   3.130  58.143  0.00  0.00    +0.000 A 
ATOM      8  C   UNL     1       6.139   5.442  58.476  0.00  0.00    +0.000 A 
ATOM      9  C   UNL     1       6.703   2.059  58.036  0.00  0.00    +0.000 A 
ATOM     10  C   UNL     1       9.113   1.760  57.970  0.00  0.00    +0.000 A 
ATOM     11  C   UNL     1       7.821   1.239  57.917  0.00  0.00    +0.000 A 
ENDROOT
BRANCH   4  12
ATOM     12  C   UNL     1       7.027   7.711  58.758  0.00  0.00    +0.000 A 
ATOM     13  C   UNL     1       6.345   8.511  57.836  0.00  0.00    +0.000 A 
ATOM     14  C   UNL     1       7.608   8.329  59.871  0.00  0.00    +0.000 A 
ATOM     15  C   UNL     1       6.242   9.888  58.015  0.00  0.00    +0.000 A 
ATOM     16  C   UNL     1       7.513   9.707  60.062  0.00  0.00    +0.000 A 
ATOM     17  C   UNL     1       6.829  10.476  59.130  0.00  0.00    +0.000 A 
BRANCH  17  18
ATOM     18  O   UNL     1       6.746  11.822  59.334  0.00  0.00    +0.000 OA
ATOM     19  H   UNL     1       6.987  12.271  58.505  0.00  0.00    +0.000 HD
ENDBRANCH  17  18
ENDBRANCH   4  12
BRANCH   7  20
ATOM     20  O   UNL     1      10.599   3.568  58.184  0.00  0.00    +0.000 OA
ATOM     21  H   UNL     1      10.963   3.392  59.082  0.00  0.00    +0.000 HD
ENDBRANCH   7  20
BRANCH  11  22
ATOM     22  O   UNL     1       7.623  -0.100  57.747  0.00  0.00    +0.000 OA
ATOM     23  H   UNL     1       7.610  -0.520  58.626  0.00  0.00    +0.000 HD
ENDBRANCH  11  22
TORSDOF 4
ENDMDL
MODEL 5
REMARK VINA RESULT:      -3.8     12.240     13.017
REMARK  Name = Genistein.pdbqt.pdb
REMARK  4 active torsions:
REMARK  status: ('A' for Active; 'I' for Inactive)
REMARK    1  A    between atoms: C_4  and  C_12
REMARK    2  A    between atoms: C_7  and  O_20
REMARK    3  A    between atoms: C_11  and  O_22
REMARK    4  A    between atoms: C_17  and  O_18
REMARK                            x       y       z     vdW  Elec       q    Type
REMARK                         _______ _______ _______ _____ _____    ______ ____
ROOT
ATOM      1  O   UNL     1       6.789   3.708  57.083  0.00  0.00    +0.000 OA
ATOM      2  O   UNL     1       6.693   7.840  56.430  0.00  0.00    +0.000 OA
ATOM      3  C   UNL     1       6.778   5.642  55.526  0.00  0.00    +0.000 A 
ATOM      4  C   UNL     1       6.699   6.035  58.035  0.00  0.00    +0.000 A 
ATOM      5  C   UNL     1       6.810   4.242  55.796  0.00  0.00    +0.000 A 
ATOM      6  C   UNL     1       6.720   6.637  56.662  0.00  0.00    +0.000 A 
ATOM      7  C   UNL     1       6.801   6.084  54.200  0.00  0.00    +0.000 A 
ATOM      8  C   UNL     1       6.739   4.747  57.898  0.00  0.00    +0.000 A 
ATOM      9  C   UNL     1       6.864   3.325  54.749  0.00  0.00    +0.000 A 
ATOM     10  C   UNL     1       6.856   5.160  53.158  0.00  0.00    +0.000 A 
ATOM     11  C   UNL     1       6.886   3.796  53.440  0.00  0.00    +0.000 A 
ENDROOT
BRANCH   4  12
ATOM     12  C   UNL     1       6.645   6.754  59.306  0.00  0.00    +0.000 A 
ATOM     13  C   UNL     1       7.515   7.815  59.573  0.00  0.00    +0.000 A 
ATOM     14  C   UNL     1       5.715   6.394  60.288  0.00  0.00    +0.000 A 
ATOM     15  C   UNL     1       7.464   8.501  60.784  0.00  0.00    +0.000 A 
ATOM     16  C   UNL     1       5.654   7.072  61.505  0.00  0.00    +0.000 A 
ATOM     17  C   UNL     1       6.531   8.122  61.742  0.00  0.00    +0.000 A 
BRANCH  17  18
ATOM     18  O   UNL     1       6.455   8.774  62.939  0.00  0.00    +0.000 OA
ATOM     19  H   UNL     1       6.219   9.703  62.765  0.00  0.00    +0.000 HD
ENDBRANCH  17  18
ENDBRANCH   4  12
BRANCH   7  20
ATOM     20  O   UNL     1       6.774   7.406  53.847  0.00  0.00    +0.000 OA
ATOM     21  H   UNL     1       5.923   7.592  53.387  0.00  0.00    +0.000 HD
ENDBRANCH   7  20
BRANCH  11  22
ATOM     22  O   UNL     1       6.939   2.882  52.427  0.00  0.00    +0.000 OA
ATOM     23  H   UNL     1       7.282   2.046  52.790  0.00  0.00    +0.000 HD
ENDBRANCH  11  22
TORSDOF 4
ENDMDL
MODEL 6
REMARK VINA RESULT:      -3.7     22.865     23.523
REMARK  Name = Genistein.pdbqt.pdb
REMARK  4 active torsions:
REMARK  status: ('A' for Active; 'I' for Inactive)
REMARK    1  A    between atoms: C_4  and  C_12
REMARK    2  A    between atoms: C_7  and  O_20
REMARK    3  A    between atoms: C_11  and  O_22
REMARK    4  A    between atoms: C_17  and  O_18
REMARK                            x       y       z     vdW  Elec       q    Type
REMARK                         _______ _______ _______ _____ _____    ______ ____
ROOT
ATOM      1  O   UNL     1       6.222   8.274  76.604  0.00  0.00    +0.000 OA
ATOM      2  O   UNL     1       3.602   5.309  75.242  0.00  0.00    +0.000 OA
ATOM      3  C   UNL     1       5.649   5.876  76.313  0.00  0.00    +0.000 A 
ATOM      4  C   UNL     1       4.057   7.670  75.473  0.00  0.00    +0.000 A 
ATOM      5  C   UNL     1       6.511   6.920  76.761  0.00  0.00    +0.000 A 
ATOM      6  C   UNL     1       4.343   6.206  75.628  0.00  0.00    +0.000 A 
ATOM      7  C   UNL     1       6.024   4.545  76.515  0.00  0.00    +0.000 A 
ATOM      8  C   UNL     1       5.052   8.319  75.991  0.00  0.00    +0.000 A 
ATOM      9  C   UNL     1       7.715   6.616  77.392  0.00  0.00    +0.000 A 
ATOM     10  C   UNL     1       7.231   4.248  77.147  0.00  0.00    +0.000 A 
ATOM     11  C   UNL     1       8.061   5.281  77.578  0.00  0.00    +0.000 A 
ENDROOT
BRANCH   4  12
ATOM     12  C   UNL     1       2.879   8.272  74.852  0.00  0.00    +0.000 A 
ATOM     13  C   UNL     1       2.826   8.503  73.475  0.00  0.00    +0.000 A 
ATOM     14  C   UNL     1       1.771   8.630  75.629  0.00  0.00    +0.000 A 
ATOM     15  C   UNL     1       1.703   9.076  72.883  0.00  0.00    +0.000 A 
ATOM     16  C   UNL     1       0.641   9.205  75.049  0.00  0.00    +0.000 A 
ATOM     17  C   UNL     1       0.617   9.423  73.678  0.00  0.00    +0.000 A 
BRANCH  17  18
ATOM     18  O   UNL     1      -0.498   9.986  73.129  0.00  0.00    +0.000 OA
ATOM     19  H   UNL     1      -0.501  10.934  73.350  0.00  0.00    +0.000 HD
ENDBRANCH  17  18
ENDBRANCH   4  12
BRANCH   7  20
ATOM     20  O   UNL     1       5.262   3.479  76.119  0.00  0.00    +0.000 OA
ATOM     21  H   UNL     1       4.455   3.818  75.669  0.00  0.00    +0.000 HD
ENDBRANCH   7  20
BRANCH  11  22
ATOM     22  O   UNL     1       9.244   5.003  78.199  0.00  0.00    +0.000 OA
ATOM     23  H   UNL     1       9.200   4.093  78.543  0.00  0.00    +0.000 HD
ENDBRANCH  11  22
TORSDOF 4
ENDMDL
MODEL 7
REMARK VINA RESULT:      -3.7     19.869     23.219
REMARK  Name = Genistein.pdbqt.pdb
REMARK  4 active torsions:
REMARK  status: ('A' for Active; 'I' for Inactive)
REMARK    1  A    between atoms: C_4  and  C_12
REMARK    2  A    between atoms: C_7  and  O_20
REMARK    3  A    between atoms: C_11  and  O_22
REMARK    4  A    between atoms: C_17  and  O_18
REMARK                            x       y       z     vdW  Elec       q    Type
REMARK                         _______ _______ _______ _____ _____    ______ ____
ROOT
ATOM      1  O   UNL     1       0.998   9.053  74.798  0.00  0.00    +0.000 OA
ATOM      2  O   UNL     1       4.124   7.516  72.481  0.00  0.00    +0.000 OA
ATOM      3  C   UNL     1       2.762   7.347  74.423  0.00  0.00    +0.000 A 
ATOM      4  C   UNL     1       2.440   9.228  72.745  0.00  0.00    +0.000 A 
ATOM      5  C   UNL     1       1.691   7.906  75.181  0.00  0.00    +0.000 A 
ATOM      6  C   UNL     1       3.203   7.996  73.132  0.00  0.00    +0.000 A 
ATOM      7  C   UNL     1       3.398   6.193  74.887  0.00  0.00    +0.000 A 
ATOM      8  C   UNL     1       1.548   9.439  73.660  0.00  0.00    +0.000 A 
ATOM      9  C   UNL     1       1.285   7.308  76.371  0.00  0.00    +0.000 A 
ATOM     10  C   UNL     1       2.986   5.600  76.079  0.00  0.00    +0.000 A 
ATOM     11  C   UNL     1       1.937   6.160  76.806  0.00  0.00    +0.000 A 
ENDROOT
BRANCH   4  12
ATOM     12  C   UNL     1       2.651  10.052  71.557  0.00  0.00    +0.000 A 
ATOM     13  C   UNL     1       3.755  10.903  71.455  0.00  0.00    +0.000 A 
ATOM     14  C   UNL     1       1.748  10.005  70.488  0.00  0.00    +0.000 A 
ATOM     15  C   UNL     1       3.958  11.689  70.323  0.00  0.00    +0.000 A 
ATOM     16  C   UNL     1       1.939  10.787  69.349  0.00  0.00    +0.000 A 
ATOM     17  C   UNL     1       3.044  11.623  69.277  0.00  0.00    +0.000 A 
BRANCH  17  18
ATOM     18  O   UNL     1       3.214  12.379  68.154  0.00  0.00    +0.000 OA
ATOM     19  H   UNL     1       2.337  12.677  67.852  0.00  0.00    +0.000 HD
ENDBRANCH  17  18
ENDBRANCH   4  12
BRANCH   7  20
ATOM     20  O   UNL     1       4.433   5.586  74.227  0.00  0.00    +0.000 OA
ATOM     21  H   UNL     1       4.466   5.932  73.306  0.00  0.00    +0.000 HD
ENDBRANCH   7  20
BRANCH  11  22
ATOM     22  O   UNL     1       1.524   5.588  77.975  0.00  0.00    +0.000 OA
ATOM     23  H   UNL     1       2.314   5.369  78.502  0.00  0.00    +0.000 HD
ENDBRANCH  11  22
TORSDOF 4
ENDMDL
MODEL 8
REMARK VINA RESULT:      -3.6      2.822      4.794
REMARK  Name = Genistein.pdbqt.pdb
REMARK  4 active torsions:
REMARK  status: ('A' for Active; 'I' for Inactive)
REMARK    1  A    between atoms: C_4  and  C_12
REMARK    2  A    between atoms: C_7  and  O_20
REMARK    3  A    between atoms: C_11  and  O_22
REMARK    4  A    between atoms: C_17  and  O_18
REMARK                            x       y       z     vdW  Elec       q    Type
REMARK                         _______ _______ _______ _____ _____    ______ ____
ROOT
ATOM      1  O   UNL     1      16.630  12.049  56.935  0.00  0.00    +0.000 OA
ATOM      2  O   UNL     1      18.823   8.533  56.357  0.00  0.00    +0.000 OA
ATOM      3  C   UNL     1      17.467  10.255  55.436  0.00  0.00    +0.000 A 
ATOM      4  C   UNL     1      18.066  10.225  57.905  0.00  0.00    +0.000 A 
ATOM      5  C   UNL     1      16.731  11.452  55.680  0.00  0.00    +0.000 A 
ATOM      6  C   UNL     1      18.191   9.562  56.566  0.00  0.00    +0.000 A 
ATOM      7  C   UNL     1      17.511   9.731  54.141  0.00  0.00    +0.000 A 
ATOM      8  C   UNL     1      17.330  11.280  57.751  0.00  0.00    +0.000 A 
ATOM      9  C   UNL     1      16.063  12.091  54.638  0.00  0.00    +0.000 A 
ATOM     10  C   UNL     1      16.839  10.376  53.104  0.00  0.00    +0.000 A 
ATOM     11  C   UNL     1      16.126  11.545  53.360  0.00  0.00    +0.000 A 
ENDROOT
BRANCH   4  12
ATOM     12  C   UNL     1      18.657   9.776  59.164  0.00  0.00    +0.000 A 
ATOM     13  C   UNL     1      20.039   9.615  59.296  0.00  0.00    +0.000 A 
ATOM     14  C   UNL     1      17.847   9.499  60.271  0.00  0.00    +0.000 A 
ATOM     15  C   UNL     1      20.604   9.188  60.496  0.00  0.00    +0.000 A 
ATOM     16  C   UNL     1      18.399   9.070  61.478  0.00  0.00    +0.000 A 
ATOM     17  C   UNL     1      19.775   8.919  61.580  0.00  0.00    +0.000 A 
BRANCH  17  18
ATOM     18  O   UNL     1      20.296   8.499  62.769  0.00  0.00    +0.000 OA
ATOM     19  H   UNL     1      19.780   7.732  63.073  0.00  0.00    +0.000 HD
ENDBRANCH  17  18
ENDBRANCH   4  12
BRANCH   7  20
ATOM     20  O   UNL     1      18.191   8.589  53.814  0.00  0.00    +0.000 OA
ATOM     21  H   UNL     1      18.472   8.648  52.872  0.00  0.00    +0.000 HD
ENDBRANCH   7  20
BRANCH  11  22
ATOM     22  O   UNL     1      15.465  12.186  52.352  0.00  0.00    +0.000 OA
ATOM     23  H   UNL     1      14.833  12.810  52.752  0.00  0.00    +0.000 HD
ENDBRANCH  11  22
TORSDOF 4
ENDMDL
MODEL 9
REMARK VINA RESULT:      -3.6      2.049      6.877
REMARK  Name = Genistein.pdbqt.pdb
REMARK  4 active torsions:
REMARK  status: ('A' for Active; 'I' for Inactive)
REMARK    1  A    between atoms: C_4  and  C_12
REMARK    2  A    between atoms: C_7  and  O_20
REMARK    3  A    between atoms: C_11  and  O_22
REMARK    4  A    between atoms: C_17  and  O_18
REMARK                            x       y       z     vdW  Elec       q    Type
REMARK                         _______ _______ _______ _____ _____    ______ ____
ROOT
ATOM      1  O   UNL     1      17.217  11.167  56.909  0.00  0.00    +0.000 OA
ATOM      2  O   UNL     1      20.030   8.169  57.685  0.00  0.00    +0.000 OA
ATOM      3  C   UNL     1      18.597   9.874  58.517  0.00  0.00    +0.000 A 
ATOM      4  C   UNL     1      18.734   9.362  56.033  0.00  0.00    +0.000 A 
ATOM      5  C   UNL     1      17.642  10.886  58.206  0.00  0.00    +0.000 A 
ATOM      6  C   UNL     1      19.209   9.038  57.418  0.00  0.00    +0.000 A 
ATOM      7  C   UNL     1      18.962   9.664  59.850  0.00  0.00    +0.000 A 
ATOM      8  C   UNL     1      17.876  10.327  56.129  0.00  0.00    +0.000 A 
ATOM      9  C   UNL     1      17.079  11.657  59.220  0.00  0.00    +0.000 A 
ATOM     10  C   UNL     1      18.394  10.440  60.859  0.00  0.00    +0.000 A 
ATOM     11  C   UNL     1      17.461  11.424  60.537  0.00  0.00    +0.000 A 
ENDROOT
BRANCH   4  12
ATOM     12  C   UNL     1      19.154   8.718  54.789  0.00  0.00    +0.000 A 
ATOM     13  C   UNL     1      18.222   8.357  53.813  0.00  0.00    +0.000 A 
ATOM     14  C   UNL     1      20.507   8.451  54.549  0.00  0.00    +0.000 A 
ATOM     15  C   UNL     1      18.622   7.744  52.627  0.00  0.00    +0.000 A 
ATOM     16  C   UNL     1      20.920   7.837  53.367  0.00  0.00    +0.000 A 
ATOM     17  C   UNL     1      19.972   7.489  52.415  0.00  0.00    +0.000 A 
BRANCH  17  18
ATOM     18  O   UNL     1      20.396   6.890  51.264  0.00  0.00    +0.000 OA
ATOM     19  H   UNL     1      21.233   7.309  50.994  0.00  0.00    +0.000 HD
ENDBRANCH  17  18
ENDBRANCH   4  12
BRANCH   7  20
ATOM     20  O   UNL     1      19.869   8.717  60.243  0.00  0.00    +0.000 OA
ATOM     21  H   UNL     1      20.736   9.157  60.399  0.00  0.00    +0.000 HD
ENDBRANCH   7  20
BRANCH  11  22
ATOM     22  O   UNL     1      16.898  12.190  61.517  0.00  0.00    +0.000 OA
ATOM     23  H   UNL     1      16.737  13.078  61.153  0.00  0.00    +0.000 HD
ENDBRANCH  11  22
TORSDOF 4
ENDMDL
