MODEL 1
REMARK VINA RESULT:      -3.9      0.000      0.000
REMARK  Name = Hyoscyamine.pdbqt.pdb
REMARK  6 active torsions:
REMARK  status: ('A' for Active; 'I' for Inactive)
REMARK    1  A    between atoms: C_2  and  O_3
REMARK    2  A    between atoms: C_2  and  C_13
REMARK    3  A    between atoms: O_3  and  C_4
REMARK    4  A    between atoms: C_13  and  C_14
REMARK    5  A    between atoms: C_13  and  C_20
REMARK    6  A    between atoms: C_20  and  O_21
REMARK                            x       y       z     vdW  Elec       q    Type
REMARK                         _______ _______ _______ _____ _____    ______ ____
ROOT
ATOM      1  O   UNL     1      17.689  -1.840  52.851  0.00  0.00    +0.000 OA
ATOM      2  C   UNL     1      16.949  -1.044  53.416  0.00  0.00    +0.000 C 
ENDROOT
BRANCH   2   3
ATOM      3  O   UNL     1      15.662  -1.264  53.815  0.00  0.00    +0.000 OA
BRANCH   3   4
ATOM      4  C   UNL     1      15.535  -1.384  55.199  0.00  0.00    +0.000 C 
ATOM      5  C   UNL     1      16.226  -2.436  55.923  0.00  0.00    +0.000 C 
ATOM      6  C   UNL     1      15.693  -3.238  57.032  0.00  0.00    +0.000 C 
ATOM      7  N   UNL     1      14.246  -3.537  56.616  0.00  0.00    +0.000 NA
ATOM      8  C   UNL     1      15.560  -2.485  58.267  0.00  0.00    +0.000 C 
ATOM      9  C   UNL     1      13.682  -2.132  56.882  0.00  0.00    +0.000 C 
ATOM     10  C   UNL     1      13.629  -4.539  57.497  0.00  0.00    +0.000 C 
ATOM     11  C   UNL     1      14.222  -1.748  58.179  0.00  0.00    +0.000 C 
ATOM     12  C   UNL     1      14.206  -1.318  55.774  0.00  0.00    +0.000 C 
ENDBRANCH   3   4
ENDBRANCH   2   3
BRANCH   2  13
ATOM     13  C   UNL     1      17.355   0.359  53.728  0.00  0.00    +0.000 C 
BRANCH  13  14
ATOM     14  C   UNL     1      18.631   0.718  54.373  0.00  0.00    +0.000 A 
ATOM     15  C   UNL     1      19.467   1.681  53.797  0.00  0.00    +0.000 A 
ATOM     16  C   UNL     1      20.693   2.004  54.377  0.00  0.00    +0.000 A 
ATOM     17  C   UNL     1      21.103   1.360  55.539  0.00  0.00    +0.000 A 
ATOM     18  C   UNL     1      20.289   0.393  56.119  0.00  0.00    +0.000 A 
ATOM     19  C   UNL     1      19.064   0.074  55.534  0.00  0.00    +0.000 A 
ENDBRANCH  13  14
BRANCH  13  20
ATOM     20  C   UNL     1      16.466   1.398  53.306  0.00  0.00    +0.000 C 
BRANCH  20  21
ATOM     21  O   UNL     1      15.640   2.363  52.915  0.00  0.00    +0.000 OA
ATOM     22  H   UNL     1      14.972   2.011  52.300  0.00  0.00    +0.000 HD
ENDBRANCH  20  21
ENDBRANCH  13  20
ENDBRANCH   2  13
TORSDOF 6
ENDMDL
MODEL 2
REMARK VINA RESULT:      -3.8      1.208      1.652
REMARK  Name = Hyoscyamine.pdbqt.pdb
REMARK  6 active torsions:
REMARK  status: ('A' for Active; 'I' for Inactive)
REMARK    1  A    between atoms: C_2  and  O_3
REMARK    2  A    between atoms: C_2  and  C_13
REMARK    3  A    between atoms: O_3  and  C_4
REMARK    4  A    between atoms: C_13  and  C_14
REMARK    5  A    between atoms: C_13  and  C_20
REMARK    6  A    between atoms: C_20  and  O_21
REMARK                            x       y       z     vdW  Elec       q    Type
REMARK                         _______ _______ _______ _____ _____    ______ ____
ROOT
ATOM      1  O   UNL     1      16.072  -1.581  52.420  0.00  0.00    +0.000 OA
ATOM      2  C   UNL     1      15.778  -0.666  53.180  0.00  0.00    +0.000 C 
ENDROOT
BRANCH   2   3
ATOM      3  O   UNL     1      14.729  -0.632  54.051  0.00  0.00    +0.000 OA
BRANCH   3   4
ATOM      4  C   UNL     1      14.700  -1.729  54.912  0.00  0.00    +0.000 C 
ATOM      5  C   UNL     1      13.586  -2.661  54.893  0.00  0.00    +0.000 C 
ATOM      6  C   UNL     1      12.937  -3.280  56.056  0.00  0.00    +0.000 C 
ATOM      7  N   UNL     1      12.857  -2.146  57.088  0.00  0.00    +0.000 NA
ATOM      8  C   UNL     1      13.762  -4.288  56.700  0.00  0.00    +0.000 C 
ATOM      9  C   UNL     1      14.346  -2.135  57.468  0.00  0.00    +0.000 C 
ATOM     10  C   UNL     1      12.013  -2.519  58.233  0.00  0.00    +0.000 C 
ATOM     11  C   UNL     1      14.701  -3.536  57.645  0.00  0.00    +0.000 C 
ATOM     12  C   UNL     1      15.008  -1.513  56.311  0.00  0.00    +0.000 C 
ENDBRANCH   3   4
ENDBRANCH   2   3
BRANCH   2  13
ATOM     13  C   UNL     1      16.540   0.617  53.235  0.00  0.00    +0.000 C 
BRANCH  13  14
ATOM     14  C   UNL     1      17.823   0.779  53.944  0.00  0.00    +0.000 A 
ATOM     15  C   UNL     1      18.787   1.671  53.464  0.00  0.00    +0.000 A 
ATOM     16  C   UNL     1      20.019   1.808  54.103  0.00  0.00    +0.000 A 
ATOM     17  C   UNL     1      20.305   1.044  55.230  0.00  0.00    +0.000 A 
ATOM     18  C   UNL     1      19.361   0.145  55.714  0.00  0.00    +0.000 A 
ATOM     19  C   UNL     1      18.132   0.012  55.070  0.00  0.00    +0.000 A 
ENDBRANCH  13  14
BRANCH  13  20
ATOM     20  C   UNL     1      16.005   1.718  52.494  0.00  0.00    +0.000 C 
BRANCH  20  21
ATOM     21  O   UNL     1      15.509   2.741  51.807  0.00  0.00    +0.000 OA
ATOM     22  H   UNL     1      14.733   2.461  51.290  0.00  0.00    +0.000 HD
ENDBRANCH  20  21
ENDBRANCH  13  20
ENDBRANCH   2  13
TORSDOF 6
ENDMDL
MODEL 3
REMARK VINA RESULT:      -3.8      2.137      3.145
REMARK  Name = Hyoscyamine.pdbqt.pdb
REMARK  6 active torsions:
REMARK  status: ('A' for Active; 'I' for Inactive)
REMARK    1  A    between atoms: C_2  and  O_3
REMARK    2  A    between atoms: C_2  and  C_13
REMARK    3  A    between atoms: O_3  and  C_4
REMARK    4  A    between atoms: C_13  and  C_14
REMARK    5  A    between atoms: C_13  and  C_20
REMARK    6  A    between atoms: C_20  and  O_21
REMARK                            x       y       z     vdW  Elec       q    Type
REMARK                         _______ _______ _______ _____ _____    ______ ____
ROOT
ATOM      1  O   UNL     1      15.856  -3.627  55.172  0.00  0.00    +0.000 OA
ATOM      2  C   UNL     1      15.279  -2.656  55.644  0.00  0.00    +0.000 C 
ENDROOT
BRANCH   2   3
ATOM      3  O   UNL     1      14.441  -2.645  56.721  0.00  0.00    +0.000 OA
BRANCH   3   4
ATOM      4  C   UNL     1      14.979  -1.979  57.822  0.00  0.00    +0.000 C 
ATOM      5  C   UNL     1      15.745  -2.696  58.826  0.00  0.00    +0.000 C 
ATOM      6  C   UNL     1      15.686  -2.504  60.281  0.00  0.00    +0.000 C 
ATOM      7  N   UNL     1      14.191  -2.315  60.574  0.00  0.00    +0.000 NA
ATOM      8  C   UNL     1      16.293  -1.259  60.717  0.00  0.00    +0.000 C 
ATOM      9  C   UNL     1      14.071  -0.888  60.016  0.00  0.00    +0.000 C 
ATOM     10  C   UNL     1      13.917  -2.352  62.018  0.00  0.00    +0.000 C 
ATOM     11  C   UNL     1      15.225  -0.177  60.548  0.00  0.00    +0.000 C 
ATOM     12  C   UNL     1      14.124  -1.067  58.557  0.00  0.00    +0.000 C 
ENDBRANCH   3   4
ENDBRANCH   2   3
BRANCH   2  13
ATOM     13  C   UNL     1      15.386  -1.287  55.057  0.00  0.00    +0.000 C 
BRANCH  13  14
ATOM     14  C   UNL     1      16.658  -0.557  54.905  0.00  0.00    +0.000 A 
ATOM     15  C   UNL     1      16.839   0.332  53.839  0.00  0.00    +0.000 A 
ATOM     16  C   UNL     1      18.049   1.001  53.662  0.00  0.00    +0.000 A 
ATOM     17  C   UNL     1      19.100   0.781  54.546  0.00  0.00    +0.000 A 
ATOM     18  C   UNL     1      18.941  -0.107  55.604  0.00  0.00    +0.000 A 
ATOM     19  C   UNL     1      17.729  -0.773  55.776  0.00  0.00    +0.000 A 
ENDBRANCH  13  14
BRANCH  13  20
ATOM     20  C   UNL     1      14.178  -0.700  54.563  0.00  0.00    +0.000 C 
BRANCH  20  21
ATOM     21  O   UNL     1      13.057  -0.154  54.104  0.00  0.00    +0.000 OA
ATOM     22  H   UNL     1      13.076   0.812  54.218  0.00  0.00    +0.000 HD
ENDBRANCH  20  21
ENDBRANCH  13  20
ENDBRANCH   2  13
TORSDOF 6
ENDMDL
MODEL 4
REMARK VINA RESULT:      -3.5      3.340      5.494
REMARK  Name = Hyoscyamine.pdbqt.pdb
REMARK  6 active torsions:
REMARK  status: ('A' for Active; 'I' for Inactive)
REMARK    1  A    between atoms: C_2  and  O_3
REMARK    2  A    between atoms: C_2  and  C_13
REMARK    3  A    between atoms: O_3  and  C_4
REMARK    4  A    between atoms: C_13  and  C_14
REMARK    5  A    between atoms: C_13  and  C_20
REMARK    6  A    between atoms: C_20  and  O_21
REMARK                            x       y       z     vdW  Elec       q    Type
REMARK                         _______ _______ _______ _____ _____    ______ ____
ROOT
ATOM      1  O   UNL     1      15.609  -1.399  53.794  0.00  0.00    +0.000 OA
ATOM      2  C   UNL     1      16.569  -0.862  53.253  0.00  0.00    +0.000 C 
ENDROOT
BRANCH   2   3
ATOM      3  O   UNL     1      17.360  -1.393  52.276  0.00  0.00    +0.000 OA
BRANCH   3   4
ATOM      4  C   UNL     1      16.910  -1.093  50.990  0.00  0.00    +0.000 C 
ATOM      5  C   UNL     1      17.442   0.045  50.261  0.00  0.00    +0.000 C 
ATOM      6  C   UNL     1      16.685   0.984  49.423  0.00  0.00    +0.000 C 
ATOM      7  N   UNL     1      15.389   1.226  50.209  0.00  0.00    +0.000 NA
ATOM      8  C   UNL     1      16.237   0.399  48.171  0.00  0.00    +0.000 C 
ATOM      9  C   UNL     1      14.734  -0.132  49.910  0.00  0.00    +0.000 C 
ATOM     10  C   UNL     1      14.611   2.334  49.636  0.00  0.00    +0.000 C 
ATOM     11  C   UNL     1      14.937  -0.343  48.484  0.00  0.00    +0.000 C 
ATOM     12  C   UNL     1      15.481  -1.084  50.748  0.00  0.00    +0.000 C 
ENDBRANCH   3   4
ENDBRANCH   2   3
BRANCH   2  13
ATOM     13  C   UNL     1      17.056   0.497  53.633  0.00  0.00    +0.000 C 
BRANCH  13  14
ATOM     14  C   UNL     1      18.396   0.762  54.188  0.00  0.00    +0.000 A 
ATOM     15  C   UNL     1      18.814   0.121  55.360  0.00  0.00    +0.000 A 
ATOM     16  C   UNL     1      20.064   0.389  55.917  0.00  0.00    +0.000 A 
ATOM     17  C   UNL     1      20.910   1.312  55.311  0.00  0.00    +0.000 A 
ATOM     18  C   UNL     1      20.506   1.966  54.152  0.00  0.00    +0.000 A 
ATOM     19  C   UNL     1      19.255   1.694  53.600  0.00  0.00    +0.000 A 
ENDBRANCH  13  14
BRANCH  13  20
ATOM     20  C   UNL     1      16.177   1.595  53.370  0.00  0.00    +0.000 C 
BRANCH  20  21
ATOM     21  O   UNL     1      15.360   2.615  53.127  0.00  0.00    +0.000 OA
ATOM     22  H   UNL     1      15.753   3.449  53.439  0.00  0.00    +0.000 HD
ENDBRANCH  20  21
ENDBRANCH  13  20
ENDBRANCH   2  13
TORSDOF 6
ENDMDL
MODEL 5
REMARK VINA RESULT:      -3.5     13.267     15.142
REMARK  Name = Hyoscyamine.pdbqt.pdb
REMARK  6 active torsions:
REMARK  status: ('A' for Active; 'I' for Inactive)
REMARK    1  A    between atoms: C_2  and  O_3
REMARK    2  A    between atoms: C_2  and  C_13
REMARK    3  A    between atoms: O_3  and  C_4
REMARK    4  A    between atoms: C_13  and  C_14
REMARK    5  A    between atoms: C_13  and  C_20
REMARK    6  A    between atoms: C_20  and  O_21
REMARK                            x       y       z     vdW  Elec       q    Type
REMARK                         _______ _______ _______ _____ _____    ______ ____
ROOT
ATOM      1  O   UNL     1      14.603  12.054  59.069  0.00  0.00    +0.000 OA
ATOM      2  C   UNL     1      14.282  12.025  60.251  0.00  0.00    +0.000 C 
ENDROOT
BRANCH   2   3
ATOM      3  O   UNL     1      14.580  11.049  61.157  0.00  0.00    +0.000 OA
BRANCH   3   4
ATOM      4  C   UNL     1      15.948  10.790  61.248  0.00  0.00    +0.000 C 
ATOM      5  C   UNL     1      16.923  11.840  61.012  0.00  0.00    +0.000 C 
ATOM      6  C   UNL     1      18.190  11.717  60.280  0.00  0.00    +0.000 C 
ATOM      7  N   UNL     1      17.842  10.830  59.076  0.00  0.00    +0.000 NA
ATOM      8  C   UNL     1      19.194  10.956  61.003  0.00  0.00    +0.000 C 
ATOM      9  C   UNL     1      17.738   9.504  59.846  0.00  0.00    +0.000 C 
ATOM     10  C   UNL     1      18.938  10.799  58.096  0.00  0.00    +0.000 C 
ATOM     11  C   UNL     1      18.904   9.481  60.717  0.00  0.00    +0.000 C 
ATOM     12  C   UNL     1      16.469   9.613  60.581  0.00  0.00    +0.000 C 
ENDBRANCH   3   4
ENDBRANCH   2   3
BRANCH   2  13
ATOM     13  C   UNL     1      13.447  13.086  60.889  0.00  0.00    +0.000 C 
BRANCH  13  14
ATOM     14  C   UNL     1      12.036  12.896  61.275  0.00  0.00    +0.000 A 
ATOM     15  C   UNL     1      11.545  13.463  62.456  0.00  0.00    +0.000 A 
ATOM     16  C   UNL     1      10.224  13.262  62.852  0.00  0.00    +0.000 A 
ATOM     17  C   UNL     1       9.376  12.481  62.073  0.00  0.00    +0.000 A 
ATOM     18  C   UNL     1       9.851  11.902  60.901  0.00  0.00    +0.000 A 
ATOM     19  C   UNL     1      11.174  12.106  60.511  0.00  0.00    +0.000 A 
ENDBRANCH  13  14
BRANCH  13  20
ATOM     20  C   UNL     1      14.095  14.325  61.191  0.00  0.00    +0.000 C 
BRANCH  20  21
ATOM     21  O   UNL     1      14.697  15.476  61.471  0.00  0.00    +0.000 OA
ATOM     22  H   UNL     1      14.130  16.227  61.221  0.00  0.00    +0.000 HD
ENDBRANCH  20  21
ENDBRANCH  13  20
ENDBRANCH   2  13
TORSDOF 6
ENDMDL
MODEL 6
REMARK VINA RESULT:      -3.4     20.152     22.081
REMARK  Name = Hyoscyamine.pdbqt.pdb
REMARK  6 active torsions:
REMARK  status: ('A' for Active; 'I' for Inactive)
REMARK    1  A    between atoms: C_2  and  O_3
REMARK    2  A    between atoms: C_2  and  C_13
REMARK    3  A    between atoms: O_3  and  C_4
REMARK    4  A    between atoms: C_13  and  C_14
REMARK    5  A    between atoms: C_13  and  C_20
REMARK    6  A    between atoms: C_20  and  O_21
REMARK                            x       y       z     vdW  Elec       q    Type
REMARK                         _______ _______ _______ _____ _____    ______ ____
ROOT
ATOM      1  O   UNL     1       8.850   0.161  78.495  0.00  0.00    +0.000 OA
ATOM      2  C   UNL     1       8.269   0.463  77.459  0.00  0.00    +0.000 C 
ENDROOT
BRANCH   2   3
ATOM      3  O   UNL     1       7.573  -0.374  76.637  0.00  0.00    +0.000 OA
BRANCH   3   4
ATOM      4  C   UNL     1       8.380  -0.994  75.682  0.00  0.00    +0.000 C 
ATOM      5  C   UNL     1       8.097  -0.856  74.264  0.00  0.00    +0.000 C 
ATOM      6  C   UNL     1       8.186  -1.907  73.243  0.00  0.00    +0.000 C 
ATOM      7  N   UNL     1       7.608  -3.150  73.933  0.00  0.00    +0.000 NA
ATOM      8  C   UNL     1       9.554  -2.281  72.927  0.00  0.00    +0.000 C 
ATOM      9  C   UNL     1       8.811  -3.431  74.848  0.00  0.00    +0.000 C 
ATOM     10  C   UNL     1       7.393  -4.246  72.977  0.00  0.00    +0.000 C 
ATOM     11  C   UNL     1       9.978  -3.298  73.987  0.00  0.00    +0.000 C 
ATOM     12  C   UNL     1       8.730  -2.386  75.880  0.00  0.00    +0.000 C 
ENDBRANCH   3   4
ENDBRANCH   2   3
BRANCH   2  13
ATOM     13  C   UNL     1       8.274   1.849  76.903  0.00  0.00    +0.000 C 
BRANCH  13  14
ATOM     14  C   UNL     1       9.493   2.549  76.457  0.00  0.00    +0.000 A 
ATOM     15  C   UNL     1       9.716   3.882  76.822  0.00  0.00    +0.000 A 
ATOM     16  C   UNL     1      10.845   4.567  76.377  0.00  0.00    +0.000 A 
ATOM     17  C   UNL     1      11.765   3.928  75.552  0.00  0.00    +0.000 A 
ATOM     18  C   UNL     1      11.554   2.608  75.172  0.00  0.00    +0.000 A 
ATOM     19  C   UNL     1      10.422   1.927  75.619  0.00  0.00    +0.000 A 
ENDBRANCH  13  14
BRANCH  13  20
ATOM     20  C   UNL     1       7.003   2.486  76.745  0.00  0.00    +0.000 C 
BRANCH  20  21
ATOM     21  O   UNL     1       5.822   3.078  76.598  0.00  0.00    +0.000 OA
ATOM     22  H   UNL     1       5.383   2.767  75.787  0.00  0.00    +0.000 HD
ENDBRANCH  20  21
ENDBRANCH  13  20
ENDBRANCH   2  13
TORSDOF 6
ENDMDL
MODEL 7
REMARK VINA RESULT:      -3.2      3.511      5.808
REMARK  Name = Hyoscyamine.pdbqt.pdb
REMARK  6 active torsions:
REMARK  status: ('A' for Active; 'I' for Inactive)
REMARK    1  A    between atoms: C_2  and  O_3
REMARK    2  A    between atoms: C_2  and  C_13
REMARK    3  A    between atoms: O_3  and  C_4
REMARK    4  A    between atoms: C_13  and  C_14
REMARK    5  A    between atoms: C_13  and  C_20
REMARK    6  A    between atoms: C_20  and  O_21
REMARK                            x       y       z     vdW  Elec       q    Type
REMARK                         _______ _______ _______ _____ _____    ______ ____
ROOT
ATOM      1  O   UNL     1      15.798  -1.563  53.841  0.00  0.00    +0.000 OA
ATOM      2  C   UNL     1      16.790  -1.021  53.370  0.00  0.00    +0.000 C 
ENDROOT
BRANCH   2   3
ATOM      3  O   UNL     1      17.701  -1.576  52.520  0.00  0.00    +0.000 OA
BRANCH   3   4
ATOM      4  C   UNL     1      17.417  -1.324  51.178  0.00  0.00    +0.000 C 
ATOM      5  C   UNL     1      16.912  -2.375  50.312  0.00  0.00    +0.000 C 
ATOM      6  C   UNL     1      17.297  -2.628  48.918  0.00  0.00    +0.000 C 
ATOM      7  N   UNL     1      18.815  -2.406  48.902  0.00  0.00    +0.000 NA
ATOM      8  C   UNL     1      16.784  -1.629  47.995  0.00  0.00    +0.000 C 
ATOM      9  C   UNL     1      18.782  -0.873  48.996  0.00  0.00    +0.000 C 
ATOM     10  C   UNL     1      19.411  -2.855  47.635  0.00  0.00    +0.000 C 
ATOM     11  C   UNL     1      17.767  -0.459  48.037  0.00  0.00    +0.000 C 
ATOM     12  C   UNL     1      18.401  -0.606  50.392  0.00  0.00    +0.000 C 
ENDBRANCH   3   4
ENDBRANCH   2   3
BRANCH   2  13
ATOM     13  C   UNL     1      17.183   0.380  53.707  0.00  0.00    +0.000 C 
BRANCH  13  14
ATOM     14  C   UNL     1      18.493   0.751  54.274  0.00  0.00    +0.000 A 
ATOM     15  C   UNL     1      19.308   1.681  53.620  0.00  0.00    +0.000 A 
ATOM     16  C   UNL     1      20.564   2.013  54.126  0.00  0.00    +0.000 A 
ATOM     17  C   UNL     1      21.025   1.410  55.291  0.00  0.00    +0.000 A 
ATOM     18  C   UNL     1      20.232   0.476  55.948  0.00  0.00    +0.000 A 
ATOM     19  C   UNL     1      18.977   0.147  55.438  0.00  0.00    +0.000 A 
ENDBRANCH  13  14
BRANCH  13  20
ATOM     20  C   UNL     1      16.241   1.409  53.389  0.00  0.00    +0.000 C 
BRANCH  20  21
ATOM     21  O   UNL     1      15.367   2.366  53.094  0.00  0.00    +0.000 OA
ATOM     22  H   UNL     1      15.447   3.107  53.720  0.00  0.00    +0.000 HD
ENDBRANCH  20  21
ENDBRANCH  13  20
ENDBRANCH   2  13
TORSDOF 6
ENDMDL
MODEL 8
REMARK VINA RESULT:      -3.2     12.084     13.753
REMARK  Name = Hyoscyamine.pdbqt.pdb
REMARK  6 active torsions:
REMARK  status: ('A' for Active; 'I' for Inactive)
REMARK    1  A    between atoms: C_2  and  O_3
REMARK    2  A    between atoms: C_2  and  C_13
REMARK    3  A    between atoms: O_3  and  C_4
REMARK    4  A    between atoms: C_13  and  C_14
REMARK    5  A    between atoms: C_13  and  C_20
REMARK    6  A    between atoms: C_20  and  O_21
REMARK                            x       y       z     vdW  Elec       q    Type
REMARK                         _______ _______ _______ _____ _____    ______ ____
ROOT
ATOM      1  O   UNL     1      12.555  14.177  56.530  0.00  0.00    +0.000 OA
ATOM      2  C   UNL     1      12.970  13.029  56.431  0.00  0.00    +0.000 C 
ENDROOT
BRANCH   2   3
ATOM      3  O   UNL     1      13.108  12.118  57.438  0.00  0.00    +0.000 OA
BRANCH   3   4
ATOM      4  C   UNL     1      13.841  12.609  58.519  0.00  0.00    +0.000 C 
ATOM      5  C   UNL     1      15.285  12.470  58.566  0.00  0.00    +0.000 C 
ATOM      6  C   UNL     1      16.099  12.130  59.740  0.00  0.00    +0.000 C 
ATOM      7  N   UNL     1      15.287  11.041  60.456  0.00  0.00    +0.000 NA
ATOM      8  C   UNL     1      16.178  13.209  60.710  0.00  0.00    +0.000 C 
ATOM      9  C   UNL     1      14.199  11.965  61.025  0.00  0.00    +0.000 C 
ATOM     10  C   UNL     1      16.068  10.406  61.528  0.00  0.00    +0.000 C 
ATOM     11  C   UNL     1      14.920  13.105  61.573  0.00  0.00    +0.000 C 
ATOM     12  C   UNL     1      13.373  12.309  59.857  0.00  0.00    +0.000 C 
ENDBRANCH   3   4
ENDBRANCH   2   3
BRANCH   2  13
ATOM     13  C   UNL     1      13.443  12.448  55.139  0.00  0.00    +0.000 C 
BRANCH  13  14
ATOM     14  C   UNL     1      14.845  12.076  54.872  0.00  0.00    +0.000 A 
ATOM     15  C   UNL     1      15.189  10.738  54.648  0.00  0.00    +0.000 A 
ATOM     16  C   UNL     1      16.515  10.366  54.430  0.00  0.00    +0.000 A 
ATOM     17  C   UNL     1      17.518  11.330  54.445  0.00  0.00    +0.000 A 
ATOM     18  C   UNL     1      17.194  12.663  54.677  0.00  0.00    +0.000 A 
ATOM     19  C   UNL     1      15.866  13.028  54.894  0.00  0.00    +0.000 A 
ENDBRANCH  13  14
BRANCH  13  20
ATOM     20  C   UNL     1      12.448  12.189  54.144  0.00  0.00    +0.000 C 
BRANCH  20  21
ATOM     21  O   UNL     1      11.523  11.947  53.221  0.00  0.00    +0.000 OA
ATOM     22  H   UNL     1      11.584  12.598  52.500  0.00  0.00    +0.000 HD
ENDBRANCH  20  21
ENDBRANCH  13  20
ENDBRANCH   2  13
TORSDOF 6
ENDMDL
MODEL 9
REMARK VINA RESULT:      -3.1     15.772     18.629
REMARK  Name = Hyoscyamine.pdbqt.pdb
REMARK  6 active torsions:
REMARK  status: ('A' for Active; 'I' for Inactive)
REMARK    1  A    between atoms: C_2  and  O_3
REMARK    2  A    between atoms: C_2  and  C_13
REMARK    3  A    between atoms: O_3  and  C_4
REMARK    4  A    between atoms: C_13  and  C_14
REMARK    5  A    between atoms: C_13  and  C_20
REMARK    6  A    between atoms: C_20  and  O_21
REMARK                            x       y       z     vdW  Elec       q    Type
REMARK                         _______ _______ _______ _____ _____    ______ ____
ROOT
ATOM      1  O   UNL     1       1.807   5.914  62.742  0.00  0.00    +0.000 OA
ATOM      2  C   UNL     1       2.546   5.435  63.594  0.00  0.00    +0.000 C 
ENDROOT
BRANCH   2   3
ATOM      3  O   UNL     1       3.815   4.969  63.407  0.00  0.00    +0.000 OA
BRANCH   3   4
ATOM      4  C   UNL     1       4.706   5.963  63.001  0.00  0.00    +0.000 C 
ATOM      5  C   UNL     1       4.398   7.367  63.203  0.00  0.00    +0.000 C 
ATOM      6  C   UNL     1       4.648   8.468  62.263  0.00  0.00    +0.000 C 
ATOM      7  N   UNL     1       4.279   7.881  60.894  0.00  0.00    +0.000 NA
ATOM      8  C   UNL     1       6.057   8.800  62.137  0.00  0.00    +0.000 C 
ATOM      9  C   UNL     1       5.515   6.982  60.736  0.00  0.00    +0.000 C 
ATOM     10  C   UNL     1       4.236   8.923  59.856  0.00  0.00    +0.000 C 
ATOM     11  C   UNL     1       6.642   7.820  61.120  0.00  0.00    +0.000 C 
ATOM     12  C   UNL     1       5.274   5.872  61.670  0.00  0.00    +0.000 C 
ENDBRANCH   3   4
ENDBRANCH   2   3
BRANCH   2  13
ATOM     13  C   UNL     1       2.130   5.249  65.015  0.00  0.00    +0.000 C 
BRANCH  13  14
ATOM     14  C   UNL     1       2.004   6.354  65.984  0.00  0.00    +0.000 A 
ATOM     15  C   UNL     1       2.219   6.126  67.347  0.00  0.00    +0.000 A 
ATOM     16  C   UNL     1       2.068   7.153  68.278  0.00  0.00    +0.000 A 
ATOM     17  C   UNL     1       1.690   8.423  67.856  0.00  0.00    +0.000 A 
ATOM     18  C   UNL     1       1.461   8.664  66.505  0.00  0.00    +0.000 A 
ATOM     19  C   UNL     1       1.614   7.633  65.579  0.00  0.00    +0.000 A 
ENDBRANCH  13  14
BRANCH  13  20
ATOM     20  C   UNL     1       1.775   3.922  65.417  0.00  0.00    +0.000 C 
BRANCH  20  21
ATOM     21  O   UNL     1       1.446   2.690  65.790  0.00  0.00    +0.000 OA
ATOM     22  H   UNL     1       2.244   2.166  65.977  0.00  0.00    +0.000 HD
ENDBRANCH  20  21
ENDBRANCH  13  20
ENDBRANCH   2  13
TORSDOF 6
ENDMDL
