MODEL 1
REMARK VINA RESULT:      -4.7      0.000      0.000
REMARK  Name = 
REMARK  21 active torsions:
REMARK  status: ('A' for Active; 'I' for Inactive)
REMARK    1  A    between atoms: O_3  and  C_22
REMARK    2  A    between atoms: O_3  and  C_28
REMARK    3  A    between atoms: O_4  and  C_25
REMARK    4  A    between atoms: O_4  and  C_30
REMARK    5  A    between atoms: O_5  and  C_16
REMARK    6  A    between atoms: O_6  and  C_17
REMARK    7  A    between atoms: O_7  and  C_18
REMARK    8  A    between atoms: O_8  and  C_20
REMARK    9  A    between atoms: O_9  and  C_21
REMARK   10  A    between atoms: O_10  and  C_23
REMARK   11  A    between atoms: O_11  and  C_26
REMARK   12  A    between atoms: O_13  and  C_36
REMARK   13  A    between atoms: O_15  and  C_45
REMARK   14  A    between atoms: O_15  and  C_48
REMARK   15  A    between atoms: C_19  and  C_26
REMARK   16  A    between atoms: C_24  and  C_27
REMARK   17  A    between atoms: C_29  and  C_37
REMARK   18  A    between atoms: C_35  and  C_38
REMARK   19  A    between atoms: C_37  and  C_39
REMARK   20  A    between atoms: C_42  and  C_46
REMARK   21  A    between atoms: C_42  and  C_47
REMARK                            x       y       z     vdW  Elec       q    Type
REMARK                         _______ _______ _______ _____ _____    ______ ____
ROOT
ATOM      1  O   UNL     1      11.205  12.457  60.574  0.00  0.00    +0.000 OA
ATOM      2  O   UNL     1      11.046  14.813  63.877  0.00  0.00    +0.000 OA
ATOM      3  C   UNL     1      14.781  13.096  61.015  0.00  0.00    +0.000 A 
ATOM      4  C   UNL     1      13.578  12.601  60.479  0.00  0.00    +0.000 A 
ATOM      5  C   UNL     1       9.851  13.577  62.235  0.00  0.00    +0.000 A 
ATOM      6  C   UNL     1      12.369  12.951  61.113  0.00  0.00    +0.000 A 
ATOM      7  C   UNL     1      12.369  13.761  62.249  0.00  0.00    +0.000 A 
ATOM      8  C   UNL     1      11.084  14.110  62.869  0.00  0.00    +0.000 A 
ATOM      9  C   UNL     1      14.782  13.874  62.177  0.00  0.00    +0.000 A 
ATOM     10  C   UNL     1       9.994  12.825  61.129  0.00  0.00    +0.000 A 
ATOM     11  C   UNL     1      13.578  14.216  62.781  0.00  0.00    +0.000 A 
ENDROOT
BRANCH  10  12
ATOM     12  C   UNL     1       8.841  12.265  60.408  0.00  0.00    +0.000 A 
ATOM     13  C   UNL     1       8.629  10.882  60.397  0.00  0.00    +0.000 A 
ATOM     14  C   UNL     1       7.948  13.091  59.714  0.00  0.00    +0.000 A 
ATOM     15  C   UNL     1       7.534  10.342  59.718  0.00  0.00    +0.000 A 
ATOM     16  C   UNL     1       6.850  12.549  59.037  0.00  0.00    +0.000 A 
ATOM     17  C   UNL     1       6.635  11.170  59.041  0.00  0.00    +0.000 A 
BRANCH  17  18
ATOM     18  O   UNL     1       5.606  10.514  58.426  0.00  0.00    +0.000 OA
ATOM     19  C   UNL     1       5.901   9.242  57.864  0.00  0.00    +0.000 C 
ENDBRANCH  17  18
ENDBRANCH  10  12
BRANCH  11  20
ATOM     20  O   UNL     1      13.658  14.996  63.903  0.00  0.00    +0.000 OA
ATOM     21  H   UNL     1      12.751  15.294  64.138  0.00  0.00    +0.000 HD
ENDBRANCH  11  20
BRANCH   4  22
ATOM     22  C   UNL     1      13.565  11.744  59.228  0.00  0.00    +0.000 C 
BRANCH  22  23
ATOM     23  C   UNL     1      13.689  12.563  57.970  0.00  0.00    +0.000 C 
ATOM     24  C   UNL     1      12.710  13.051  57.182  0.00  0.00    +0.000 C 
ATOM     25  C   UNL     1      11.234  12.874  57.408  0.00  0.00    +0.000 C 
ATOM     26  C   UNL     1      13.051  13.857  55.956  0.00  0.00    +0.000 C 
ENDBRANCH  22  23
ENDBRANCH   4  22
BRANCH   5  27
ATOM     27  O   UNL     1       8.617  13.933  62.749  0.00  0.00    +0.000 OA
BRANCH  27  33
ATOM     28  O   UNL     1       7.396  12.050  63.508  0.00  0.00    +0.000 OA
ATOM     29  C   UNL     1       6.195  14.506  64.424  0.00  0.00    +0.000 C 
ATOM     30  C   UNL     1       5.347  13.307  63.982  0.00  0.00    +0.000 C 
ATOM     31  C   UNL     1       7.566  14.056  64.929  0.00  0.00    +0.000 C 
ATOM     32  C   UNL     1       6.132  12.462  62.971  0.00  0.00    +0.000 C 
ATOM     33  C   UNL     1       8.244  13.144  63.885  0.00  0.00    +0.000 C 
ATOM     34  C   UNL     1       5.367  11.200  62.584  0.00  0.00    +0.000 C 
BRANCH  29  35
ATOM     35  O   UNL     1       5.487  15.201  65.467  0.00  0.00    +0.000 OA
ATOM     36  H   UNL     1       5.424  16.128  65.153  0.00  0.00    +0.000 HD
ENDBRANCH  29  35
BRANCH  30  37
ATOM     37  O   UNL     1       4.124  13.790  63.416  0.00  0.00    +0.000 OA
ATOM     38  H   UNL     1       3.594  14.102  64.177  0.00  0.00    +0.000 HD
ENDBRANCH  30  37
BRANCH  31  39
ATOM     39  O   UNL     1       7.366  13.387  66.192  0.00  0.00    +0.000 OA
ATOM     40  H   UNL     1       7.963  12.617  66.207  0.00  0.00    +0.000 HD
ENDBRANCH  31  39
ENDBRANCH  27  33
ENDBRANCH   5  27
BRANCH   3  41
ATOM     41  O   UNL     1      15.972  12.724  60.446  0.00  0.00    +0.000 OA
BRANCH  41  47
ATOM     42  O   UNL     1      17.044  11.453  62.130  0.00  0.00    +0.000 OA
ATOM     43  C   UNL     1      17.950   9.560  60.192  0.00  0.00    +0.000 C 
ATOM     44  C   UNL     1      18.531   9.604  61.608  0.00  0.00    +0.000 C 
ATOM     45  C   UNL     1      17.387  10.921  59.788  0.00  0.00    +0.000 C 
ATOM     46  C   UNL     1      17.475  10.156  62.577  0.00  0.00    +0.000 C 
ATOM     47  C   UNL     1      16.394  11.407  60.860  0.00  0.00    +0.000 C 
BRANCH  44  48
ATOM     48  O   UNL     1      18.948   8.290  61.983  0.00  0.00    +0.000 OA
ATOM     49  H   UNL     1      18.905   7.763  61.158  0.00  0.00    +0.000 HD
ENDBRANCH  44  48
BRANCH  45  50
ATOM     50  O   UNL     1      16.769  10.793  58.498  0.00  0.00    +0.000 OA
ATOM     51  H   UNL     1      16.963   9.883  58.196  0.00  0.00    +0.000 HD
ENDBRANCH  45  50
BRANCH  43  52
ATOM     52  O   UNL     1      18.983   9.156  59.278  0.00  0.00    +0.000 OA
ATOM     53  H   UNL     1      18.781   9.625  58.443  0.00  0.00    +0.000 HD
ENDBRANCH  43  52
BRANCH  46  54
ATOM     54  C   UNL     1      18.043  10.295  63.995  0.00  0.00    +0.000 C 
BRANCH  54  55
ATOM     55  O   UNL     1      17.771   9.107  64.743  0.00  0.00    +0.000 OA
ATOM     56  H   UNL     1      17.751   9.363  65.681  0.00  0.00    +0.000 HD
ENDBRANCH  54  55
ENDBRANCH  46  54
ENDBRANCH  41  47
ENDBRANCH   3  41
TORSDOF 17
ENDMDL
MODEL 2
REMARK VINA RESULT:      -4.7      5.045     11.054
REMARK  Name = 
REMARK  21 active torsions:
REMARK  status: ('A' for Active; 'I' for Inactive)
REMARK    1  A    between atoms: O_3  and  C_22
REMARK    2  A    between atoms: O_3  and  C_28
REMARK    3  A    between atoms: O_4  and  C_25
REMARK    4  A    between atoms: O_4  and  C_30
REMARK    5  A    between atoms: O_5  and  C_16
REMARK    6  A    between atoms: O_6  and  C_17
REMARK    7  A    between atoms: O_7  and  C_18
REMARK    8  A    between atoms: O_8  and  C_20
REMARK    9  A    between atoms: O_9  and  C_21
REMARK   10  A    between atoms: O_10  and  C_23
REMARK   11  A    between atoms: O_11  and  C_26
REMARK   12  A    between atoms: O_13  and  C_36
REMARK   13  A    between atoms: O_15  and  C_45
REMARK   14  A    between atoms: O_15  and  C_48
REMARK   15  A    between atoms: C_19  and  C_26
REMARK   16  A    between atoms: C_24  and  C_27
REMARK   17  A    between atoms: C_29  and  C_37
REMARK   18  A    between atoms: C_35  and  C_38
REMARK   19  A    between atoms: C_37  and  C_39
REMARK   20  A    between atoms: C_42  and  C_46
REMARK   21  A    between atoms: C_42  and  C_47
REMARK                            x       y       z     vdW  Elec       q    Type
REMARK                         _______ _______ _______ _____ _____    ______ ____
ROOT
ATOM      1  O   UNL     1       6.756   6.901  59.292  0.00  0.00    +0.000 OA
ATOM      2  O   UNL     1       5.715   8.517  55.716  0.00  0.00    +0.000 OA
ATOM      3  C   UNL     1       5.458  10.118  60.455  0.00  0.00    +0.000 A 
ATOM      4  C   UNL     1       6.022   8.830  60.477  0.00  0.00    +0.000 A 
ATOM      5  C   UNL     1       6.671   6.681  56.887  0.00  0.00    +0.000 A 
ATOM      6  C   UNL     1       6.205   8.159  59.251  0.00  0.00    +0.000 A 
ATOM      7  C   UNL     1       5.826   8.757  58.048  0.00  0.00    +0.000 A 
ATOM      8  C   UNL     1       6.046   8.025  56.794  0.00  0.00    +0.000 A 
ATOM      9  C   UNL     1       5.042  10.700  59.253  0.00  0.00    +0.000 A 
ATOM     10  C   UNL     1       7.007   6.233  58.109  0.00  0.00    +0.000 A 
ATOM     11  C   UNL     1       5.240  10.025  58.054  0.00  0.00    +0.000 A 
ENDROOT
BRANCH  10  12
ATOM     12  C   UNL     1       7.652   4.927  58.315  0.00  0.00    +0.000 A 
ATOM     13  C   UNL     1       9.014   4.769  58.035  0.00  0.00    +0.000 A 
ATOM     14  C   UNL     1       6.925   3.824  58.778  0.00  0.00    +0.000 A 
ATOM     15  C   UNL     1       9.635   3.534  58.232  0.00  0.00    +0.000 A 
ATOM     16  C   UNL     1       7.550   2.588  58.978  0.00  0.00    +0.000 A 
ATOM     17  C   UNL     1       8.911   2.439  58.710  0.00  0.00    +0.000 A 
BRANCH  17  18
ATOM     18  O   UNL     1       9.641   1.294  58.863  0.00  0.00    +0.000 OA
ATOM     19  C   UNL     1       9.236   0.168  58.095  0.00  0.00    +0.000 C 
ENDBRANCH  17  18
ENDBRANCH  10  12
BRANCH  11  20
ATOM     20  O   UNL     1       4.824  10.665  56.918  0.00  0.00    +0.000 OA
ATOM     21  H   UNL     1       5.264  11.543  56.880  0.00  0.00    +0.000 HD
ENDBRANCH  11  20
BRANCH   4  22
ATOM     22  C   UNL     1       6.464   8.183  61.775  0.00  0.00    +0.000 C 
BRANCH  22  23
ATOM     23  C   UNL     1       5.301   7.688  62.595  0.00  0.00    +0.000 C 
ATOM     24  C   UNL     1       4.734   6.465  62.602  0.00  0.00    +0.000 C 
ATOM     25  C   UNL     1       5.168   5.295  61.764  0.00  0.00    +0.000 C 
ATOM     26  C   UNL     1       3.567   6.173  63.508  0.00  0.00    +0.000 C 
ENDBRANCH  22  23
ENDBRANCH   4  22
BRANCH   5  27
ATOM     27  O   UNL     1       6.954   5.985  55.726  0.00  0.00    +0.000 OA
BRANCH  27  33
ATOM     28  O   UNL     1       5.795   3.926  55.546  0.00  0.00    +0.000 OA
ATOM     29  C   UNL     1       6.912   4.715  53.007  0.00  0.00    +0.000 C 
ATOM     30  C   UNL     1       6.891   3.251  53.461  0.00  0.00    +0.000 C 
ATOM     31  C   UNL     1       5.781   5.511  53.659  0.00  0.00    +0.000 C 
ATOM     32  C   UNL     1       6.890   3.183  54.994  0.00  0.00    +0.000 C 
ATOM     33  C   UNL     1       5.806   5.316  55.189  0.00  0.00    +0.000 C 
ATOM     34  C   UNL     1       6.763   1.746  55.489  0.00  0.00    +0.000 C 
BRANCH  29  35
ATOM     35  O   UNL     1       6.778   4.747  51.574  0.00  0.00    +0.000 OA
ATOM     36  H   UNL     1       6.100   5.433  51.400  0.00  0.00    +0.000 HD
ENDBRANCH  29  35
BRANCH  30  37
ATOM     37  O   UNL     1       8.032   2.581  52.913  0.00  0.00    +0.000 OA
ATOM     38  H   UNL     1       8.612   2.393  53.679  0.00  0.00    +0.000 HD
ENDBRANCH  30  37
BRANCH  31  39
ATOM     39  O   UNL     1       4.541   5.065  53.071  0.00  0.00    +0.000 OA
ATOM     40  H   UNL     1       3.873   5.052  53.782  0.00  0.00    +0.000 HD
ENDBRANCH  31  39
ENDBRANCH  27  33
ENDBRANCH   5  27
BRANCH   3  41
ATOM     41  O   UNL     1       5.223  10.767  61.641  0.00  0.00    +0.000 OA
BRANCH  41  47
ATOM     42  O   UNL     1       7.253  11.765  60.945  0.00  0.00    +0.000 OA
ATOM     43  C   UNL     1       7.926  12.394  63.648  0.00  0.00    +0.000 C 
ATOM     44  C   UNL     1       8.964  12.457  62.524  0.00  0.00    +0.000 C 
ATOM     45  C   UNL     1       6.803  11.419  63.303  0.00  0.00    +0.000 C 
ATOM     46  C   UNL     1       8.259  12.762  61.194  0.00  0.00    +0.000 C 
ATOM     47  C   UNL     1       6.215  11.775  61.925  0.00  0.00    +0.000 C 
BRANCH  44  48
ATOM     48  O   UNL     1       9.935  13.456  62.840  0.00  0.00    +0.000 OA
ATOM     49  H   UNL     1      10.710  12.961  63.179  0.00  0.00    +0.000 HD
ENDBRANCH  44  48
BRANCH  45  50
ATOM     50  O   UNL     1       5.813  11.478  64.343  0.00  0.00    +0.000 OA
ATOM     51  H   UNL     1       5.954  12.332  64.799  0.00  0.00    +0.000 HD
ENDBRANCH  45  50
BRANCH  43  52
ATOM     52  O   UNL     1       8.580  11.993  64.863  0.00  0.00    +0.000 OA
ATOM     53  H   UNL     1       9.536  12.094  64.684  0.00  0.00    +0.000 HD
ENDBRANCH  43  52
BRANCH  46  54
ATOM     54  C   UNL     1       9.253  12.752  60.026  0.00  0.00    +0.000 C 
BRANCH  54  55
ATOM     55  O   UNL     1      10.365  11.912  60.344  0.00  0.00    +0.000 OA
ATOM     56  H   UNL     1      10.593  12.085  61.273  0.00  0.00    +0.000 HD
ENDBRANCH  54  55
ENDBRANCH  46  54
ENDBRANCH  41  47
ENDBRANCH   3  41
TORSDOF 17
ENDMDL
MODEL 3
REMARK VINA RESULT:      -4.7     13.565     16.087
REMARK  Name = 
REMARK  21 active torsions:
REMARK  status: ('A' for Active; 'I' for Inactive)
REMARK    1  A    between atoms: O_3  and  C_22
REMARK    2  A    between atoms: O_3  and  C_28
REMARK    3  A    between atoms: O_4  and  C_25
REMARK    4  A    between atoms: O_4  and  C_30
REMARK    5  A    between atoms: O_5  and  C_16
REMARK    6  A    between atoms: O_6  and  C_17
REMARK    7  A    between atoms: O_7  and  C_18
REMARK    8  A    between atoms: O_8  and  C_20
REMARK    9  A    between atoms: O_9  and  C_21
REMARK   10  A    between atoms: O_10  and  C_23
REMARK   11  A    between atoms: O_11  and  C_26
REMARK   12  A    between atoms: O_13  and  C_36
REMARK   13  A    between atoms: O_15  and  C_45
REMARK   14  A    between atoms: O_15  and  C_48
REMARK   15  A    between atoms: C_19  and  C_26
REMARK   16  A    between atoms: C_24  and  C_27
REMARK   17  A    between atoms: C_29  and  C_37
REMARK   18  A    between atoms: C_35  and  C_38
REMARK   19  A    between atoms: C_37  and  C_39
REMARK   20  A    between atoms: C_42  and  C_46
REMARK   21  A    between atoms: C_42  and  C_47
REMARK                            x       y       z     vdW  Elec       q    Type
REMARK                         _______ _______ _______ _____ _____    ______ ____
ROOT
ATOM      1  O   UNL     1      17.367  -0.720  54.993  0.00  0.00    +0.000 OA
ATOM      2  O   UNL     1      20.188   1.974  53.869  0.00  0.00    +0.000 OA
ATOM      3  C   UNL     1      19.667  -1.061  57.818  0.00  0.00    +0.000 A 
ATOM      4  C   UNL     1      18.551  -1.259  56.986  0.00  0.00    +0.000 A 
ATOM      5  C   UNL     1      18.146   0.872  53.350  0.00  0.00    +0.000 A 
ATOM      6  C   UNL     1      18.466  -0.513  55.793  0.00  0.00    +0.000 A 
ATOM      7  C   UNL     1      19.461   0.404  55.453  0.00  0.00    +0.000 A 
ATOM      8  C   UNL     1      19.336   1.150  54.195  0.00  0.00    +0.000 A 
ATOM      9  C   UNL     1      20.643  -0.112  57.497  0.00  0.00    +0.000 A 
ATOM     10  C   UNL     1      17.274  -0.054  53.786  0.00  0.00    +0.000 A 
ATOM     11  C   UNL     1      20.545   0.606  56.311  0.00  0.00    +0.000 A 
ENDROOT
BRANCH  10  12
ATOM     12  C   UNL     1      16.075  -0.424  53.020  0.00  0.00    +0.000 A 
ATOM     13  C   UNL     1      16.195  -1.226  51.879  0.00  0.00    +0.000 A 
ATOM     14  C   UNL     1      14.803   0.023  53.401  0.00  0.00    +0.000 A 
ATOM     15  C   UNL     1      15.061  -1.586  51.148  0.00  0.00    +0.000 A 
ATOM     16  C   UNL     1      13.668  -0.342  52.668  0.00  0.00    +0.000 A 
ATOM     17  C   UNL     1      13.792  -1.153  51.540  0.00  0.00    +0.000 A 
BRANCH  17  18
ATOM     18  O   UNL     1      12.770  -1.582  50.741  0.00  0.00    +0.000 OA
ATOM     19  C   UNL     1      12.458  -0.778  49.610  0.00  0.00    +0.000 C 
ENDBRANCH  17  18
ENDBRANCH  10  12
BRANCH  11  20
ATOM     20  O   UNL     1      21.547   1.502  56.056  0.00  0.00    +0.000 OA
ATOM     21  H   UNL     1      21.146   2.395  55.958  0.00  0.00    +0.000 HD
ENDBRANCH  11  20
BRANCH   4  22
ATOM     22  C   UNL     1      17.479  -2.275  57.331  0.00  0.00    +0.000 C 
BRANCH  22  23
ATOM     23  C   UNL     1      16.359  -1.674  58.140  0.00  0.00    +0.000 C 
ATOM     24  C   UNL     1      15.058  -1.541  57.812  0.00  0.00    +0.000 C 
ATOM     25  C   UNL     1      14.432  -1.988  56.520  0.00  0.00    +0.000 C 
ATOM     26  C   UNL     1      14.091  -0.906  58.776  0.00  0.00    +0.000 C 
ENDBRANCH  22  23
ENDBRANCH   4  22
BRANCH   5  27
ATOM     27  O   UNL     1      18.022   1.506  52.127  0.00  0.00    +0.000 OA
BRANCH  27  33
ATOM     28  O   UNL     1      16.047   2.760  51.752  0.00  0.00    +0.000 OA
ATOM     29  C   UNL     1      18.155   3.580  49.963  0.00  0.00    +0.000 C 
ATOM     30  C   UNL     1      16.693   3.500  49.507  0.00  0.00    +0.000 C 
ATOM     31  C   UNL     1      18.251   3.827  51.468  0.00  0.00    +0.000 C 
ATOM     32  C   UNL     1      15.942   2.464  50.352  0.00  0.00    +0.000 C 
ATOM     33  C   UNL     1      17.399   2.792  52.233  0.00  0.00    +0.000 C 
ATOM     34  C   UNL     1      14.458   2.428  50.003  0.00  0.00    +0.000 C 
BRANCH  29  35
ATOM     35  O   UNL     1      18.796   4.650  49.243  0.00  0.00    +0.000 OA
ATOM     36  H   UNL     1      18.069   5.264  49.007  0.00  0.00    +0.000 HD
ENDBRANCH  29  35
BRANCH  30  37
ATOM     37  O   UNL     1      16.661   3.156  48.116  0.00  0.00    +0.000 OA
ATOM     38  H   UNL     1      16.560   2.183  48.095  0.00  0.00    +0.000 HD
ENDBRANCH  30  37
BRANCH  31  39
ATOM     39  O   UNL     1      17.818   5.181  51.715  0.00  0.00    +0.000 OA
ATOM     40  H   UNL     1      18.198   5.738  51.010  0.00  0.00    +0.000 HD
ENDBRANCH  31  39
ENDBRANCH  27  33
ENDBRANCH   5  27
BRANCH   3  41
ATOM     41  O   UNL     1      19.743  -1.737  59.009  0.00  0.00    +0.000 OA
BRANCH  41  47
ATOM     42  O   UNL     1      20.006   0.058  60.529  0.00  0.00    +0.000 OA
ATOM     43  C   UNL     1      18.418  -1.297  62.479  0.00  0.00    +0.000 C 
ATOM     44  C   UNL     1      19.285  -0.089  62.843  0.00  0.00    +0.000 C 
ATOM     45  C   UNL     1      18.968  -2.013  61.247  0.00  0.00    +0.000 C 
ATOM     46  C   UNL     1      19.444   0.816  61.614  0.00  0.00    +0.000 C 
ATOM     47  C   UNL     1      19.151  -1.002  60.100  0.00  0.00    +0.000 C 
BRANCH  44  48
ATOM     48  O   UNL     1      18.677   0.611  63.931  0.00  0.00    +0.000 OA
ATOM     49  H   UNL     1      18.084   1.269  63.513  0.00  0.00    +0.000 HD
ENDBRANCH  44  48
BRANCH  45  50
ATOM     50  O   UNL     1      18.062  -3.071  60.893  0.00  0.00    +0.000 OA
ATOM     51  H   UNL     1      18.595  -3.728  60.403  0.00  0.00    +0.000 HD
ENDBRANCH  45  50
BRANCH  43  52
ATOM     52  O   UNL     1      18.374  -2.194  63.600  0.00  0.00    +0.000 OA
ATOM     53  H   UNL     1      18.230  -1.621  64.380  0.00  0.00    +0.000 HD
ENDBRANCH  43  52
BRANCH  46  54
ATOM     54  C   UNL     1      20.376   1.998  61.913  0.00  0.00    +0.000 C 
BRANCH  54  55
ATOM     55  O   UNL     1      20.150   3.044  60.964  0.00  0.00    +0.000 OA
ATOM     56  H   UNL     1      19.259   2.907  60.601  0.00  0.00    +0.000 HD
ENDBRANCH  54  55
ENDBRANCH  46  54
ENDBRANCH  41  47
ENDBRANCH   3  41
TORSDOF 17
ENDMDL
MODEL 4
REMARK VINA RESULT:      -4.6      2.812     11.160
REMARK  Name = 
REMARK  21 active torsions:
REMARK  status: ('A' for Active; 'I' for Inactive)
REMARK    1  A    between atoms: O_3  and  C_22
REMARK    2  A    between atoms: O_3  and  C_28
REMARK    3  A    between atoms: O_4  and  C_25
REMARK    4  A    between atoms: O_4  and  C_30
REMARK    5  A    between atoms: O_5  and  C_16
REMARK    6  A    between atoms: O_6  and  C_17
REMARK    7  A    between atoms: O_7  and  C_18
REMARK    8  A    between atoms: O_8  and  C_20
REMARK    9  A    between atoms: O_9  and  C_21
REMARK   10  A    between atoms: O_10  and  C_23
REMARK   11  A    between atoms: O_11  and  C_26
REMARK   12  A    between atoms: O_13  and  C_36
REMARK   13  A    between atoms: O_15  and  C_45
REMARK   14  A    between atoms: O_15  and  C_48
REMARK   15  A    between atoms: C_19  and  C_26
REMARK   16  A    between atoms: C_24  and  C_27
REMARK   17  A    between atoms: C_29  and  C_37
REMARK   18  A    between atoms: C_35  and  C_38
REMARK   19  A    between atoms: C_37  and  C_39
REMARK   20  A    between atoms: C_42  and  C_46
REMARK   21  A    between atoms: C_42  and  C_47
REMARK                            x       y       z     vdW  Elec       q    Type
REMARK                         _______ _______ _______ _____ _____    ______ ____
ROOT
ATOM      1  O   UNL     1      15.018  12.012  59.375  0.00  0.00    +0.000 OA
ATOM      2  O   UNL     1      14.887  12.798  55.393  0.00  0.00    +0.000 OA
ATOM      3  C   UNL     1      11.625  13.362  59.151  0.00  0.00    +0.000 A 
ATOM      4  C   UNL     1      12.798  12.808  59.694  0.00  0.00    +0.000 A 
ATOM      5  C   UNL     1      16.158  12.011  57.243  0.00  0.00    +0.000 A 
ATOM      6  C   UNL     1      13.880  12.555  58.826  0.00  0.00    +0.000 A 
ATOM      7  C   UNL     1      13.783  12.839  57.464  0.00  0.00    +0.000 A 
ATOM      8  C   UNL     1      14.941  12.570  56.601  0.00  0.00    +0.000 A 
ATOM      9  C   UNL     1      11.514  13.608  57.779  0.00  0.00    +0.000 A 
ATOM     10  C   UNL     1      16.123  11.804  58.571  0.00  0.00    +0.000 A 
ATOM     11  C   UNL     1      12.597  13.361  56.943  0.00  0.00    +0.000 A 
ENDROOT
BRANCH  10  12
ATOM     12  C   UNL     1      17.278  11.276  59.313  0.00  0.00    +0.000 A 
ATOM     13  C   UNL     1      17.236   9.981  59.841  0.00  0.00    +0.000 A 
ATOM     14  C   UNL     1      18.427  12.052  59.515  0.00  0.00    +0.000 A 
ATOM     15  C   UNL     1      18.330   9.471  60.543  0.00  0.00    +0.000 A 
ATOM     16  C   UNL     1      19.523  11.537  60.216  0.00  0.00    +0.000 A 
ATOM     17  C   UNL     1      19.481  10.240  60.728  0.00  0.00    +0.000 A 
BRANCH  17  18
ATOM     18  O   UNL     1      20.478   9.618  61.426  0.00  0.00    +0.000 OA
ATOM     19  C   UNL     1      20.152   8.382  62.048  0.00  0.00    +0.000 C 
ENDBRANCH  17  18
ENDBRANCH  10  12
BRANCH  11  20
ATOM     20  O   UNL     1      12.420  13.644  55.616  0.00  0.00    +0.000 OA
ATOM     21  H   UNL     1      11.659  13.117  55.286  0.00  0.00    +0.000 HD
ENDBRANCH  11  20
BRANCH   4  22
ATOM     22  C   UNL     1      12.924  12.522  61.178  0.00  0.00    +0.000 C 
BRANCH  22  23
ATOM     23  C   UNL     1      13.403  13.721  61.954  0.00  0.00    +0.000 C 
ATOM     24  C   UNL     1      14.625  13.958  62.470  0.00  0.00    +0.000 C 
ATOM     25  C   UNL     1      15.812  13.041  62.368  0.00  0.00    +0.000 C 
ATOM     26  C   UNL     1      14.900  15.236  63.219  0.00  0.00    +0.000 C 
ENDBRANCH  22  23
ENDBRANCH   4  22
BRANCH   5  27
ATOM     27  O   UNL     1      17.291  11.802  56.478  0.00  0.00    +0.000 OA
BRANCH  27  33
ATOM     28  O   UNL     1      17.939   9.524  56.422  0.00  0.00    +0.000 OA
ATOM     29  C   UNL     1      19.321  11.047  54.402  0.00  0.00    +0.000 C 
ATOM     30  C   UNL     1      20.016   9.927  55.186  0.00  0.00    +0.000 C 
ATOM     31  C   UNL     1      17.812  10.815  54.327  0.00  0.00    +0.000 C 
ATOM     32  C   UNL     1      19.347   9.763  56.556  0.00  0.00    +0.000 C 
ATOM     33  C   UNL     1      17.240  10.575  55.740  0.00  0.00    +0.000 C 
ATOM     34  C   UNL     1      19.938   8.588  57.329  0.00  0.00    +0.000 C 
BRANCH  29  35
ATOM     35  O   UNL     1      19.883  11.087  53.076  0.00  0.00    +0.000 OA
ATOM     36  H   UNL     1      20.394  11.923  53.045  0.00  0.00    +0.000 HD
ENDBRANCH  29  35
BRANCH  30  37
ATOM     37  O   UNL     1      21.404  10.251  55.322  0.00  0.00    +0.000 OA
ATOM     38  H   UNL     1      21.842   9.409  55.561  0.00  0.00    +0.000 HD
ENDBRANCH  30  37
BRANCH  31  39
ATOM     39  O   UNL     1      17.589   9.692  53.448  0.00  0.00    +0.000 OA
ATOM     40  H   UNL     1      16.661   9.739  53.151  0.00  0.00    +0.000 HD
ENDBRANCH  31  39
ENDBRANCH  27  33
ENDBRANCH   5  27
BRANCH   3  41
ATOM     41  O   UNL     1      10.541  13.566  59.967  0.00  0.00    +0.000 OA
BRANCH  41  47
ATOM     42  O   UNL     1       8.320  13.645  59.156  0.00  0.00    +0.000 OA
ATOM     43  C   UNL     1       7.697  11.192  60.481  0.00  0.00    +0.000 C 
ATOM     44  C   UNL     1       6.603  12.111  59.929  0.00  0.00    +0.000 C 
ATOM     45  C   UNL     1       8.965  11.981  60.799  0.00  0.00    +0.000 C 
ATOM     46  C   UNL     1       7.156  12.909  58.740  0.00  0.00    +0.000 C 
ATOM     47  C   UNL     1       9.391  12.795  59.562  0.00  0.00    +0.000 C 
BRANCH  44  48
ATOM     48  O   UNL     1       5.477  11.318  59.547  0.00  0.00    +0.000 OA
ATOM     49  H   UNL     1       5.491  10.546  60.150  0.00  0.00    +0.000 HD
ENDBRANCH  44  48
BRANCH  45  50
ATOM     50  O   UNL     1       9.984  11.057  61.214  0.00  0.00    +0.000 OA
ATOM     51  H   UNL     1       9.515  10.236  61.464  0.00  0.00    +0.000 HD
ENDBRANCH  45  50
BRANCH  43  52
ATOM     52  O   UNL     1       7.205  10.540  61.663  0.00  0.00    +0.000 OA
ATOM     53  H   UNL     1       7.204   9.586  61.445  0.00  0.00    +0.000 HD
ENDBRANCH  43  52
BRANCH  46  54
ATOM     54  C   UNL     1       6.116  13.904  58.208  0.00  0.00    +0.000 C 
BRANCH  54  55
ATOM     55  O   UNL     1       5.145  14.175  59.222  0.00  0.00    +0.000 OA
ATOM     56  H   UNL     1       4.272  14.023  58.824  0.00  0.00    +0.000 HD
ENDBRANCH  54  55
ENDBRANCH  46  54
ENDBRANCH  41  47
ENDBRANCH   3  41
TORSDOF 17
ENDMDL
MODEL 5
REMARK VINA RESULT:      -4.6     11.470     16.089
REMARK  Name = 
REMARK  21 active torsions:
REMARK  status: ('A' for Active; 'I' for Inactive)
REMARK    1  A    between atoms: O_3  and  C_22
REMARK    2  A    between atoms: O_3  and  C_28
REMARK    3  A    between atoms: O_4  and  C_25
REMARK    4  A    between atoms: O_4  and  C_30
REMARK    5  A    between atoms: O_5  and  C_16
REMARK    6  A    between atoms: O_6  and  C_17
REMARK    7  A    between atoms: O_7  and  C_18
REMARK    8  A    between atoms: O_8  and  C_20
REMARK    9  A    between atoms: O_9  and  C_21
REMARK   10  A    between atoms: O_10  and  C_23
REMARK   11  A    between atoms: O_11  and  C_26
REMARK   12  A    between atoms: O_13  and  C_36
REMARK   13  A    between atoms: O_15  and  C_45
REMARK   14  A    between atoms: O_15  and  C_48
REMARK   15  A    between atoms: C_19  and  C_26
REMARK   16  A    between atoms: C_24  and  C_27
REMARK   17  A    between atoms: C_29  and  C_37
REMARK   18  A    between atoms: C_35  and  C_38
REMARK   19  A    between atoms: C_37  and  C_39
REMARK   20  A    between atoms: C_42  and  C_46
REMARK   21  A    between atoms: C_42  and  C_47
REMARK                            x       y       z     vdW  Elec       q    Type
REMARK                         _______ _______ _______ _____ _____    ______ ____
ROOT
ATOM      1  O   UNL     1      14.757   3.701  71.961  0.00  0.00    +0.000 OA
ATOM      2  O   UNL     1      14.059   7.669  72.468  0.00  0.00    +0.000 OA
ATOM      3  C   UNL     1      12.571   3.546  74.891  0.00  0.00    +0.000 A 
ATOM      4  C   UNL     1      13.398   3.134  73.831  0.00  0.00    +0.000 A 
ATOM      5  C   UNL     1      15.172   5.969  71.234  0.00  0.00    +0.000 A 
ATOM      6  C   UNL     1      13.952   4.123  72.993  0.00  0.00    +0.000 A 
ATOM      7  C   UNL     1      13.678   5.474  73.207  0.00  0.00    +0.000 A 
ATOM      8  C   UNL     1      14.287   6.470  72.316  0.00  0.00    +0.000 A 
ATOM      9  C   UNL     1      12.264   4.897  75.080  0.00  0.00    +0.000 A 
ATOM     10  C   UNL     1      15.368   4.641  71.153  0.00  0.00    +0.000 A 
ATOM     11  C   UNL     1      12.829   5.857  74.248  0.00  0.00    +0.000 A 
ENDROOT
BRANCH  10  12
ATOM     12  C   UNL     1      16.242   4.038  70.135  0.00  0.00    +0.000 A 
ATOM     13  C   UNL     1      17.632   4.118  70.273  0.00  0.00    +0.000 A 
ATOM     14  C   UNL     1      15.710   3.389  69.014  0.00  0.00    +0.000 A 
ATOM     15  C   UNL     1      18.470   3.544  69.314  0.00  0.00    +0.000 A 
ATOM     16  C   UNL     1      16.551   2.813  68.055  0.00  0.00    +0.000 A 
ATOM     17  C   UNL     1      17.936   2.883  68.205  0.00  0.00    +0.000 A 
BRANCH  17  18
ATOM     18  O   UNL     1      18.865   2.363  67.348  0.00  0.00    +0.000 OA
ATOM     19  C   UNL     1      18.914   2.918  66.040  0.00  0.00    +0.000 C 
ENDBRANCH  17  18
ENDBRANCH  10  12
BRANCH  11  20
ATOM     20  O   UNL     1      12.497   7.159  74.507  0.00  0.00    +0.000 OA
ATOM     21  H   UNL     1      11.878   7.465  73.807  0.00  0.00    +0.000 HD
ENDBRANCH  11  20
BRANCH   4  22
ATOM     22  C   UNL     1      13.726   1.670  73.606  0.00  0.00    +0.000 C 
BRANCH  22  23
ATOM     23  C   UNL     1      12.673   0.965  72.792  0.00  0.00    +0.000 C 
ATOM     24  C   UNL     1      12.759   0.490  71.533  0.00  0.00    +0.000 C 
ATOM     25  C   UNL     1      13.974   0.563  70.651  0.00  0.00    +0.000 C 
ATOM     26  C   UNL     1      11.577  -0.193  70.896  0.00  0.00    +0.000 C 
ENDBRANCH  22  23
ENDBRANCH   4  22
BRANCH   5  27
ATOM     27  O   UNL     1      15.816   6.876  70.412  0.00  0.00    +0.000 OA
BRANCH  27  33
ATOM     28  O   UNL     1      16.309   6.778  68.096  0.00  0.00    +0.000 OA
ATOM     29  C   UNL     1      15.390   9.404  68.854  0.00  0.00    +0.000 C 
ATOM     30  C   UNL     1      16.507   9.205  67.822  0.00  0.00    +0.000 C 
ATOM     31  C   UNL     1      14.457   8.194  68.898  0.00  0.00    +0.000 C 
ATOM     32  C   UNL     1      17.229   7.878  68.090  0.00  0.00    +0.000 C 
ATOM     33  C   UNL     1      15.276   6.898  69.085  0.00  0.00    +0.000 C 
ATOM     34  C   UNL     1      18.280   7.589  67.023  0.00  0.00    +0.000 C 
BRANCH  29  35
ATOM     35  O   UNL     1      14.650  10.587  68.496  0.00  0.00    +0.000 OA
ATOM     36  H   UNL     1      15.071  11.310  69.007  0.00  0.00    +0.000 HD
ENDBRANCH  29  35
BRANCH  30  37
ATOM     37  O   UNL     1      17.412  10.312  67.901  0.00  0.00    +0.000 OA
ATOM     38  H   UNL     1      17.643  10.521  66.974  0.00  0.00    +0.000 HD
ENDBRANCH  30  37
BRANCH  31  39
ATOM     39  O   UNL     1      13.695   8.187  67.673  0.00  0.00    +0.000 OA
ATOM     40  H   UNL     1      13.449   7.261  67.492  0.00  0.00    +0.000 HD
ENDBRANCH  31  39
ENDBRANCH  27  33
ENDBRANCH   5  27
BRANCH   3  41
ATOM     41  O   UNL     1      11.978   2.597  75.686  0.00  0.00    +0.000 OA
BRANCH  41  47
ATOM     42  O   UNL     1      10.255   3.653  76.916  0.00  0.00    +0.000 OA
ATOM     43  C   UNL     1       8.446   1.530  76.298  0.00  0.00    +0.000 C 
ATOM     44  C   UNL     1       8.146   2.550  77.400  0.00  0.00    +0.000 C 
ATOM     45  C   UNL     1       9.951   1.402  76.066  0.00  0.00    +0.000 C 
ATOM     46  C   UNL     1       8.843   3.878  77.073  0.00  0.00    +0.000 C 
ATOM     47  C   UNL     1      10.555   2.796  75.815  0.00  0.00    +0.000 C 
BRANCH  44  48
ATOM     48  O   UNL     1       6.731   2.716  77.510  0.00  0.00    +0.000 OA
ATOM     49  H   UNL     1       6.390   1.835  77.771  0.00  0.00    +0.000 HD
ENDBRANCH  44  48
BRANCH  45  50
ATOM     50  O   UNL     1      10.166   0.513  74.958  0.00  0.00    +0.000 OA
ATOM     51  H   UNL     1       9.307   0.074  74.795  0.00  0.00    +0.000 HD
ENDBRANCH  45  50
BRANCH  43  52
ATOM     52  O   UNL     1       7.889   0.260  76.674  0.00  0.00    +0.000 OA
ATOM     53  H   UNL     1       7.554   0.388  77.584  0.00  0.00    +0.000 HD
ENDBRANCH  43  52
BRANCH  46  54
ATOM     54  C   UNL     1       8.636   4.904  78.195  0.00  0.00    +0.000 C 
BRANCH  54  55
ATOM     55  O   UNL     1       7.364   5.538  78.041  0.00  0.00    +0.000 OA
ATOM     56  H   UNL     1       6.688   4.854  78.186  0.00  0.00    +0.000 HD
ENDBRANCH  54  55
ENDBRANCH  46  54
ENDBRANCH  41  47
ENDBRANCH   3  41
TORSDOF 17
ENDMDL
MODEL 6
REMARK VINA RESULT:      -4.4      8.511     13.593
REMARK  Name = 
REMARK  21 active torsions:
REMARK  status: ('A' for Active; 'I' for Inactive)
REMARK    1  A    between atoms: O_3  and  C_22
REMARK    2  A    between atoms: O_3  and  C_28
REMARK    3  A    between atoms: O_4  and  C_25
REMARK    4  A    between atoms: O_4  and  C_30
REMARK    5  A    between atoms: O_5  and  C_16
REMARK    6  A    between atoms: O_6  and  C_17
REMARK    7  A    between atoms: O_7  and  C_18
REMARK    8  A    between atoms: O_8  and  C_20
REMARK    9  A    between atoms: O_9  and  C_21
REMARK   10  A    between atoms: O_10  and  C_23
REMARK   11  A    between atoms: O_11  and  C_26
REMARK   12  A    between atoms: O_13  and  C_36
REMARK   13  A    between atoms: O_15  and  C_45
REMARK   14  A    between atoms: O_15  and  C_48
REMARK   15  A    between atoms: C_19  and  C_26
REMARK   16  A    between atoms: C_24  and  C_27
REMARK   17  A    between atoms: C_29  and  C_37
REMARK   18  A    between atoms: C_35  and  C_38
REMARK   19  A    between atoms: C_37  and  C_39
REMARK   20  A    between atoms: C_42  and  C_46
REMARK   21  A    between atoms: C_42  and  C_47
REMARK                            x       y       z     vdW  Elec       q    Type
REMARK                         _______ _______ _______ _____ _____    ______ ____
ROOT
ATOM      1  O   UNL     1       2.546   6.123  64.213  0.00  0.00    +0.000 OA
ATOM      2  O   UNL     1       5.359   4.811  61.596  0.00  0.00    +0.000 OA
ATOM      3  C   UNL     1       2.474   2.553  65.011  0.00  0.00    +0.000 A 
ATOM      4  C   UNL     1       2.170   3.926  65.046  0.00  0.00    +0.000 A 
ATOM      5  C   UNL     1       4.110   6.647  62.446  0.00  0.00    +0.000 A 
ATOM      6  C   UNL     1       2.856   4.785  64.164  0.00  0.00    +0.000 A 
ATOM      7  C   UNL     1       3.817   4.285  63.286  0.00  0.00    +0.000 A 
ATOM      8  C   UNL     1       4.498   5.216  62.376  0.00  0.00    +0.000 A 
ATOM      9  C   UNL     1       3.467   2.059  64.160  0.00  0.00    +0.000 A 
ATOM     10  C   UNL     1       3.152   6.991  63.325  0.00  0.00    +0.000 A 
ATOM     11  C   UNL     1       4.124   2.922  63.290  0.00  0.00    +0.000 A 
ENDROOT
BRANCH  10  12
ATOM     12  C   UNL     1       2.674   8.376  63.462  0.00  0.00    +0.000 A 
ATOM     13  C   UNL     1       2.779   9.032  64.693  0.00  0.00    +0.000 A 
ATOM     14  C   UNL     1       2.099   9.055  62.380  0.00  0.00    +0.000 A 
ATOM     15  C   UNL     1       2.332  10.348  64.830  0.00  0.00    +0.000 A 
ATOM     16  C   UNL     1       1.655  10.375  62.519  0.00  0.00    +0.000 A 
ATOM     17  C   UNL     1       1.775  11.029  63.746  0.00  0.00    +0.000 A 
BRANCH  17  18
ATOM     18  O   UNL     1       1.385  12.311  64.015  0.00  0.00    +0.000 OA
ATOM     19  C   UNL     1       0.175  12.754  63.412  0.00  0.00    +0.000 C 
ENDBRANCH  17  18
ENDBRANCH  10  12
BRANCH  11  20
ATOM     20  O   UNL     1       5.069   2.362  62.474  0.00  0.00    +0.000 OA
ATOM     21  H   UNL     1       4.878   2.634  61.549  0.00  0.00    +0.000 HD
ENDBRANCH  11  20
BRANCH   4  22
ATOM     22  C   UNL     1       1.106   4.477  65.976  0.00  0.00    +0.000 C 
BRANCH  22  23
ATOM     23  C   UNL     1       1.688   5.339  67.066  0.00  0.00    +0.000 C 
ATOM     24  C   UNL     1       1.356   6.599  67.412  0.00  0.00    +0.000 C 
ATOM     25  C   UNL     1       0.292   7.435  66.757  0.00  0.00    +0.000 C 
ATOM     26  C   UNL     1       2.067   7.288  68.547  0.00  0.00    +0.000 C 
ENDBRANCH  22  23
ENDBRANCH   4  22
BRANCH   5  27
ATOM     27  O   UNL     1       4.680   7.547  61.564  0.00  0.00    +0.000 OA
BRANCH  27  33
ATOM     28  O   UNL     1       6.161   8.829  62.897  0.00  0.00    +0.000 OA
ATOM     29  C   UNL     1       6.291   9.634  60.131  0.00  0.00    +0.000 C 
ATOM     30  C   UNL     1       6.378  10.652  61.274  0.00  0.00    +0.000 C 
ATOM     31  C   UNL     1       6.779   8.256  60.580  0.00  0.00    +0.000 C 
ATOM     32  C   UNL     1       5.646  10.110  62.508  0.00  0.00    +0.000 C 
ATOM     33  C   UNL     1       6.050   7.830  61.873  0.00  0.00    +0.000 C 
ATOM     34  C   UNL     1       5.797  11.045  63.703  0.00  0.00    +0.000 C 
BRANCH  29  35
ATOM     35  O   UNL     1       7.097  10.112  59.037  0.00  0.00    +0.000 OA
ATOM     36  H   UNL     1       7.081  11.088  59.122  0.00  0.00    +0.000 HD
ENDBRANCH  29  35
BRANCH  30  37
ATOM     37  O   UNL     1       5.807  11.890  60.835  0.00  0.00    +0.000 OA
ATOM     38  H   UNL     1       6.297  12.124  60.021  0.00  0.00    +0.000 HD
ENDBRANCH  30  37
BRANCH  31  39
ATOM     39  O   UNL     1       8.208   8.338  60.760  0.00  0.00    +0.000 OA
ATOM     40  H   UNL     1       8.457   9.277  60.665  0.00  0.00    +0.000 HD
ENDBRANCH  31  39
ENDBRANCH  27  33
ENDBRANCH   5  27
BRANCH   3  41
ATOM     41  O   UNL     1       1.857   1.708  65.898  0.00  0.00    +0.000 OA
BRANCH  41  47
ATOM     42  O   UNL     1       2.578  -0.538  66.086  0.00  0.00    +0.000 OA
ATOM     43  C   UNL     1       3.388  -0.103  68.790  0.00  0.00    +0.000 C 
ATOM     44  C   UNL     1       3.241  -1.512  68.210  0.00  0.00    +0.000 C 
ATOM     45  C   UNL     1       2.501   0.892  68.044  0.00  0.00    +0.000 C 
ATOM     46  C   UNL     1       3.488  -1.470  66.696  0.00  0.00    +0.000 C 
ATOM     47  C   UNL     1       2.784   0.802  66.532  0.00  0.00    +0.000 C 
BRANCH  44  48
ATOM     48  O   UNL     1       4.163  -2.385  68.865  0.00  0.00    +0.000 OA
ATOM     49  H   UNL     1       3.718  -3.258  68.887  0.00  0.00    +0.000 HD
ENDBRANCH  44  48
BRANCH  45  50
ATOM     50  O   UNL     1       2.756   2.208  68.562  0.00  0.00    +0.000 OA
ATOM     51  H   UNL     1       2.842   2.791  67.782  0.00  0.00    +0.000 HD
ENDBRANCH  45  50
BRANCH  43  52
ATOM     52  O   UNL     1       3.039  -0.134  70.184  0.00  0.00    +0.000 OA
ATOM     53  H   UNL     1       2.738   0.774  70.391  0.00  0.00    +0.000 HD
ENDBRANCH  43  52
BRANCH  46  54
ATOM     54  C   UNL     1       3.269  -2.849  66.060  0.00  0.00    +0.000 C 
BRANCH  54  55
ATOM     55  O   UNL     1       2.397  -3.627  66.883  0.00  0.00    +0.000 OA
ATOM     56  H   UNL     1       2.199  -3.092  67.669  0.00  0.00    +0.000 HD
ENDBRANCH  54  55
ENDBRANCH  46  54
ENDBRANCH  41  47
ENDBRANCH   3  41
TORSDOF 17
ENDMDL
MODEL 7
REMARK VINA RESULT:      -4.4      6.759     10.768
REMARK  Name = 
REMARK  21 active torsions:
REMARK  status: ('A' for Active; 'I' for Inactive)
REMARK    1  A    between atoms: O_3  and  C_22
REMARK    2  A    between atoms: O_3  and  C_28
REMARK    3  A    between atoms: O_4  and  C_25
REMARK    4  A    between atoms: O_4  and  C_30
REMARK    5  A    between atoms: O_5  and  C_16
REMARK    6  A    between atoms: O_6  and  C_17
REMARK    7  A    between atoms: O_7  and  C_18
REMARK    8  A    between atoms: O_8  and  C_20
REMARK    9  A    between atoms: O_9  and  C_21
REMARK   10  A    between atoms: O_10  and  C_23
REMARK   11  A    between atoms: O_11  and  C_26
REMARK   12  A    between atoms: O_13  and  C_36
REMARK   13  A    between atoms: O_15  and  C_45
REMARK   14  A    between atoms: O_15  and  C_48
REMARK   15  A    between atoms: C_19  and  C_26
REMARK   16  A    between atoms: C_24  and  C_27
REMARK   17  A    between atoms: C_29  and  C_37
REMARK   18  A    between atoms: C_35  and  C_38
REMARK   19  A    between atoms: C_37  and  C_39
REMARK   20  A    between atoms: C_42  and  C_46
REMARK   21  A    between atoms: C_42  and  C_47
REMARK                            x       y       z     vdW  Elec       q    Type
REMARK                         _______ _______ _______ _____ _____    ______ ____
ROOT
ATOM      1  O   UNL     1       5.848   5.250  59.973  0.00  0.00    +0.000 OA
ATOM      2  O   UNL     1       4.205   6.253  63.548  0.00  0.00    +0.000 OA
ATOM      3  C   UNL     1       7.045   8.699  60.226  0.00  0.00    +0.000 A 
ATOM      4  C   UNL     1       6.830   7.403  59.722  0.00  0.00    +0.000 A 
ATOM      5  C   UNL     1       4.477   4.604  61.856  0.00  0.00    +0.000 A 
ATOM      6  C   UNL     1       6.046   6.512  60.482  0.00  0.00    +0.000 A 
ATOM      7  C   UNL     1       5.507   6.904  61.707  0.00  0.00    +0.000 A 
ATOM      8  C   UNL     1       4.687   5.945  62.459  0.00  0.00    +0.000 A 
ATOM      9  C   UNL     1       6.538   9.078  61.473  0.00  0.00    +0.000 A 
ATOM     10  C   UNL     1       5.038   4.365  60.658  0.00  0.00    +0.000 A 
ATOM     11  C   UNL     1       5.760   8.186  62.202  0.00  0.00    +0.000 A 
ENDROOT
BRANCH  10  12
ATOM     12  C   UNL     1       4.875   3.081  59.959  0.00  0.00    +0.000 A 
ATOM     13  C   UNL     1       3.659   2.772  59.339  0.00  0.00    +0.000 A 
ATOM     14  C   UNL     1       5.916   2.145  59.910  0.00  0.00    +0.000 A 
ATOM     15  C   UNL     1       3.498   1.557  58.670  0.00  0.00    +0.000 A 
ATOM     16  C   UNL     1       5.753   0.929  59.236  0.00  0.00    +0.000 A 
ATOM     17  C   UNL     1       4.544   0.632  58.608  0.00  0.00    +0.000 A 
BRANCH  17  18
ATOM     18  O   UNL     1       4.255  -0.511  57.917  0.00  0.00    +0.000 OA
ATOM     19  C   UNL     1       2.885  -0.886  57.839  0.00  0.00    +0.000 C 
ENDBRANCH  17  18
ENDBRANCH  10  12
BRANCH  11  20
ATOM     20  O   UNL     1       5.283   8.634  63.404  0.00  0.00    +0.000 OA
ATOM     21  H   UNL     1       4.774   9.461  63.246  0.00  0.00    +0.000 HD
ENDBRANCH  11  20
BRANCH   4  22
ATOM     22  C   UNL     1       7.387   6.976  58.377  0.00  0.00    +0.000 C 
BRANCH  22  23
ATOM     23  C   UNL     1       8.630   6.135  58.513  0.00  0.00    +0.000 C 
ATOM     24  C   UNL     1       8.833   4.862  58.118  0.00  0.00    +0.000 C 
ATOM     25  C   UNL     1       7.823   3.987  57.429  0.00  0.00    +0.000 C 
ATOM     26  C   UNL     1      10.166   4.198  58.349  0.00  0.00    +0.000 C 
ENDBRANCH  22  23
ENDBRANCH   4  22
BRANCH   5  27
ATOM     27  O   UNL     1       3.659   3.693  62.500  0.00  0.00    +0.000 OA
BRANCH  27  33
ATOM     28  O   UNL     1       4.850   1.763  63.184  0.00  0.00    +0.000 OA
ATOM     29  C   UNL     1       2.245   1.867  64.415  0.00  0.00    +0.000 C 
ATOM     30  C   UNL     1       2.861   0.546  63.938  0.00  0.00    +0.000 C 
ATOM     31  C   UNL     1       3.328   2.888  64.762  0.00  0.00    +0.000 C 
ATOM     32  C   UNL     1       3.845   0.818  62.793  0.00  0.00    +0.000 C 
ATOM     33  C   UNL     1       4.319   3.033  63.588  0.00  0.00    +0.000 C 
ATOM     34  C   UNL     1       4.561  -0.457  62.359  0.00  0.00    +0.000 C 
BRANCH  29  35
ATOM     35  O   UNL     1       1.431   1.595  65.571  0.00  0.00    +0.000 OA
ATOM     36  H   UNL     1       0.564   1.317  65.208  0.00  0.00    +0.000 HD
ENDBRANCH  29  35
BRANCH  30  37
ATOM     37  O   UNL     1       1.809  -0.331  63.521  0.00  0.00    +0.000 OA
ATOM     38  H   UNL     1       1.361  -0.605  64.347  0.00  0.00    +0.000 HD
ENDBRANCH  30  37
BRANCH  31  39
ATOM     39  O   UNL     1       3.975   2.441  65.972  0.00  0.00    +0.000 OA
ATOM     40  H   UNL     1       3.350   2.591  66.705  0.00  0.00    +0.000 HD
ENDBRANCH  31  39
ENDBRANCH  27  33
ENDBRANCH   5  27
BRANCH   3  41
ATOM     41  O   UNL     1       7.848   9.564  59.528  0.00  0.00    +0.000 OA
BRANCH  41  47
ATOM     42  O   UNL     1       6.883  11.613  58.843  0.00  0.00    +0.000 OA
ATOM     43  C   UNL     1       8.831  13.083  60.327  0.00  0.00    +0.000 C 
ATOM     44  C   UNL     1       7.947  13.754  59.272  0.00  0.00    +0.000 C 
ATOM     45  C   UNL     1       8.993  11.593  60.038  0.00  0.00    +0.000 C 
ATOM     46  C   UNL     1       6.619  12.992  59.157  0.00  0.00    +0.000 C 
ATOM     47  C   UNL     1       7.606  10.944  59.875  0.00  0.00    +0.000 C 
BRANCH  44  48
ATOM     48  O   UNL     1       7.735  15.119  59.640  0.00  0.00    +0.000 OA
ATOM     49  H   UNL     1       6.878  15.363  59.233  0.00  0.00    +0.000 HD
ENDBRANCH  44  48
BRANCH  45  50
ATOM     50  O   UNL     1       9.744  11.000  61.111  0.00  0.00    +0.000 OA
ATOM     51  H   UNL     1       9.653  10.032  60.998  0.00  0.00    +0.000 HD
ENDBRANCH  45  50
BRANCH  43  52
ATOM     52  O   UNL     1      10.113  13.732  60.342  0.00  0.00    +0.000 OA
ATOM     53  H   UNL     1      10.538  13.475  59.499  0.00  0.00    +0.000 HD
ENDBRANCH  43  52
BRANCH  46  54
ATOM     54  C   UNL     1       5.736  13.582  58.051  0.00  0.00    +0.000 C 
BRANCH  54  55
ATOM     55  O   UNL     1       6.536  14.356  57.154  0.00  0.00    +0.000 OA
ATOM     56  H   UNL     1       7.376  14.535  57.609  0.00  0.00    +0.000 HD
ENDBRANCH  54  55
ENDBRANCH  46  54
ENDBRANCH  41  47
ENDBRANCH   3  41
TORSDOF 17
ENDMDL
MODEL 8
REMARK VINA RESULT:      -4.3      4.715      8.620
REMARK  Name = 
REMARK  21 active torsions:
REMARK  status: ('A' for Active; 'I' for Inactive)
REMARK    1  A    between atoms: O_3  and  C_22
REMARK    2  A    between atoms: O_3  and  C_28
REMARK    3  A    between atoms: O_4  and  C_25
REMARK    4  A    between atoms: O_4  and  C_30
REMARK    5  A    between atoms: O_5  and  C_16
REMARK    6  A    between atoms: O_6  and  C_17
REMARK    7  A    between atoms: O_7  and  C_18
REMARK    8  A    between atoms: O_8  and  C_20
REMARK    9  A    between atoms: O_9  and  C_21
REMARK   10  A    between atoms: O_10  and  C_23
REMARK   11  A    between atoms: O_11  and  C_26
REMARK   12  A    between atoms: O_13  and  C_36
REMARK   13  A    between atoms: O_15  and  C_45
REMARK   14  A    between atoms: O_15  and  C_48
REMARK   15  A    between atoms: C_19  and  C_26
REMARK   16  A    between atoms: C_24  and  C_27
REMARK   17  A    between atoms: C_29  and  C_37
REMARK   18  A    between atoms: C_35  and  C_38
REMARK   19  A    between atoms: C_37  and  C_39
REMARK   20  A    between atoms: C_42  and  C_46
REMARK   21  A    between atoms: C_42  and  C_47
REMARK                            x       y       z     vdW  Elec       q    Type
REMARK                         _______ _______ _______ _____ _____    ______ ____
ROOT
ATOM      1  O   UNL     1      15.941  12.289  57.342  0.00  0.00    +0.000 OA
ATOM      2  O   UNL     1      12.009  12.357  56.334  0.00  0.00    +0.000 OA
ATOM      3  C   UNL     1      16.256  11.914  53.716  0.00  0.00    +0.000 A 
ATOM      4  C   UNL     1      16.609  12.035  55.072  0.00  0.00    +0.000 A 
ATOM      5  C   UNL     1      13.638  12.419  58.065  0.00  0.00    +0.000 A 
ATOM      6  C   UNL     1      15.576  12.171  56.023  0.00  0.00    +0.000 A 
ATOM      7  C   UNL     1      14.240  12.193  55.624  0.00  0.00    +0.000 A 
ATOM      8  C   UNL     1      13.197  12.324  56.650  0.00  0.00    +0.000 A 
ATOM      9  C   UNL     1      14.918  11.977  53.314  0.00  0.00    +0.000 A 
ATOM     10  C   UNL     1      14.959  12.364  58.312  0.00  0.00    +0.000 A 
ATOM     11  C   UNL     1      13.915  12.101  54.268  0.00  0.00    +0.000 A 
ENDROOT
BRANCH  10  12
ATOM     12  C   UNL     1      15.505  12.426  59.676  0.00  0.00    +0.000 A 
ATOM     13  C   UNL     1      16.161  13.582  60.113  0.00  0.00    +0.000 A 
ATOM     14  C   UNL     1      15.394  11.339  60.552  0.00  0.00    +0.000 A 
ATOM     15  C   UNL     1      16.678  13.651  61.409  0.00  0.00    +0.000 A 
ATOM     16  C   UNL     1      15.910  11.412  61.851  0.00  0.00    +0.000 A 
ATOM     17  C   UNL     1      16.551  12.572  62.286  0.00  0.00    +0.000 A 
BRANCH  17  18
ATOM     18  O   UNL     1      17.095  12.775  63.524  0.00  0.00    +0.000 OA
ATOM     19  C   UNL     1      18.131  11.885  63.922  0.00  0.00    +0.000 C 
ENDBRANCH  17  18
ENDBRANCH  10  12
BRANCH  11  20
ATOM     20  O   UNL     1      12.629  12.137  53.800  0.00  0.00    +0.000 OA
ATOM     21  H   UNL     1      12.315  11.212  53.691  0.00  0.00    +0.000 HD
ENDBRANCH  11  20
BRANCH   4  22
ATOM     22  C   UNL     1      18.057  11.984  55.519  0.00  0.00    +0.000 C 
BRANCH  22  23
ATOM     23  C   UNL     1      18.508  10.583  55.842  0.00  0.00    +0.000 C 
ATOM     24  C   UNL     1      18.827  10.054  57.040  0.00  0.00    +0.000 C 
ATOM     25  C   UNL     1      18.791  10.782  58.355  0.00  0.00    +0.000 C 
ATOM     26  C   UNL     1      19.257   8.615  57.146  0.00  0.00    +0.000 C 
ENDBRANCH  22  23
ENDBRANCH   4  22
BRANCH   5  27
ATOM     27  O   UNL     1      12.688  12.480  59.068  0.00  0.00    +0.000 OA
BRANCH  27  33
ATOM     28  O   UNL     1      12.841  14.460  60.360  0.00  0.00    +0.000 OA
ATOM     29  C   UNL     1      10.348  13.093  60.843  0.00  0.00    +0.000 C 
ATOM     30  C   UNL     1      11.118  13.792  61.970  0.00  0.00    +0.000 C 
ATOM     31  C   UNL     1      10.654  13.730  59.487  0.00  0.00    +0.000 C 
ATOM     32  C   UNL     1      12.613  13.831  61.629  0.00  0.00    +0.000 C 
ATOM     33  C   UNL     1      12.180  13.805  59.267  0.00  0.00    +0.000 C 
ATOM     34  C   UNL     1      13.404  14.611  62.674  0.00  0.00    +0.000 C 
BRANCH  29  35
ATOM     35  O   UNL     1       8.940  13.191  61.129  0.00  0.00    +0.000 OA
ATOM     36  H   UNL     1       8.887  13.732  61.945  0.00  0.00    +0.000 HD
ENDBRANCH  29  35
BRANCH  30  37
ATOM     37  O   UNL     1      10.884  13.088  63.195  0.00  0.00    +0.000 OA
ATOM     38  H   UNL     1       9.926  13.189  63.370  0.00  0.00    +0.000 HD
ENDBRANCH  30  37
BRANCH  31  39
ATOM     39  O   UNL     1      10.034  15.033  59.470  0.00  0.00    +0.000 OA
ATOM     40  H   UNL     1      10.747  15.692  59.563  0.00  0.00    +0.000 HD
ENDBRANCH  31  39
ENDBRANCH  27  33
ENDBRANCH   5  27
BRANCH   3  41
ATOM     41  O   UNL     1      17.246  11.835  52.771  0.00  0.00    +0.000 OA
BRANCH  41  47
ATOM     42  O   UNL     1      18.311   9.744  52.469  0.00  0.00    +0.000 OA
ATOM     43  C   UNL     1      17.465   9.651  49.743  0.00  0.00    +0.000 C 
ATOM     44  C   UNL     1      18.551   8.715  50.282  0.00  0.00    +0.000 C 
ATOM     45  C   UNL     1      17.389  10.934  50.568  0.00  0.00    +0.000 C 
ATOM     46  C   UNL     1      18.325   8.480  51.782  0.00  0.00    +0.000 C 
ATOM     47  C   UNL     1      17.231  10.580  52.059  0.00  0.00    +0.000 C 
BRANCH  44  48
ATOM     48  O   UNL     1      18.515   7.488  49.550  0.00  0.00    +0.000 OA
ATOM     49  H   UNL     1      19.331   7.491  49.006  0.00  0.00    +0.000 HD
ENDBRANCH  44  48
BRANCH  45  50
ATOM     50  O   UNL     1      16.291  11.724  50.081  0.00  0.00    +0.000 OA
ATOM     51  H   UNL     1      15.501  11.410  50.564  0.00  0.00    +0.000 HD
ENDBRANCH  45  50
BRANCH  43  52
ATOM     52  O   UNL     1      17.755   9.958  48.369  0.00  0.00    +0.000 OA
ATOM     53  H   UNL     1      17.151  10.693  48.140  0.00  0.00    +0.000 HD
ENDBRANCH  43  52
BRANCH  46  54
ATOM     54  C   UNL     1      19.439   7.613  52.381  0.00  0.00    +0.000 C 
BRANCH  54  55
ATOM     55  O   UNL     1      20.631   7.752  51.603  0.00  0.00    +0.000 OA
ATOM     56  H   UNL     1      20.823   6.878  51.224  0.00  0.00    +0.000 HD
ENDBRANCH  54  55
ENDBRANCH  46  54
ENDBRANCH  41  47
ENDBRANCH   3  41
TORSDOF 17
ENDMDL
MODEL 9
REMARK VINA RESULT:      -4.3      8.423     12.569
REMARK  Name = 
REMARK  21 active torsions:
REMARK  status: ('A' for Active; 'I' for Inactive)
REMARK    1  A    between atoms: O_3  and  C_22
REMARK    2  A    between atoms: O_3  and  C_28
REMARK    3  A    between atoms: O_4  and  C_25
REMARK    4  A    between atoms: O_4  and  C_30
REMARK    5  A    between atoms: O_5  and  C_16
REMARK    6  A    between atoms: O_6  and  C_17
REMARK    7  A    between atoms: O_7  and  C_18
REMARK    8  A    between atoms: O_8  and  C_20
REMARK    9  A    between atoms: O_9  and  C_21
REMARK   10  A    between atoms: O_10  and  C_23
REMARK   11  A    between atoms: O_11  and  C_26
REMARK   12  A    between atoms: O_13  and  C_36
REMARK   13  A    between atoms: O_15  and  C_45
REMARK   14  A    between atoms: O_15  and  C_48
REMARK   15  A    between atoms: C_19  and  C_26
REMARK   16  A    between atoms: C_24  and  C_27
REMARK   17  A    between atoms: C_29  and  C_37
REMARK   18  A    between atoms: C_35  and  C_38
REMARK   19  A    between atoms: C_37  and  C_39
REMARK   20  A    between atoms: C_42  and  C_46
REMARK   21  A    between atoms: C_42  and  C_47
REMARK                            x       y       z     vdW  Elec       q    Type
REMARK                         _______ _______ _______ _____ _____    ______ ____
ROOT
ATOM      1  O   UNL     1       2.982   6.860  64.580  0.00  0.00    +0.000 OA
ATOM      2  O   UNL     1       2.699   2.851  64.008  0.00  0.00    +0.000 OA
ATOM      3  C   UNL     1       4.862   6.576  61.454  0.00  0.00    +0.000 A 
ATOM      4  C   UNL     1       4.252   7.143  62.588  0.00  0.00    +0.000 A 
ATOM      5  C   UNL     1       2.195   4.721  65.386  0.00  0.00    +0.000 A 
ATOM      6  C   UNL     1       3.572   6.288  63.479  0.00  0.00    +0.000 A 
ATOM      7  C   UNL     1       3.500   4.916  63.235  0.00  0.00    +0.000 A 
ATOM      8  C   UNL     1       2.791   4.062  64.197  0.00  0.00    +0.000 A 
ATOM      9  C   UNL     1       4.754   5.208  61.189  0.00  0.00    +0.000 A 
ATOM     10  C   UNL     1       2.356   6.051  65.510  0.00  0.00    +0.000 A 
ATOM     11  C   UNL     1       4.088   4.380  62.086  0.00  0.00    +0.000 A 
ENDROOT
BRANCH  10  12
ATOM     12  C   UNL     1       1.827   6.802  66.658  0.00  0.00    +0.000 A 
ATOM     13  C   UNL     1       2.431   6.674  67.914  0.00  0.00    +0.000 A 
ATOM     14  C   UNL     1       0.714   7.641  66.525  0.00  0.00    +0.000 A 
ATOM     15  C   UNL     1       1.937   7.387  69.009  0.00  0.00    +0.000 A 
ATOM     16  C   UNL     1       0.223   8.357  67.623  0.00  0.00    +0.000 A 
ATOM     17  C   UNL     1       0.837   8.236  68.870  0.00  0.00    +0.000 A 
BRANCH  17  18
ATOM     18  O   UNL     1       0.462   8.878  70.017  0.00  0.00    +0.000 OA
ATOM     19  C   UNL     1       1.490   9.171  70.954  0.00  0.00    +0.000 C 
ENDBRANCH  17  18
ENDBRANCH  10  12
BRANCH  11  20
ATOM     20  O   UNL     1       4.040   3.050  61.769  0.00  0.00    +0.000 OA
ATOM     21  H   UNL     1       4.741   2.866  61.105  0.00  0.00    +0.000 HD
ENDBRANCH  11  20
BRANCH   4  22
ATOM     22  C   UNL     1       4.348   8.629  62.878  0.00  0.00    +0.000 C 
BRANCH  22  23
ATOM     23  C   UNL     1       3.046   9.346  62.636  0.00  0.00    +0.000 C 
ATOM     24  C   UNL     1       2.322  10.091  63.495  0.00  0.00    +0.000 C 
ATOM     25  C   UNL     1       2.683  10.375  64.927  0.00  0.00    +0.000 C 
ATOM     26  C   UNL     1       1.034  10.730  63.048  0.00  0.00    +0.000 C 
ENDBRANCH  22  23
ENDBRANCH   4  22
BRANCH   5  27
ATOM     27  O   UNL     1       1.573   3.947  66.349  0.00  0.00    +0.000 OA
BRANCH  27  33
ATOM     28  O   UNL     1      -0.670   4.548  66.818  0.00  0.00    +0.000 OA
ATOM     29  C   UNL     1      -0.077   1.901  67.797  0.00  0.00    +0.000 C 
ATOM     30  C   UNL     1      -0.972   2.871  68.578  0.00  0.00    +0.000 C 
ATOM     31  C   UNL     1      -0.111   2.204  66.299  0.00  0.00    +0.000 C 
ATOM     32  C   UNL     1      -0.597   4.317  68.232  0.00  0.00    +0.000 C 
ATOM     33  C   UNL     1       0.194   3.697  66.051  0.00  0.00    +0.000 C 
ATOM     34  C   UNL     1      -1.533   5.314  68.907  0.00  0.00    +0.000 C 
BRANCH  29  35
ATOM     35  O   UNL     1      -0.540   0.560  68.041  0.00  0.00    +0.000 OA
ATOM     36  H   UNL     1      -1.327   0.458  67.466  0.00  0.00    +0.000 HD
ENDBRANCH  29  35
BRANCH  30  37
ATOM     37  O   UNL     1      -0.816   2.616  69.979  0.00  0.00    +0.000 OA
ATOM     38  H   UNL     1      -1.723   2.463  70.315  0.00  0.00    +0.000 HD
ENDBRANCH  30  37
BRANCH  31  39
ATOM     39  O   UNL     1      -1.413   1.824  65.808  0.00  0.00    +0.000 OA
ATOM     40  H   UNL     1      -2.005   2.588  65.938  0.00  0.00    +0.000 HD
ENDBRANCH  31  39
ENDBRANCH  27  33
ENDBRANCH   5  27
BRANCH   3  41
ATOM     41  O   UNL     1       5.482   7.397  60.547  0.00  0.00    +0.000 OA
BRANCH  41  47
ATOM     42  O   UNL     1       7.023   6.199  59.209  0.00  0.00    +0.000 OA
ATOM     43  C   UNL     1       5.850   7.252  56.828  0.00  0.00    +0.000 C 
ATOM     44  C   UNL     1       7.216   6.561  56.815  0.00  0.00    +0.000 C 
ATOM     45  C   UNL     1       5.546   7.839  58.205  0.00  0.00    +0.000 C 
ATOM     46  C   UNL     1       7.282   5.538  57.958  0.00  0.00    +0.000 C 
ATOM     47  C   UNL     1       5.708   6.747  59.279  0.00  0.00    +0.000 C 
BRANCH  44  48
ATOM     48  O   UNL     1       7.413   5.937  55.545  0.00  0.00    +0.000 OA
ATOM     49  H   UNL     1       7.493   4.980  55.739  0.00  0.00    +0.000 HD
ENDBRANCH  44  48
BRANCH  45  50
ATOM     50  O   UNL     1       4.216   8.383  58.184  0.00  0.00    +0.000 OA
ATOM     51  H   UNL     1       4.109   8.861  59.031  0.00  0.00    +0.000 HD
ENDBRANCH  45  50
BRANCH  43  52
ATOM     52  O   UNL     1       5.843   8.288  55.832  0.00  0.00    +0.000 OA
ATOM     53  H   UNL     1       4.948   8.680  55.878  0.00  0.00    +0.000 HD
ENDBRANCH  43  52
BRANCH  46  54
ATOM     54  C   UNL     1       8.666   4.880  58.034  0.00  0.00    +0.000 C 
BRANCH  54  55
ATOM     55  O   UNL     1       9.680   5.856  57.780  0.00  0.00    +0.000 OA
ATOM     56  H   UNL     1      10.157   5.991  58.616  0.00  0.00    +0.000 HD
ENDBRANCH  54  55
ENDBRANCH  46  54
ENDBRANCH  41  47
ENDBRANCH   3  41
TORSDOF 17
ENDMDL
