MODEL 1
REMARK VINA RESULT:      -4.2      0.000      0.000
REMARK  Name = 
REMARK  6 active torsions:
REMARK  status: ('A' for Active; 'I' for Inactive)
REMARK    1  A    between atoms: O_3  and  C_16
REMARK    2  A    between atoms: O_4  and  C_17
REMARK    3  A    between atoms: O_4  and  C_22
REMARK    4  A    between atoms: O_5  and  C_19
REMARK    5  A    between atoms: O_5  and  C_23
REMARK    6  A    between atoms: O_6  and  C_21
REMARK                            x       y       z     vdW  Elec       q    Type
REMARK                         _______ _______ _______ _____ _____    ______ ____
ROOT
ATOM      1  O   UNL     1       4.614   8.854  73.900  0.00  0.00    +0.000 OA
ATOM      2  O   UNL     1       1.439   7.906  76.046  0.00  0.00    +0.000 OA
ATOM      3  C   UNL     1       2.626   9.752  74.943  0.00  0.00    +0.000 C 
ATOM      4  C   UNL     1       3.969   9.054  75.184  0.00  0.00    +0.000 C 
ATOM      5  C   UNL     1       2.394   9.362  73.524  0.00  0.00    +0.000 A 
ATOM      6  C   UNL     1       1.593   9.322  75.963  0.00  0.00    +0.000 C 
ATOM      7  C   UNL     1       3.851   7.731  75.910  0.00  0.00    +0.000 A 
ATOM      8  C   UNL     1       3.585   8.892  72.991  0.00  0.00    +0.000 A 
ATOM      9  C   UNL     1       2.598   7.218  76.287  0.00  0.00    +0.000 A 
ATOM     10  C   UNL     1       1.259   9.467  72.738  0.00  0.00    +0.000 A 
ATOM     11  C   UNL     1       5.018   7.002  76.205  0.00  0.00    +0.000 A 
ATOM     12  C   UNL     1       3.677   8.520  71.666  0.00  0.00    +0.000 A 
ATOM     13  C   UNL     1       2.517   5.964  76.908  0.00  0.00    +0.000 A 
ATOM     14  C   UNL     1       1.334   9.078  71.393  0.00  0.00    +0.000 A 
ATOM     15  C   UNL     1       2.541   8.605  70.850  0.00  0.00    +0.000 A 
ATOM     16  C   UNL     1       4.942   5.782  76.870  0.00  0.00    +0.000 A 
ATOM     17  C   UNL     1       3.698   5.280  77.220  0.00  0.00    +0.000 A 
ENDROOT
BRANCH  12  18
ATOM     18  O   UNL     1       4.861   8.067  71.154  0.00  0.00    +0.000 OA
ATOM     19  H   UNL     1       4.677   7.881  70.215  0.00  0.00    +0.000 HD
ENDBRANCH  12  18
BRANCH  13  20
ATOM     20  O   UNL     1       1.365   5.336  77.317  0.00  0.00    +0.000 OA
ATOM     21  C   UNL     1       0.856   5.792  78.569  0.00  0.00    +0.000 C 
ENDBRANCH  13  20
BRANCH  15  22
ATOM     22  O   UNL     1       2.735   8.205  69.550  0.00  0.00    +0.000 OA
ATOM     23  C   UNL     1       1.580   8.148  68.720  0.00  0.00    +0.000 C 
ENDBRANCH  15  22
BRANCH  17  24
ATOM     24  O   UNL     1       3.645   4.077  77.873  0.00  0.00    +0.000 OA
ATOM     25  H   UNL     1       4.576   3.856  78.065  0.00  0.00    +0.000 HD
ENDBRANCH  17  24
TORSDOF 4
ENDMDL
MODEL 2
REMARK VINA RESULT:      -4.1      1.851      6.560
REMARK  Name = 
REMARK  6 active torsions:
REMARK  status: ('A' for Active; 'I' for Inactive)
REMARK    1  A    between atoms: O_3  and  C_16
REMARK    2  A    between atoms: O_4  and  C_17
REMARK    3  A    between atoms: O_4  and  C_22
REMARK    4  A    between atoms: O_5  and  C_19
REMARK    5  A    between atoms: O_5  and  C_23
REMARK    6  A    between atoms: O_6  and  C_21
REMARK                            x       y       z     vdW  Elec       q    Type
REMARK                         _______ _______ _______ _____ _____    ______ ____
ROOT
ATOM      1  O   UNL     1       3.074   7.350  75.967  0.00  0.00    +0.000 OA
ATOM      2  O   UNL     1       5.571   9.842  74.194  0.00  0.00    +0.000 OA
ATOM      3  C   UNL     1       4.713   9.081  76.367  0.00  0.00    +0.000 C 
ATOM      4  C   UNL     1       3.356   8.754  75.735  0.00  0.00    +0.000 C 
ATOM      5  C   UNL     1       5.313   7.718  76.388  0.00  0.00    +0.000 A 
ATOM      6  C   UNL     1       5.441  10.151  75.581  0.00  0.00    +0.000 C 
ATOM      7  C   UNL     1       3.281   9.054  74.253  0.00  0.00    +0.000 A 
ATOM      8  C   UNL     1       4.306   6.786  76.187  0.00  0.00    +0.000 A 
ATOM      9  C   UNL     1       4.390   9.564  73.558  0.00  0.00    +0.000 A 
ATOM     10  C   UNL     1       6.616   7.314  76.629  0.00  0.00    +0.000 A 
ATOM     11  C   UNL     1       2.079   8.811  73.563  0.00  0.00    +0.000 A 
ATOM     12  C   UNL     1       4.569   5.431  76.223  0.00  0.00    +0.000 A 
ATOM     13  C   UNL     1       4.307   9.778  72.175  0.00  0.00    +0.000 A 
ATOM     14  C   UNL     1       6.899   5.941  76.654  0.00  0.00    +0.000 A 
ATOM     15  C   UNL     1       5.880   4.994  76.454  0.00  0.00    +0.000 A 
ATOM     16  C   UNL     1       1.979   9.076  72.200  0.00  0.00    +0.000 A 
ATOM     17  C   UNL     1       3.087   9.561  71.523  0.00  0.00    +0.000 A 
ENDROOT
BRANCH  12  18
ATOM     18  O   UNL     1       3.563   4.526  76.032  0.00  0.00    +0.000 OA
ATOM     19  H   UNL     1       3.414   4.512  75.068  0.00  0.00    +0.000 HD
ENDBRANCH  12  18
BRANCH  13  20
ATOM     20  O   UNL     1       5.312  10.257  71.368  0.00  0.00    +0.000 OA
ATOM     21  C   UNL     1       5.476  11.673  71.408  0.00  0.00    +0.000 C 
ENDBRANCH  13  20
BRANCH  15  22
ATOM     22  O   UNL     1       6.038   3.630  76.465  0.00  0.00    +0.000 OA
ATOM     23  C   UNL     1       6.366   3.033  77.714  0.00  0.00    +0.000 C 
ENDBRANCH  15  22
BRANCH  17  24
ATOM     24  O   UNL     1       2.968   9.814  70.182  0.00  0.00    +0.000 OA
ATOM     25  H   UNL     1       2.016   9.979  70.043  0.00  0.00    +0.000 HD
ENDBRANCH  17  24
TORSDOF 4
ENDMDL
MODEL 3
REMARK VINA RESULT:      -4.1     18.163     19.814
REMARK  Name = 
REMARK  6 active torsions:
REMARK  status: ('A' for Active; 'I' for Inactive)
REMARK    1  A    between atoms: O_3  and  C_16
REMARK    2  A    between atoms: O_4  and  C_17
REMARK    3  A    between atoms: O_4  and  C_22
REMARK    4  A    between atoms: O_5  and  C_19
REMARK    5  A    between atoms: O_5  and  C_23
REMARK    6  A    between atoms: O_6  and  C_21
REMARK                            x       y       z     vdW  Elec       q    Type
REMARK                         _______ _______ _______ _____ _____    ______ ____
ROOT
ATOM      1  O   UNL     1       7.822   6.840  55.759  0.00  0.00    +0.000 OA
ATOM      2  O   UNL     1       6.211   3.348  56.652  0.00  0.00    +0.000 OA
ATOM      3  C   UNL     1       5.726   5.707  56.168  0.00  0.00    +0.000 C 
ATOM      4  C   UNL     1       7.070   6.125  56.772  0.00  0.00    +0.000 C 
ATOM      5  C   UNL     1       6.086   5.725  54.722  0.00  0.00    +0.000 A 
ATOM      6  C   UNL     1       5.246   4.394  56.750  0.00  0.00    +0.000 C 
ATOM      7  C   UNL     1       7.892   4.968  57.299  0.00  0.00    +0.000 A 
ATOM      8  C   UNL     1       7.277   6.420  54.570  0.00  0.00    +0.000 A 
ATOM      9  C   UNL     1       7.432   3.644  57.198  0.00  0.00    +0.000 A 
ATOM     10  C   UNL     1       5.405   5.236  53.621  0.00  0.00    +0.000 A 
ATOM     11  C   UNL     1       9.141   5.226  57.894  0.00  0.00    +0.000 A 
ATOM     12  C   UNL     1       7.815   6.649  53.320  0.00  0.00    +0.000 A 
ATOM     13  C   UNL     1       8.241   2.589  57.644  0.00  0.00    +0.000 A 
ATOM     14  C   UNL     1       5.948   5.449  52.346  0.00  0.00    +0.000 A 
ATOM     15  C   UNL     1       7.152   6.156  52.188  0.00  0.00    +0.000 A 
ATOM     16  C   UNL     1       9.920   4.184  58.387  0.00  0.00    +0.000 A 
ATOM     17  C   UNL     1       9.462   2.881  58.264  0.00  0.00    +0.000 A 
ENDROOT
BRANCH  12  18
ATOM     18  O   UNL     1       8.985   7.343  53.187  0.00  0.00    +0.000 OA
ATOM     19  H   UNL     1       9.634   6.688  52.871  0.00  0.00    +0.000 HD
ENDBRANCH  12  18
BRANCH  13  20
ATOM     20  O   UNL     1       7.928   1.251  57.595  0.00  0.00    +0.000 OA
ATOM     21  C   UNL     1       8.266   0.611  56.366  0.00  0.00    +0.000 C 
ENDBRANCH  13  20
BRANCH  15  22
ATOM     22  O   UNL     1       7.772   6.431  50.994  0.00  0.00    +0.000 OA
ATOM     23  C   UNL     1       8.137   5.314  50.191  0.00  0.00    +0.000 C 
ENDBRANCH  15  22
BRANCH  17  24
ATOM     24  O   UNL     1      10.244   1.870  58.754  0.00  0.00    +0.000 OA
ATOM     25  H   UNL     1      11.143   2.069  58.428  0.00  0.00    +0.000 HD
ENDBRANCH  17  24
TORSDOF 4
ENDMDL
MODEL 4
REMARK VINA RESULT:      -4.1     16.823     19.147
REMARK  Name = 
REMARK  6 active torsions:
REMARK  status: ('A' for Active; 'I' for Inactive)
REMARK    1  A    between atoms: O_3  and  C_16
REMARK    2  A    between atoms: O_4  and  C_17
REMARK    3  A    between atoms: O_4  and  C_22
REMARK    4  A    between atoms: O_5  and  C_19
REMARK    5  A    between atoms: O_5  and  C_23
REMARK    6  A    between atoms: O_6  and  C_21
REMARK                            x       y       z     vdW  Elec       q    Type
REMARK                         _______ _______ _______ _____ _____    ______ ____
ROOT
ATOM      1  O   UNL     1      15.970  12.563  59.403  0.00  0.00    +0.000 OA
ATOM      2  O   UNL     1      16.871  11.945  63.197  0.00  0.00    +0.000 OA
ATOM      3  C   UNL     1      16.296  13.659  61.533  0.00  0.00    +0.000 C 
ATOM      4  C   UNL     1      16.961  12.832  60.427  0.00  0.00    +0.000 C 
ATOM      5  C   UNL     1      14.872  13.287  61.301  0.00  0.00    +0.000 A 
ATOM      6  C   UNL     1      16.888  13.338  62.890  0.00  0.00    +0.000 C 
ATOM      7  C   UNL     1      17.562  11.530  60.912  0.00  0.00    +0.000 A 
ATOM      8  C   UNL     1      14.765  12.699  60.049  0.00  0.00    +0.000 A 
ATOM      9  C   UNL     1      17.473  11.146  62.261  0.00  0.00    +0.000 A 
ATOM     10  C   UNL     1      13.750  13.501  62.082  0.00  0.00    +0.000 A 
ATOM     11  C   UNL     1      18.216  10.690  59.993  0.00  0.00    +0.000 A 
ATOM     12  C   UNL     1      13.540  12.313  59.544  0.00  0.00    +0.000 A 
ATOM     13  C   UNL     1      17.991   9.909  62.669  0.00  0.00    +0.000 A 
ATOM     14  C   UNL     1      12.500  13.101  61.586  0.00  0.00    +0.000 A 
ATOM     15  C   UNL     1      12.388  12.508  60.318  0.00  0.00    +0.000 A 
ATOM     16  C   UNL     1      18.779   9.486  60.408  0.00  0.00    +0.000 A 
ATOM     17  C   UNL     1      18.667   9.112  61.738  0.00  0.00    +0.000 A 
ENDROOT
BRANCH  12  18
ATOM     18  O   UNL     1      13.451  11.743  58.305  0.00  0.00    +0.000 OA
ATOM     19  H   UNL     1      14.124  12.199  57.767  0.00  0.00    +0.000 HD
ENDBRANCH  12  18
BRANCH  13  20
ATOM     20  O   UNL     1      17.962   9.400  63.946  0.00  0.00    +0.000 OA
ATOM     21  C   UNL     1      18.966   9.925  64.813  0.00  0.00    +0.000 C 
ENDBRANCH  13  20
BRANCH  15  22
ATOM     22  O   UNL     1      11.222  12.085  59.729  0.00  0.00    +0.000 OA
ATOM     23  C   UNL     1      10.093  11.934  60.582  0.00  0.00    +0.000 C 
ENDBRANCH  15  22
BRANCH  17  24
ATOM     24  O   UNL     1      19.226   7.923  62.126  0.00  0.00    +0.000 OA
ATOM     25  H   UNL     1      19.230   7.374  61.319  0.00  0.00    +0.000 HD
ENDBRANCH  17  24
TORSDOF 4
ENDMDL
MODEL 5
REMARK VINA RESULT:      -3.8     18.537     22.132
REMARK  Name = 
REMARK  6 active torsions:
REMARK  status: ('A' for Active; 'I' for Inactive)
REMARK    1  A    between atoms: O_3  and  C_16
REMARK    2  A    between atoms: O_4  and  C_17
REMARK    3  A    between atoms: O_4  and  C_22
REMARK    4  A    between atoms: O_5  and  C_19
REMARK    5  A    between atoms: O_5  and  C_23
REMARK    6  A    between atoms: O_6  and  C_21
REMARK                            x       y       z     vdW  Elec       q    Type
REMARK                         _______ _______ _______ _____ _____    ______ ____
ROOT
ATOM      1  O   UNL     1      14.978  13.112  57.220  0.00  0.00    +0.000 OA
ATOM      2  O   UNL     1      18.288  11.263  58.321  0.00  0.00    +0.000 OA
ATOM      3  C   UNL     1      17.044  13.378  58.447  0.00  0.00    +0.000 C 
ATOM      4  C   UNL     1      16.421  13.112  57.073  0.00  0.00    +0.000 C 
ATOM      5  C   UNL     1      15.920  12.933  59.319  0.00  0.00    +0.000 A 
ATOM      6  C   UNL     1      18.369  12.661  58.598  0.00  0.00    +0.000 C 
ATOM      7  C   UNL     1      16.872  11.816  56.435  0.00  0.00    +0.000 A 
ATOM      8  C   UNL     1      14.770  12.839  58.549  0.00  0.00    +0.000 A 
ATOM      9  C   UNL     1      17.764  10.953  57.094  0.00  0.00    +0.000 A 
ATOM     10  C   UNL     1      15.883  12.694  60.683  0.00  0.00    +0.000 A 
ATOM     11  C   UNL     1      16.382  11.468  55.163  0.00  0.00    +0.000 A 
ATOM     12  C   UNL     1      13.556  12.509  59.117  0.00  0.00    +0.000 A 
ATOM     13  C   UNL     1      18.119   9.732  56.502  0.00  0.00    +0.000 A 
ATOM     14  C   UNL     1      14.658  12.343  61.269  0.00  0.00    +0.000 A 
ATOM     15  C   UNL     1      13.491  12.251  60.492  0.00  0.00    +0.000 A 
ATOM     16  C   UNL     1      16.777  10.282  54.550  0.00  0.00    +0.000 A 
ATOM     17  C   UNL     1      17.643   9.432  55.221  0.00  0.00    +0.000 A 
ENDROOT
BRANCH  12  18
ATOM     18  O   UNL     1      12.431  12.429  58.345  0.00  0.00    +0.000 OA
ATOM     19  H   UNL     1      12.452  13.225  57.783  0.00  0.00    +0.000 HD
ENDBRANCH  12  18
BRANCH  13  20
ATOM     20  O   UNL     1      18.965   8.790  57.036  0.00  0.00    +0.000 OA
ATOM     21  C   UNL     1      20.352   9.071  56.854  0.00  0.00    +0.000 C 
ENDBRANCH  13  20
BRANCH  15  22
ATOM     22  O   UNL     1      12.240  11.924  60.957  0.00  0.00    +0.000 OA
ATOM     23  C   UNL     1      11.604  12.875  61.804  0.00  0.00    +0.000 C 
ENDBRANCH  15  22
BRANCH  17  24
ATOM     24  O   UNL     1      18.018   8.270  54.602  0.00  0.00    +0.000 OA
ATOM     25  H   UNL     1      17.248   8.016  54.058  0.00  0.00    +0.000 HD
ENDBRANCH  17  24
TORSDOF 4
ENDMDL
MODEL 6
REMARK VINA RESULT:      -3.7      5.845      8.338
REMARK  Name = 
REMARK  6 active torsions:
REMARK  status: ('A' for Active; 'I' for Inactive)
REMARK    1  A    between atoms: O_3  and  C_16
REMARK    2  A    between atoms: O_4  and  C_17
REMARK    3  A    between atoms: O_4  and  C_22
REMARK    4  A    between atoms: O_5  and  C_19
REMARK    5  A    between atoms: O_5  and  C_23
REMARK    6  A    between atoms: O_6  and  C_21
REMARK                            x       y       z     vdW  Elec       q    Type
REMARK                         _______ _______ _______ _____ _____    ______ ____
ROOT
ATOM      1  O   UNL     1      10.562   3.890  77.158  0.00  0.00    +0.000 OA
ATOM      2  O   UNL     1       8.146   7.010  77.042  0.00  0.00    +0.000 OA
ATOM      3  C   UNL     1      10.214   6.120  78.024  0.00  0.00    +0.000 C 
ATOM      4  C   UNL     1       9.655   4.695  77.952  0.00  0.00    +0.000 C 
ATOM      5  C   UNL     1      11.067   6.114  76.802  0.00  0.00    +0.000 A 
ATOM      6  C   UNL     1       9.101   7.144  78.093  0.00  0.00    +0.000 C 
ATOM      7  C   UNL     1       8.258   4.613  77.376  0.00  0.00    +0.000 A 
ATOM      8  C   UNL     1      11.246   4.801  76.391  0.00  0.00    +0.000 A 
ATOM      9  C   UNL     1       7.584   5.765  76.937  0.00  0.00    +0.000 A 
ATOM     10  C   UNL     1      11.691   7.157  76.138  0.00  0.00    +0.000 A 
ATOM     11  C   UNL     1       7.628   3.359  77.274  0.00  0.00    +0.000 A 
ATOM     12  C   UNL     1      12.052   4.494  75.314  0.00  0.00    +0.000 A 
ATOM     13  C   UNL     1       6.313   5.650  76.355  0.00  0.00    +0.000 A 
ATOM     14  C   UNL     1      12.502   6.859  75.034  0.00  0.00    +0.000 A 
ATOM     15  C   UNL     1      12.688   5.530  74.617  0.00  0.00    +0.000 A 
ATOM     16  C   UNL     1       6.345   3.250  76.747  0.00  0.00    +0.000 A 
ATOM     17  C   UNL     1       5.699   4.393  76.301  0.00  0.00    +0.000 A 
ENDROOT
BRANCH  12  18
ATOM     18  O   UNL     1      12.226   3.195  74.928  0.00  0.00    +0.000 OA
ATOM     19  H   UNL     1      11.325   2.828  74.862  0.00  0.00    +0.000 HD
ENDBRANCH  12  18
BRANCH  13  20
ATOM     20  O   UNL     1       5.548   6.684  75.871  0.00  0.00    +0.000 OA
ATOM     21  C   UNL     1       4.850   7.421  76.873  0.00  0.00    +0.000 C 
ENDBRANCH  13  20
BRANCH  15  22
ATOM     22  O   UNL     1      13.462   5.121  73.559  0.00  0.00    +0.000 OA
ATOM     23  C   UNL     1      14.862   5.357  73.660  0.00  0.00    +0.000 C 
ENDBRANCH  15  22
BRANCH  17  24
ATOM     24  O   UNL     1       4.437   4.265  75.785  0.00  0.00    +0.000 OA
ATOM     25  H   UNL     1       4.033   5.147  75.894  0.00  0.00    +0.000 HD
ENDBRANCH  17  24
TORSDOF 4
ENDMDL
MODEL 7
REMARK VINA RESULT:      -3.6     12.046     13.886
REMARK  Name = 
REMARK  6 active torsions:
REMARK  status: ('A' for Active; 'I' for Inactive)
REMARK    1  A    between atoms: O_3  and  C_16
REMARK    2  A    between atoms: O_4  and  C_17
REMARK    3  A    between atoms: O_4  and  C_22
REMARK    4  A    between atoms: O_5  and  C_19
REMARK    5  A    between atoms: O_5  and  C_23
REMARK    6  A    between atoms: O_6  and  C_21
REMARK                            x       y       z     vdW  Elec       q    Type
REMARK                         _______ _______ _______ _____ _____    ______ ____
ROOT
ATOM      1  O   UNL     1      14.574   0.029  69.419  0.00  0.00    +0.000 OA
ATOM      2  O   UNL     1      10.791  -0.341  70.486  0.00  0.00    +0.000 OA
ATOM      3  C   UNL     1      13.114  -0.535  71.261  0.00  0.00    +0.000 C 
ATOM      4  C   UNL     1      13.570  -0.924  69.850  0.00  0.00    +0.000 C 
ATOM      5  C   UNL     1      13.482   0.909  71.252  0.00  0.00    +0.000 A 
ATOM      6  C   UNL     1      11.657  -0.882  71.483  0.00  0.00    +0.000 C 
ATOM      7  C   UNL     1      12.447  -0.980  68.837  0.00  0.00    +0.000 A 
ATOM      8  C   UNL     1      14.344   1.141  70.191  0.00  0.00    +0.000 A 
ATOM      9  C   UNL     1      11.125  -0.672  69.199  0.00  0.00    +0.000 A 
ATOM     10  C   UNL     1      13.150   1.925  72.132  0.00  0.00    +0.000 A 
ATOM     11  C   UNL     1      12.737  -1.343  67.509  0.00  0.00    +0.000 A 
ATOM     12  C   UNL     1      14.899   2.387  69.981  0.00  0.00    +0.000 A 
ATOM     13  C   UNL     1      10.116  -0.678  68.225  0.00  0.00    +0.000 A 
ATOM     14  C   UNL     1      13.695   3.200  71.922  0.00  0.00    +0.000 A 
ATOM     15  C   UNL     1      14.571   3.437  70.850  0.00  0.00    +0.000 A 
ATOM     16  C   UNL     1      11.726  -1.402  66.553  0.00  0.00    +0.000 A 
ATOM     17  C   UNL     1      10.430  -1.077  66.921  0.00  0.00    +0.000 A 
ENDROOT
BRANCH  12  18
ATOM     18  O   UNL     1      15.754   2.598  68.936  0.00  0.00    +0.000 OA
ATOM     19  H   UNL     1      16.043   3.524  69.027  0.00  0.00    +0.000 HD
ENDBRANCH  12  18
BRANCH  13  20
ATOM     20  O   UNL     1       8.789  -0.385  68.432  0.00  0.00    +0.000 OA
ATOM     21  C   UNL     1       8.029  -1.454  68.992  0.00  0.00    +0.000 C 
ENDBRANCH  13  20
BRANCH  15  22
ATOM     22  O   UNL     1      15.169   4.638  70.552  0.00  0.00    +0.000 OA
ATOM     23  C   UNL     1      15.808   5.318  71.626  0.00  0.00    +0.000 C 
ENDBRANCH  15  22
BRANCH  17  24
ATOM     24  O   UNL     1       9.450  -1.142  65.966  0.00  0.00    +0.000 OA
ATOM     25  H   UNL     1       8.971  -1.971  66.155  0.00  0.00    +0.000 HD
ENDBRANCH  17  24
TORSDOF 4
ENDMDL
MODEL 8
REMARK VINA RESULT:      -3.5      3.175      7.476
REMARK  Name = 
REMARK  6 active torsions:
REMARK  status: ('A' for Active; 'I' for Inactive)
REMARK    1  A    between atoms: O_3  and  C_16
REMARK    2  A    between atoms: O_4  and  C_17
REMARK    3  A    between atoms: O_4  and  C_22
REMARK    4  A    between atoms: O_5  and  C_19
REMARK    5  A    between atoms: O_5  and  C_23
REMARK    6  A    between atoms: O_6  and  C_21
REMARK                            x       y       z     vdW  Elec       q    Type
REMARK                         _______ _______ _______ _____ _____    ______ ____
ROOT
ATOM      1  O   UNL     1       0.036   9.660  70.585  0.00  0.00    +0.000 OA
ATOM      2  O   UNL     1       0.965   6.672  68.178  0.00  0.00    +0.000 OA
ATOM      3  C   UNL     1       1.519   8.984  68.800  0.00  0.00    +0.000 C 
ATOM      4  C   UNL     1       0.061   9.243  69.196  0.00  0.00    +0.000 C 
ATOM      5  C   UNL     1       2.101   8.728  70.147  0.00  0.00    +0.000 A 
ATOM      6  C   UNL     1       1.619   7.874  67.774  0.00  0.00    +0.000 C 
ATOM      7  C   UNL     1      -0.849   8.050  69.002  0.00  0.00    +0.000 A 
ATOM      8  C   UNL     1       1.207   9.174  71.110  0.00  0.00    +0.000 A 
ATOM      9  C   UNL     1      -0.352   6.827  68.522  0.00  0.00    +0.000 A 
ATOM     10  C   UNL     1       3.333   8.210  70.509  0.00  0.00    +0.000 A 
ATOM     11  C   UNL     1      -2.216   8.170  69.315  0.00  0.00    +0.000 A 
ATOM     12  C   UNL     1       1.519   9.120  72.453  0.00  0.00    +0.000 A 
ATOM     13  C   UNL     1      -1.209   5.723  68.406  0.00  0.00    +0.000 A 
ATOM     14  C   UNL     1       3.657   8.137  71.871  0.00  0.00    +0.000 A 
ATOM     15  C   UNL     1       2.755   8.591  72.848  0.00  0.00    +0.000 A 
ATOM     16  C   UNL     1      -3.078   7.090  69.149  0.00  0.00    +0.000 A 
ATOM     17  C   UNL     1      -2.570   5.884  68.692  0.00  0.00    +0.000 A 
ENDROOT
BRANCH  12  18
ATOM     18  O   UNL     1       0.631   9.572  73.388  0.00  0.00    +0.000 OA
ATOM     19  H   UNL     1      -0.136   9.889  72.877  0.00  0.00    +0.000 HD
ENDBRANCH  12  18
BRANCH  13  20
ATOM     20  O   UNL     1      -0.859   4.468  67.967  0.00  0.00    +0.000 OA
ATOM     21  C   UNL     1      -0.458   3.572  69.002  0.00  0.00    +0.000 C 
ENDBRANCH  13  20
BRANCH  15  22
ATOM     22  O   UNL     1       2.967   8.576  74.206  0.00  0.00    +0.000 OA
ATOM     23  C   UNL     1       3.190   7.304  74.804  0.00  0.00    +0.000 C 
ENDBRANCH  15  22
BRANCH  17  24
ATOM     24  O   UNL     1      -3.435   4.834  68.535  0.00  0.00    +0.000 OA
ATOM     25  H   UNL     1      -2.865   4.042  68.518  0.00  0.00    +0.000 HD
ENDBRANCH  17  24
TORSDOF 4
ENDMDL
MODEL 9
REMARK VINA RESULT:      -3.5     23.907     25.860
REMARK  Name = 
REMARK  6 active torsions:
REMARK  status: ('A' for Active; 'I' for Inactive)
REMARK    1  A    between atoms: O_3  and  C_16
REMARK    2  A    between atoms: O_4  and  C_17
REMARK    3  A    between atoms: O_4  and  C_22
REMARK    4  A    between atoms: O_5  and  C_19
REMARK    5  A    between atoms: O_5  and  C_23
REMARK    6  A    between atoms: O_6  and  C_21
REMARK                            x       y       z     vdW  Elec       q    Type
REMARK                         _______ _______ _______ _____ _____    ______ ____
ROOT
ATOM      1  O   UNL     1      17.168   9.112  55.207  0.00  0.00    +0.000 OA
ATOM      2  O   UNL     1      20.593   9.956  53.435  0.00  0.00    +0.000 OA
ATOM      3  C   UNL     1      18.457   8.767  53.192  0.00  0.00    +0.000 C 
ATOM      4  C   UNL     1      18.398   8.530  54.704  0.00  0.00    +0.000 C 
ATOM      5  C   UNL     1      17.548   9.943  53.088  0.00  0.00    +0.000 A 
ATOM      6  C   UNL     1      19.885   8.945  52.719  0.00  0.00    +0.000 C 
ATOM      7  C   UNL     1      19.580   9.097  55.461  0.00  0.00    +0.000 A 
ATOM      8  C   UNL     1      16.823  10.050  54.266  0.00  0.00    +0.000 A 
ATOM      9  C   UNL     1      20.604   9.792  54.795  0.00  0.00    +0.000 A 
ATOM     10  C   UNL     1      17.320  10.811  52.033  0.00  0.00    +0.000 A 
ATOM     11  C   UNL     1      19.648   8.929  56.856  0.00  0.00    +0.000 A 
ATOM     12  C   UNL     1      15.853  11.019  54.421  0.00  0.00    +0.000 A 
ATOM     13  C   UNL     1      21.657  10.354  55.530  0.00  0.00    +0.000 A 
ATOM     14  C   UNL     1      16.347  11.809  52.184  0.00  0.00    +0.000 A 
ATOM     15  C   UNL     1      15.608  11.918  53.374  0.00  0.00    +0.000 A 
ATOM     16  C   UNL     1      20.722   9.439  57.580  0.00  0.00    +0.000 A 
ATOM     17  C   UNL     1      21.715  10.138  56.912  0.00  0.00    +0.000 A 
ENDROOT
BRANCH  12  18
ATOM     18  O   UNL     1      15.141  11.105  55.585  0.00  0.00    +0.000 OA
ATOM     19  H   UNL     1      15.744  11.535  56.219  0.00  0.00    +0.000 HD
ENDBRANCH  12  18
BRANCH  13  20
ATOM     20  O   UNL     1      22.713  11.068  55.015  0.00  0.00    +0.000 OA
ATOM     21  C   UNL     1      22.430  12.444  54.768  0.00  0.00    +0.000 C 
ENDBRANCH  13  20
BRANCH  15  22
ATOM     22  O   UNL     1      14.629  12.846  53.631  0.00  0.00    +0.000 OA
ATOM     23  C   UNL     1      13.466  12.793  52.812  0.00  0.00    +0.000 C 
ENDBRANCH  15  22
BRANCH  17  24
ATOM     24  O   UNL     1      22.762  10.633  57.643  0.00  0.00    +0.000 OA
ATOM     25  H   UNL     1      23.446   9.937  57.602  0.00  0.00    +0.000 HD
ENDBRANCH  17  24
TORSDOF 4
ENDMDL
