MODEL 1
REMARK VINA RESULT:      -4.7      0.000      0.000
REMARK  Name = 
REMARK  9 active torsions:
REMARK  status: ('A' for Active; 'I' for Inactive)
REMARK    1  A    between atoms: O_1  and  N_7
REMARK    2  A    between atoms: O_1  and  C_20
REMARK    3  A    between atoms: O_2  and  C_14
REMARK    4  A    between atoms: O_3  and  C_18
REMARK    5  A    between atoms: O_4  and  C_25
REMARK    6  A    between atoms: C_8  and  C_10
REMARK    7  A    between atoms: C_17  and  C_18
REMARK    8  A    between atoms: C_17  and  C_20
REMARK    9  A    between atoms: C_18  and  C_25
REMARK                            x       y       z     vdW  Elec       q    Type
REMARK                         _______ _______ _______ _____ _____    ______ ____
ROOT
ATOM      1  N   UNL     1      12.788  11.976  61.022  0.00  0.00    +0.000 NA
ATOM      2  N   UNL     1      14.871  12.515  58.202  0.00  0.00    +0.000 NA
ATOM      3  C   UNL     1      13.970  12.114  60.475  0.00  0.00    +0.000 C 
ATOM      4  C   UNL     1      13.854  12.456  59.001  0.00  0.00    +0.000 C 
ATOM      5  C   UNL     1      12.420  12.585  58.778  0.00  0.00    +0.000 A 
ATOM      6  C   UNL     1      11.855  12.269  60.014  0.00  0.00    +0.000 A 
ATOM      7  C   UNL     1      11.653  12.909  57.673  0.00  0.00    +0.000 A 
ATOM      8  C   UNL     1      10.480  12.271  60.170  0.00  0.00    +0.000 A 
ATOM      9  C   UNL     1      10.265  12.912  57.828  0.00  0.00    +0.000 A 
ATOM     10  C   UNL     1       9.682  12.594  59.067  0.00  0.00    +0.000 A 
ENDROOT
BRANCH   3  12
ATOM     11  N   UNL     1      17.031  11.021  62.084  0.00  0.00    +0.000 N 
ATOM     12  C   UNL     1      15.170  11.923  61.256  0.00  0.00    +0.000 A 
ATOM     13  C   UNL     1      15.737  12.824  62.220  0.00  0.00    +0.000 A 
ATOM     14  C   UNL     1      16.890  12.227  62.728  0.00  0.00    +0.000 A 
ATOM     15  C   UNL     1      16.018  10.832  61.181  0.00  0.00    +0.000 A 
ATOM     16  C   UNL     1      15.368  14.091  62.721  0.00  0.00    +0.000 A 
ATOM     17  C   UNL     1      17.693  12.827  63.704  0.00  0.00    +0.000 A 
ATOM     18  C   UNL     1      16.158  14.708  63.697  0.00  0.00    +0.000 A 
ATOM     19  C   UNL     1      17.304  14.083  64.181  0.00  0.00    +0.000 A 
ATOM     20  H   UNL     1      17.798  10.386  62.246  0.00  0.00    +0.000 HD
BRANCH  15  21
ATOM     21  O   UNL     1      15.977   9.765  60.391  0.00  0.00    +0.000 OA
ATOM     22  H   UNL     1      15.881   8.955  60.917  0.00  0.00    +0.000 HD
ENDBRANCH  15  21
ENDBRANCH   3  12
BRANCH   2  23
ATOM     23  O   UNL     1      14.496  12.801  56.887  0.00  0.00    +0.000 OA
BRANCH  23  24
ATOM     24  C   UNL     1      15.675  12.880  56.090  0.00  0.00    +0.000 C 
BRANCH  24  25
ATOM     25  C   UNL     1      16.898  12.697  56.977  0.00  0.00    +0.000 C 
BRANCH  25  26
ATOM     26  C   UNL     1      17.646  11.384  56.746  0.00  0.00    +0.000 C 
BRANCH  26  27
ATOM     27  O   UNL     1      17.206  10.446  57.739  0.00  0.00    +0.000 OA
ATOM     28  H   UNL     1      16.631  10.970  58.332  0.00  0.00    +0.000 HD
ENDBRANCH  26  27
BRANCH  26  29
ATOM     29  C   UNL     1      17.410  10.766  55.365  0.00  0.00    +0.000 C 
BRANCH  29  30
ATOM     30  O   UNL     1      16.722   9.523  55.544  0.00  0.00    +0.000 OA
ATOM     31  H   UNL     1      16.785   9.046  54.697  0.00  0.00    +0.000 HD
ENDBRANCH  29  30
ENDBRANCH  26  29
ENDBRANCH  25  26
ENDBRANCH  24  25
ENDBRANCH  23  24
ENDBRANCH   2  23
TORSDOF 9
ENDMDL
MODEL 2
REMARK VINA RESULT:      -4.5      1.826      2.722
REMARK  Name = 
REMARK  9 active torsions:
REMARK  status: ('A' for Active; 'I' for Inactive)
REMARK    1  A    between atoms: O_1  and  N_7
REMARK    2  A    between atoms: O_1  and  C_20
REMARK    3  A    between atoms: O_2  and  C_14
REMARK    4  A    between atoms: O_3  and  C_18
REMARK    5  A    between atoms: O_4  and  C_25
REMARK    6  A    between atoms: C_8  and  C_10
REMARK    7  A    between atoms: C_17  and  C_18
REMARK    8  A    between atoms: C_17  and  C_20
REMARK    9  A    between atoms: C_18  and  C_25
REMARK                            x       y       z     vdW  Elec       q    Type
REMARK                         _______ _______ _______ _____ _____    ______ ____
ROOT
ATOM      1  N   UNL     1      12.822  12.147  61.068  0.00  0.00    +0.000 NA
ATOM      2  N   UNL     1      14.926  12.646  58.257  0.00  0.00    +0.000 NA
ATOM      3  C   UNL     1      14.005  12.312  60.533  0.00  0.00    +0.000 C 
ATOM      4  C   UNL     1      13.898  12.579  59.042  0.00  0.00    +0.000 C 
ATOM      5  C   UNL     1      12.464  12.633  58.793  0.00  0.00    +0.000 A 
ATOM      6  C   UNL     1      11.893  12.350  60.033  0.00  0.00    +0.000 A 
ATOM      7  C   UNL     1      11.703  12.869  57.662  0.00  0.00    +0.000 A 
ATOM      8  C   UNL     1      10.517  12.297  60.169  0.00  0.00    +0.000 A 
ATOM      9  C   UNL     1      10.313  12.817  57.797  0.00  0.00    +0.000 A 
ATOM     10  C   UNL     1       9.724  12.532  59.041  0.00  0.00    +0.000 A 
ENDROOT
BRANCH   3  12
ATOM     11  N   UNL     1      16.752  12.648  62.878  0.00  0.00    +0.000 N 
ATOM     12  C   UNL     1      15.198  12.213  61.340  0.00  0.00    +0.000 A 
ATOM     13  C   UNL     1      16.218  11.205  61.272  0.00  0.00    +0.000 A 
ATOM     14  C   UNL     1      17.179  11.511  62.235  0.00  0.00    +0.000 A 
ATOM     15  C   UNL     1      15.552  13.071  62.367  0.00  0.00    +0.000 A 
ATOM     16  C   UNL     1      16.423  10.063  60.468  0.00  0.00    +0.000 A 
ATOM     17  C   UNL     1      18.329  10.738  62.438  0.00  0.00    +0.000 A 
ATOM     18  C   UNL     1      17.565   9.277  60.656  0.00  0.00    +0.000 A 
ATOM     19  C   UNL     1      18.504   9.613  61.627  0.00  0.00    +0.000 A 
ATOM     20  H   UNL     1      17.251  13.082  63.639  0.00  0.00    +0.000 HD
BRANCH  15  21
ATOM     21  O   UNL     1      14.907  14.116  62.874  0.00  0.00    +0.000 OA
ATOM     22  H   UNL     1      15.269  14.944  62.521  0.00  0.00    +0.000 HD
ENDBRANCH  15  21
ENDBRANCH   3  12
BRANCH   2  23
ATOM     23  O   UNL     1      14.560  12.852  56.924  0.00  0.00    +0.000 OA
BRANCH  23  24
ATOM     24  C   UNL     1      15.747  12.924  56.139  0.00  0.00    +0.000 C 
BRANCH  24  25
ATOM     25  C   UNL     1      16.071  11.545  55.585  0.00  0.00    +0.000 C 
BRANCH  25  26
ATOM     26  C   UNL     1      15.031  11.004  54.603  0.00  0.00    +0.000 C 
BRANCH  26  27
ATOM     27  O   UNL     1      13.841  10.701  55.346  0.00  0.00    +0.000 OA
ATOM     28  H   UNL     1      13.301  11.514  55.284  0.00  0.00    +0.000 HD
ENDBRANCH  26  27
BRANCH  26  29
ATOM     29  C   UNL     1      14.661  11.984  53.485  0.00  0.00    +0.000 C 
BRANCH  29  30
ATOM     30  O   UNL     1      15.676  11.915  52.478  0.00  0.00    +0.000 OA
ATOM     31  H   UNL     1      15.769  12.815  52.116  0.00  0.00    +0.000 HD
ENDBRANCH  29  30
ENDBRANCH  26  29
ENDBRANCH  25  26
ENDBRANCH  24  25
ENDBRANCH  23  24
ENDBRANCH   2  23
TORSDOF 9
ENDMDL
MODEL 3
REMARK VINA RESULT:      -4.4      2.920      7.521
REMARK  Name = 
REMARK  9 active torsions:
REMARK  status: ('A' for Active; 'I' for Inactive)
REMARK    1  A    between atoms: O_1  and  N_7
REMARK    2  A    between atoms: O_1  and  C_20
REMARK    3  A    between atoms: O_2  and  C_14
REMARK    4  A    between atoms: O_3  and  C_18
REMARK    5  A    between atoms: O_4  and  C_25
REMARK    6  A    between atoms: C_8  and  C_10
REMARK    7  A    between atoms: C_17  and  C_18
REMARK    8  A    between atoms: C_17  and  C_20
REMARK    9  A    between atoms: C_18  and  C_25
REMARK                            x       y       z     vdW  Elec       q    Type
REMARK                         _______ _______ _______ _____ _____    ______ ____
ROOT
ATOM      1  N   UNL     1      16.857   9.910  55.039  0.00  0.00    +0.000 NA
ATOM      2  N   UNL     1      16.464  12.818  57.031  0.00  0.00    +0.000 NA
ATOM      3  C   UNL     1      16.319  11.082  55.270  0.00  0.00    +0.000 C 
ATOM      4  C   UNL     1      16.914  11.721  56.511  0.00  0.00    +0.000 C 
ATOM      5  C   UNL     1      17.948  10.786  56.932  0.00  0.00    +0.000 A 
ATOM      6  C   UNL     1      17.842   9.731  56.025  0.00  0.00    +0.000 A 
ATOM      7  C   UNL     1      18.870  10.786  57.964  0.00  0.00    +0.000 A 
ATOM      8  C   UNL     1      18.676   8.633  56.135  0.00  0.00    +0.000 A 
ATOM      9  C   UNL     1      19.713   9.678  58.077  0.00  0.00    +0.000 A 
ATOM     10  C   UNL     1      19.616   8.608  57.170  0.00  0.00    +0.000 A 
ENDROOT
BRANCH   3  12
ATOM     11  N   UNL     1      14.199  12.274  52.579  0.00  0.00    +0.000 N 
ATOM     12  C   UNL     1      15.286  11.600  54.404  0.00  0.00    +0.000 A 
ATOM     13  C   UNL     1      13.967  12.027  54.778  0.00  0.00    +0.000 A 
ATOM     14  C   UNL     1      13.318  12.454  53.619  0.00  0.00    +0.000 A 
ATOM     15  C   UNL     1      15.378  11.740  53.031  0.00  0.00    +0.000 A 
ATOM     16  C   UNL     1      13.266  12.106  56.000  0.00  0.00    +0.000 A 
ATOM     17  C   UNL     1      12.010  12.951  53.617  0.00  0.00    +0.000 A 
ATOM     18  C   UNL     1      11.956  12.600  56.019  0.00  0.00    +0.000 A 
ATOM     19  C   UNL     1      11.339  13.016  54.842  0.00  0.00    +0.000 A 
ATOM     20  H   UNL     1      13.980  12.483  51.617  0.00  0.00    +0.000 HD
BRANCH  15  21
ATOM     21  O   UNL     1      16.361  11.416  52.198  0.00  0.00    +0.000 OA
ATOM     22  H   UNL     1      16.976  10.795  52.621  0.00  0.00    +0.000 HD
ENDBRANCH  15  21
ENDBRANCH   3  12
BRANCH   2  23
ATOM     23  O   UNL     1      17.149  13.172  58.196  0.00  0.00    +0.000 OA
BRANCH  23  24
ATOM     24  C   UNL     1      16.203  13.663  59.142  0.00  0.00    +0.000 C 
BRANCH  24  25
ATOM     25  C   UNL     1      16.291  12.840  60.418  0.00  0.00    +0.000 C 
BRANCH  25  26
ATOM     26  C   UNL     1      15.242  11.732  60.520  0.00  0.00    +0.000 C 
BRANCH  26  27
ATOM     27  O   UNL     1      14.792  11.428  59.191  0.00  0.00    +0.000 OA
ATOM     28  H   UNL     1      13.816  11.440  59.257  0.00  0.00    +0.000 HD
ENDBRANCH  26  27
BRANCH  26  29
ATOM     29  C   UNL     1      15.761  10.438  61.157  0.00  0.00    +0.000 C 
BRANCH  29  30
ATOM     30  O   UNL     1      16.374   9.651  60.130  0.00  0.00    +0.000 OA
ATOM     31  H   UNL     1      17.163  10.141  59.838  0.00  0.00    +0.000 HD
ENDBRANCH  29  30
ENDBRANCH  26  29
ENDBRANCH  25  26
ENDBRANCH  24  25
ENDBRANCH  23  24
ENDBRANCH   2  23
TORSDOF 9
ENDMDL
MODEL 4
REMARK VINA RESULT:      -4.2      3.261      7.989
REMARK  Name = 
REMARK  9 active torsions:
REMARK  status: ('A' for Active; 'I' for Inactive)
REMARK    1  A    between atoms: O_1  and  N_7
REMARK    2  A    between atoms: O_1  and  C_20
REMARK    3  A    between atoms: O_2  and  C_14
REMARK    4  A    between atoms: O_3  and  C_18
REMARK    5  A    between atoms: O_4  and  C_25
REMARK    6  A    between atoms: C_8  and  C_10
REMARK    7  A    between atoms: C_17  and  C_18
REMARK    8  A    between atoms: C_17  and  C_20
REMARK    9  A    between atoms: C_18  and  C_25
REMARK                            x       y       z     vdW  Elec       q    Type
REMARK                         _______ _______ _______ _____ _____    ______ ____
ROOT
ATOM      1  N   UNL     1      17.003   9.834  55.065  0.00  0.00    +0.000 NA
ATOM      2  N   UNL     1      16.505  12.726  57.058  0.00  0.00    +0.000 NA
ATOM      3  C   UNL     1      16.440  10.996  55.285  0.00  0.00    +0.000 C 
ATOM      4  C   UNL     1      16.987  11.638  56.547  0.00  0.00    +0.000 C 
ATOM      5  C   UNL     1      18.024  10.718  56.993  0.00  0.00    +0.000 A 
ATOM      6  C   UNL     1      17.961   9.667  56.078  0.00  0.00    +0.000 A 
ATOM      7  C   UNL     1      18.914  10.728  58.052  0.00  0.00    +0.000 A 
ATOM      8  C   UNL     1      18.809   8.581  56.208  0.00  0.00    +0.000 A 
ATOM      9  C   UNL     1      19.772   9.632  58.185  0.00  0.00    +0.000 A 
ATOM     10  C   UNL     1      19.719   8.566  57.270  0.00  0.00    +0.000 A 
ENDROOT
BRANCH   3  12
ATOM     11  N   UNL     1      13.435  11.987  53.511  0.00  0.00    +0.000 N 
ATOM     12  C   UNL     1      15.424  11.503  54.392  0.00  0.00    +0.000 A 
ATOM     13  C   UNL     1      15.619  12.246  53.179  0.00  0.00    +0.000 A 
ATOM     14  C   UNL     1      14.360  12.522  52.647  0.00  0.00    +0.000 A 
ATOM     15  C   UNL     1      14.057  11.390  54.577  0.00  0.00    +0.000 A 
ATOM     16  C   UNL     1      16.754  12.700  52.472  0.00  0.00    +0.000 A 
ATOM     17  C   UNL     1      14.175  13.226  51.451  0.00  0.00    +0.000 A 
ATOM     18  C   UNL     1      16.589  13.406  51.276  0.00  0.00    +0.000 A 
ATOM     19  C   UNL     1      15.317  13.664  50.774  0.00  0.00    +0.000 A 
ATOM     20  H   UNL     1      12.438  12.058  53.379  0.00  0.00    +0.000 HD
BRANCH  15  21
ATOM     21  O   UNL     1      13.367  10.859  55.580  0.00  0.00    +0.000 OA
ATOM     22  H   UNL     1      13.929  10.757  56.365  0.00  0.00    +0.000 HD
ENDBRANCH  15  21
ENDBRANCH   3  12
BRANCH   2  23
ATOM     23  O   UNL     1      17.150  13.085  58.244  0.00  0.00    +0.000 OA
BRANCH  23  24
ATOM     24  C   UNL     1      16.174  13.591  59.151  0.00  0.00    +0.000 C 
BRANCH  24  25
ATOM     25  C   UNL     1      16.222  12.791  60.444  0.00  0.00    +0.000 C 
BRANCH  25  26
ATOM     26  C   UNL     1      15.158  11.698  60.544  0.00  0.00    +0.000 C 
BRANCH  26  27
ATOM     27  O   UNL     1      14.699  11.408  59.214  0.00  0.00    +0.000 OA
ATOM     28  H   UNL     1      13.724  11.433  59.283  0.00  0.00    +0.000 HD
ENDBRANCH  26  27
BRANCH  26  29
ATOM     29  C   UNL     1      15.660  10.393  61.171  0.00  0.00    +0.000 C 
BRANCH  29  30
ATOM     30  O   UNL     1      16.198   9.574  60.128  0.00  0.00    +0.000 OA
ATOM     31  H   UNL     1      15.655   8.766  60.101  0.00  0.00    +0.000 HD
ENDBRANCH  29  30
ENDBRANCH  26  29
ENDBRANCH  25  26
ENDBRANCH  24  25
ENDBRANCH  23  24
ENDBRANCH   2  23
TORSDOF 9
ENDMDL
MODEL 5
REMARK VINA RESULT:      -4.1      5.367      9.555
REMARK  Name = 
REMARK  9 active torsions:
REMARK  status: ('A' for Active; 'I' for Inactive)
REMARK    1  A    between atoms: O_1  and  N_7
REMARK    2  A    between atoms: O_1  and  C_20
REMARK    3  A    between atoms: O_2  and  C_14
REMARK    4  A    between atoms: O_3  and  C_18
REMARK    5  A    between atoms: O_4  and  C_25
REMARK    6  A    between atoms: C_8  and  C_10
REMARK    7  A    between atoms: C_17  and  C_18
REMARK    8  A    between atoms: C_17  and  C_20
REMARK    9  A    between atoms: C_18  and  C_25
REMARK                            x       y       z     vdW  Elec       q    Type
REMARK                         _______ _______ _______ _____ _____    ______ ____
ROOT
ATOM      1  N   UNL     1       9.871  11.719  59.988  0.00  0.00    +0.000 NA
ATOM      2  N   UNL     1       9.132  12.604  63.343  0.00  0.00    +0.000 NA
ATOM      3  C   UNL     1       9.031  11.849  60.985  0.00  0.00    +0.000 C 
ATOM      4  C   UNL     1       9.704  12.486  62.187  0.00  0.00    +0.000 C 
ATOM      5  C   UNL     1      11.049  12.793  61.721  0.00  0.00    +0.000 A 
ATOM      6  C   UNL     1      11.079  12.293  60.418  0.00  0.00    +0.000 A 
ATOM      7  C   UNL     1      12.145  13.400  62.307  0.00  0.00    +0.000 A 
ATOM      8  C   UNL     1      12.232  12.395  59.661  0.00  0.00    +0.000 A 
ATOM      9  C   UNL     1      13.311  13.505  61.544  0.00  0.00    +0.000 A 
ATOM     10  C   UNL     1      13.355  13.005  60.230  0.00  0.00    +0.000 A 
ENDROOT
BRANCH   3  12
ATOM     11  N   UNL     1       5.438  11.386  60.807  0.00  0.00    +0.000 N 
ATOM     12  C   UNL     1       7.666  11.395  60.861  0.00  0.00    +0.000 A 
ATOM     13  C   UNL     1       7.212  10.067  60.558  0.00  0.00    +0.000 A 
ATOM     14  C   UNL     1       5.817  10.092  60.544  0.00  0.00    +0.000 A 
ATOM     15  C   UNL     1       6.537  12.187  60.978  0.00  0.00    +0.000 A 
ATOM     16  C   UNL     1       7.858   8.837  60.308  0.00  0.00    +0.000 A 
ATOM     17  C   UNL     1       5.037   8.957  60.291  0.00  0.00    +0.000 A 
ATOM     18  C   UNL     1       7.095   7.692  60.053  0.00  0.00    +0.000 A 
ATOM     19  C   UNL     1       5.705   7.753  60.046  0.00  0.00    +0.000 A 
ATOM     20  H   UNL     1       4.478  11.694  60.836  0.00  0.00    +0.000 HD
BRANCH  15  21
ATOM     21  O   UNL     1       6.423  13.495  61.179  0.00  0.00    +0.000 OA
ATOM     22  H   UNL     1       5.832  13.675  61.927  0.00  0.00    +0.000 HD
ENDBRANCH  15  21
ENDBRANCH   3  12
BRANCH   2  23
ATOM     23  O   UNL     1       9.976  13.179  64.296  0.00  0.00    +0.000 OA
BRANCH  23  24
ATOM     24  C   UNL     1       9.171  13.809  65.289  0.00  0.00    +0.000 C 
BRANCH  24  25
ATOM     25  C   UNL     1       9.897  13.772  66.626  0.00  0.00    +0.000 C 
BRANCH  25  26
ATOM     26  C   UNL     1       9.730  12.460  67.392  0.00  0.00    +0.000 C 
BRANCH  26  27
ATOM     27  O   UNL     1       9.744  11.388  66.437  0.00  0.00    +0.000 OA
ATOM     28  H   UNL     1       9.255  10.664  66.877  0.00  0.00    +0.000 HD
ENDBRANCH  26  27
BRANCH  26  29
ATOM     29  C   UNL     1      10.831  12.196  68.425  0.00  0.00    +0.000 C 
BRANCH  29  30
ATOM     30  O   UNL     1      11.786  11.304  67.840  0.00  0.00    +0.000 OA
ATOM     31  H   UNL     1      11.798  11.498  66.885  0.00  0.00    +0.000 HD
ENDBRANCH  29  30
ENDBRANCH  26  29
ENDBRANCH  25  26
ENDBRANCH  24  25
ENDBRANCH  23  24
ENDBRANCH   2  23
TORSDOF 9
ENDMDL
MODEL 6
REMARK VINA RESULT:      -4.0     14.713     17.190
REMARK  Name = 
REMARK  9 active torsions:
REMARK  status: ('A' for Active; 'I' for Inactive)
REMARK    1  A    between atoms: O_1  and  N_7
REMARK    2  A    between atoms: O_1  and  C_20
REMARK    3  A    between atoms: O_2  and  C_14
REMARK    4  A    between atoms: O_3  and  C_18
REMARK    5  A    between atoms: O_4  and  C_25
REMARK    6  A    between atoms: C_8  and  C_10
REMARK    7  A    between atoms: C_17  and  C_18
REMARK    8  A    between atoms: C_17  and  C_20
REMARK    9  A    between atoms: C_18  and  C_25
REMARK                            x       y       z     vdW  Elec       q    Type
REMARK                         _______ _______ _______ _____ _____    ______ ____
ROOT
ATOM      1  N   UNL     1       1.593   9.684  67.391  0.00  0.00    +0.000 NA
ATOM      2  N   UNL     1       0.106   6.555  68.155  0.00  0.00    +0.000 NA
ATOM      3  C   UNL     1       1.080   8.832  68.243  0.00  0.00    +0.000 C 
ATOM      4  C   UNL     1       0.745   7.516  67.565  0.00  0.00    +0.000 C 
ATOM      5  C   UNL     1       1.219   7.688  66.199  0.00  0.00    +0.000 A 
ATOM      6  C   UNL     1       1.690   9.001  66.167  0.00  0.00    +0.000 A 
ATOM      7  C   UNL     1       1.244   6.863  65.089  0.00  0.00    +0.000 A 
ATOM      8  C   UNL     1       2.208   9.524  64.995  0.00  0.00    +0.000 A 
ATOM      9  C   UNL     1       1.767   7.390  63.905  0.00  0.00    +0.000 A 
ATOM     10  C   UNL     1       2.245   8.711  63.858  0.00  0.00    +0.000 A 
ENDROOT
BRANCH   3  12
ATOM     11  N   UNL     1      -0.031  10.041  71.477  0.00  0.00    +0.000 N 
ATOM     12  C   UNL     1       0.881   9.203  69.624  0.00  0.00    +0.000 A 
ATOM     13  C   UNL     1       1.747   8.931  70.736  0.00  0.00    +0.000 A 
ATOM     14  C   UNL     1       1.157   9.477  71.875  0.00  0.00    +0.000 A 
ATOM     15  C   UNL     1      -0.224   9.866  70.131  0.00  0.00    +0.000 A 
ATOM     16  C   UNL     1       2.992   8.280  70.879  0.00  0.00    +0.000 A 
ATOM     17  C   UNL     1       1.741   9.406  73.145  0.00  0.00    +0.000 A 
ATOM     18  C   UNL     1       3.591   8.199  72.140  0.00  0.00    +0.000 A 
ATOM     19  C   UNL     1       2.973   8.755  73.256  0.00  0.00    +0.000 A 
ATOM     20  H   UNL     1      -0.676  10.493  72.107  0.00  0.00    +0.000 HD
BRANCH  15  21
ATOM     21  O   UNL     1      -1.336  10.271  69.526  0.00  0.00    +0.000 OA
ATOM     22  H   UNL     1      -1.756   9.532  69.056  0.00  0.00    +0.000 HD
ENDBRANCH  15  21
ENDBRANCH   3  12
BRANCH   2  23
ATOM     23  O   UNL     1      -0.121   5.471  67.304  0.00  0.00    +0.000 OA
BRANCH  23  24
ATOM     24  C   UNL     1      -0.482   4.345  68.099  0.00  0.00    +0.000 C 
BRANCH  24  25
ATOM     25  C   UNL     1       0.606   3.286  68.001  0.00  0.00    +0.000 C 
BRANCH  25  26
ATOM     26  C   UNL     1       1.674   3.583  66.947  0.00  0.00    +0.000 C 
BRANCH  26  27
ATOM     27  O   UNL     1       2.607   4.514  67.517  0.00  0.00    +0.000 OA
ATOM     28  H   UNL     1       2.439   5.351  67.040  0.00  0.00    +0.000 HD
ENDBRANCH  26  27
BRANCH  26  29
ATOM     29  C   UNL     1       2.453   2.348  66.483  0.00  0.00    +0.000 C 
BRANCH  29  30
ATOM     30  O   UNL     1       3.845   2.585  66.718  0.00  0.00    +0.000 OA
ATOM     31  H   UNL     1       4.327   2.157  65.987  0.00  0.00    +0.000 HD
ENDBRANCH  29  30
ENDBRANCH  26  29
ENDBRANCH  25  26
ENDBRANCH  24  25
ENDBRANCH  23  24
ENDBRANCH   2  23
TORSDOF 9
ENDMDL
MODEL 7
REMARK VINA RESULT:      -4.0     12.050     13.449
REMARK  Name = 
REMARK  9 active torsions:
REMARK  status: ('A' for Active; 'I' for Inactive)
REMARK    1  A    between atoms: O_1  and  N_7
REMARK    2  A    between atoms: O_1  and  C_20
REMARK    3  A    between atoms: O_2  and  C_14
REMARK    4  A    between atoms: O_3  and  C_18
REMARK    5  A    between atoms: O_4  and  C_25
REMARK    6  A    between atoms: C_8  and  C_10
REMARK    7  A    between atoms: C_17  and  C_18
REMARK    8  A    between atoms: C_17  and  C_20
REMARK    9  A    between atoms: C_18  and  C_25
REMARK                            x       y       z     vdW  Elec       q    Type
REMARK                         _______ _______ _______ _____ _____    ______ ____
ROOT
ATOM      1  N   UNL     1      15.213  -0.136  60.824  0.00  0.00    +0.000 NA
ATOM      2  N   UNL     1      18.441  -1.583  60.564  0.00  0.00    +0.000 NA
ATOM      3  C   UNL     1      16.445  -0.284  61.245  0.00  0.00    +0.000 C 
ATOM      4  C   UNL     1      17.240  -1.173  60.307  0.00  0.00    +0.000 C 
ATOM      5  C   UNL     1      16.315  -1.459  59.218  0.00  0.00    +0.000 A 
ATOM      6  C   UNL     1      15.132  -0.827  59.604  0.00  0.00    +0.000 A 
ATOM      7  C   UNL     1      16.423  -2.178  58.041  0.00  0.00    +0.000 A 
ATOM      8  C   UNL     1      14.009  -0.906  58.800  0.00  0.00    +0.000 A 
ATOM      9  C   UNL     1      15.290  -2.258  57.228  0.00  0.00    +0.000 A 
ATOM     10  C   UNL     1      14.091  -1.628  57.605  0.00  0.00    +0.000 A 
ENDROOT
BRANCH   3  12
ATOM     11  N   UNL     1      17.960   1.681  63.890  0.00  0.00    +0.000 N 
ATOM     12  C   UNL     1      16.884   0.344  62.470  0.00  0.00    +0.000 A 
ATOM     13  C   UNL     1      16.434   0.065  63.804  0.00  0.00    +0.000 A 
ATOM     14  C   UNL     1      17.134   0.907  64.669  0.00  0.00    +0.000 A 
ATOM     15  C   UNL     1      17.807   1.371  62.564  0.00  0.00    +0.000 A 
ATOM     16  C   UNL     1      15.504  -0.838  64.363  0.00  0.00    +0.000 A 
ATOM     17  C   UNL     1      16.952   0.896  66.057  0.00  0.00    +0.000 A 
ATOM     18  C   UNL     1      15.309  -0.864  65.748  0.00  0.00    +0.000 A 
ATOM     19  C   UNL     1      16.024  -0.009  66.581  0.00  0.00    +0.000 A 
ATOM     20  H   UNL     1      18.569   2.396  64.259  0.00  0.00    +0.000 HD
BRANCH  15  21
ATOM     21  O   UNL     1      18.455   2.034  61.612  0.00  0.00    +0.000 OA
ATOM     22  H   UNL     1      18.099   2.933  61.521  0.00  0.00    +0.000 HD
ENDBRANCH  15  21
ENDBRANCH   3  12
BRANCH   2  23
ATOM     23  O   UNL     1      18.937  -2.427  59.567  0.00  0.00    +0.000 OA
BRANCH  23  24
ATOM     24  C   UNL     1      20.313  -2.680  59.835  0.00  0.00    +0.000 C 
BRANCH  24  25
ATOM     25  C   UNL     1      21.149  -2.242  58.641  0.00  0.00    +0.000 C 
BRANCH  25  26
ATOM     26  C   UNL     1      21.145  -0.733  58.394  0.00  0.00    +0.000 C 
BRANCH  26  27
ATOM     27  O   UNL     1      19.817  -0.356  57.997  0.00  0.00    +0.000 OA
ATOM     28  H   UNL     1      19.848  -0.353  57.019  0.00  0.00    +0.000 HD
ENDBRANCH  26  27
BRANCH  26  29
ATOM     29  C   UNL     1      21.532   0.101  59.620  0.00  0.00    +0.000 C 
BRANCH  29  30
ATOM     30  O   UNL     1      20.367   0.800  60.070  0.00  0.00    +0.000 OA
ATOM     31  H   UNL     1      19.894   0.194  60.668  0.00  0.00    +0.000 HD
ENDBRANCH  29  30
ENDBRANCH  26  29
ENDBRANCH  25  26
ENDBRANCH  24  25
ENDBRANCH  23  24
ENDBRANCH   2  23
TORSDOF 9
ENDMDL
MODEL 8
REMARK VINA RESULT:      -4.0      3.956      8.055
REMARK  Name = 
REMARK  9 active torsions:
REMARK  status: ('A' for Active; 'I' for Inactive)
REMARK    1  A    between atoms: O_1  and  N_7
REMARK    2  A    between atoms: O_1  and  C_20
REMARK    3  A    between atoms: O_2  and  C_14
REMARK    4  A    between atoms: O_3  and  C_18
REMARK    5  A    between atoms: O_4  and  C_25
REMARK    6  A    between atoms: C_8  and  C_10
REMARK    7  A    between atoms: C_17  and  C_18
REMARK    8  A    between atoms: C_17  and  C_20
REMARK    9  A    between atoms: C_18  and  C_25
REMARK                            x       y       z     vdW  Elec       q    Type
REMARK                         _______ _______ _______ _____ _____    ______ ____
ROOT
ATOM      1  N   UNL     1      13.185  11.817  60.314  0.00  0.00    +0.000 NA
ATOM      2  N   UNL     1      11.933  14.273  62.547  0.00  0.00    +0.000 NA
ATOM      3  C   UNL     1      12.217  12.578  60.762  0.00  0.00    +0.000 C 
ATOM      4  C   UNL     1      12.716  13.513  61.849  0.00  0.00    +0.000 C 
ATOM      5  C   UNL     1      14.147  13.250  61.916  0.00  0.00    +0.000 A 
ATOM      6  C   UNL     1      14.346  12.223  60.993  0.00  0.00    +0.000 A 
ATOM      7  C   UNL     1      15.179  13.781  62.669  0.00  0.00    +0.000 A 
ATOM      8  C   UNL     1      15.612  11.696  60.802  0.00  0.00    +0.000 A 
ATOM      9  C   UNL     1      16.457  13.251  62.477  0.00  0.00    +0.000 A 
ATOM     10  C   UNL     1      16.672  12.216  61.551  0.00  0.00    +0.000 A 
ENDROOT
BRANCH   3  12
ATOM     11  N   UNL     1       8.688  12.062  60.105  0.00  0.00    +0.000 N 
ATOM     12  C   UNL     1      10.878  12.451  60.237  0.00  0.00    +0.000 A 
ATOM     13  C   UNL     1      10.435  12.726  58.899  0.00  0.00    +0.000 A 
ATOM     14  C   UNL     1       9.066  12.461  58.846  0.00  0.00    +0.000 A 
ATOM     15  C   UNL     1       9.760  12.072  60.959  0.00  0.00    +0.000 A 
ATOM     16  C   UNL     1      11.074  13.163  57.719  0.00  0.00    +0.000 A 
ATOM     17  C   UNL     1       8.306  12.612  57.680  0.00  0.00    +0.000 A 
ATOM     18  C   UNL     1      10.331  13.320  56.544  0.00  0.00    +0.000 A 
ATOM     19  C   UNL     1       8.966  13.047  56.527  0.00  0.00    +0.000 A 
ATOM     20  H   UNL     1       7.740  11.826  60.356  0.00  0.00    +0.000 HD
BRANCH  15  21
ATOM     21  O   UNL     1       9.627  11.785  62.249  0.00  0.00    +0.000 OA
ATOM     22  H   UNL     1      10.289  12.262  62.775  0.00  0.00    +0.000 HD
ENDBRANCH  15  21
ENDBRANCH   3  12
BRANCH   2  23
ATOM     23  O   UNL     1      12.629  15.002  63.515  0.00  0.00    +0.000 OA
BRANCH  23  24
ATOM     24  C   UNL     1      11.899  16.194  63.791  0.00  0.00    +0.000 C 
BRANCH  24  25
ATOM     25  C   UNL     1      11.009  15.973  65.005  0.00  0.00    +0.000 C 
BRANCH  25  26
ATOM     26  C   UNL     1       9.579  15.551  64.664  0.00  0.00    +0.000 C 
BRANCH  26  27
ATOM     27  O   UNL     1       9.424  15.633  63.239  0.00  0.00    +0.000 OA
ATOM     28  H   UNL     1       9.799  14.794  62.905  0.00  0.00    +0.000 HD
ENDBRANCH  26  27
BRANCH  26  29
ATOM     29  C   UNL     1       9.228  14.126  65.102  0.00  0.00    +0.000 C 
BRANCH  29  30
ATOM     30  O   UNL     1      10.318  13.268  64.747  0.00  0.00    +0.000 OA
ATOM     31  H   UNL     1      10.346  12.563  65.418  0.00  0.00    +0.000 HD
ENDBRANCH  29  30
ENDBRANCH  26  29
ENDBRANCH  25  26
ENDBRANCH  24  25
ENDBRANCH  23  24
ENDBRANCH   2  23
TORSDOF 9
ENDMDL
MODEL 9
REMARK VINA RESULT:      -4.0     16.932     19.907
REMARK  Name = 
REMARK  9 active torsions:
REMARK  status: ('A' for Active; 'I' for Inactive)
REMARK    1  A    between atoms: O_1  and  N_7
REMARK    2  A    between atoms: O_1  and  C_20
REMARK    3  A    between atoms: O_2  and  C_14
REMARK    4  A    between atoms: O_3  and  C_18
REMARK    5  A    between atoms: O_4  and  C_25
REMARK    6  A    between atoms: C_8  and  C_10
REMARK    7  A    between atoms: C_17  and  C_18
REMARK    8  A    between atoms: C_17  and  C_20
REMARK    9  A    between atoms: C_18  and  C_25
REMARK                            x       y       z     vdW  Elec       q    Type
REMARK                         _______ _______ _______ _____ _____    ______ ____
ROOT
ATOM      1  N   UNL     1       0.008   1.105  68.693  0.00  0.00    +0.000 NA
ATOM      2  N   UNL     1       1.119   4.433  68.175  0.00  0.00    +0.000 NA
ATOM      3  C   UNL     1      -0.206   2.396  68.659  0.00  0.00    +0.000 C 
ATOM      4  C   UNL     1       1.024   3.142  68.175  0.00  0.00    +0.000 C 
ATOM      5  C   UNL     1       1.972   2.086  67.844  0.00  0.00    +0.000 A 
ATOM      6  C   UNL     1       1.307   0.911  68.194  0.00  0.00    +0.000 A 
ATOM      7  C   UNL     1       3.256   2.087  67.328  0.00  0.00    +0.000 A 
ATOM      8  C   UNL     1       1.929  -0.314  68.030  0.00  0.00    +0.000 A 
ATOM      9  C   UNL     1       3.885   0.851  67.161  0.00  0.00    +0.000 A 
ATOM     10  C   UNL     1       3.227  -0.341  67.510  0.00  0.00    +0.000 A 
ENDROOT
BRANCH   3  12
ATOM     11  N   UNL     1      -3.502   3.872  68.995  0.00  0.00    +0.000 N 
ATOM     12  C   UNL     1      -1.478   2.942  69.070  0.00  0.00    +0.000 A 
ATOM     13  C   UNL     1      -1.997   3.038  70.405  0.00  0.00    +0.000 A 
ATOM     14  C   UNL     1      -3.256   3.634  70.326  0.00  0.00    +0.000 A 
ATOM     15  C   UNL     1      -2.453   3.442  68.224  0.00  0.00    +0.000 A 
ATOM     16  C   UNL     1      -1.507   2.685  71.681  0.00  0.00    +0.000 A 
ATOM     17  C   UNL     1      -4.048   3.893  71.451  0.00  0.00    +0.000 A 
ATOM     18  C   UNL     1      -2.285   2.936  72.817  0.00  0.00    +0.000 A 
ATOM     19  C   UNL     1      -3.537   3.532  72.701  0.00  0.00    +0.000 A 
ATOM     20  H   UNL     1      -4.356   4.282  68.648  0.00  0.00    +0.000 HD
BRANCH  15  21
ATOM     21  O   UNL     1      -2.490   3.508  66.898  0.00  0.00    +0.000 OA
ATOM     22  H   UNL     1      -2.415   4.428  66.600  0.00  0.00    +0.000 HD
ENDBRANCH  15  21
ENDBRANCH   3  12
BRANCH   2  23
ATOM     23  O   UNL     1       2.367   4.872  67.728  0.00  0.00    +0.000 OA
BRANCH  23  24
ATOM     24  C   UNL     1       2.380   6.297  67.759  0.00  0.00    +0.000 C 
BRANCH  24  25
ATOM     25  C   UNL     1       1.275   6.832  66.861  0.00  0.00    +0.000 C 
BRANCH  25  26
ATOM     26  C   UNL     1       1.514   6.599  65.369  0.00  0.00    +0.000 C 
BRANCH  26  27
ATOM     27  O   UNL     1       2.844   6.082  65.212  0.00  0.00    +0.000 OA
ATOM     28  H   UNL     1       3.163   6.479  64.376  0.00  0.00    +0.000 HD
ENDBRANCH  26  27
BRANCH  26  29
ATOM     29  C   UNL     1       0.537   5.608  64.728  0.00  0.00    +0.000 C 
BRANCH  29  30
ATOM     30  O   UNL     1       1.007   4.282  64.995  0.00  0.00    +0.000 OA
ATOM     31  H   UNL     1       1.793   4.376  65.562  0.00  0.00    +0.000 HD
ENDBRANCH  29  30
ENDBRANCH  26  29
ENDBRANCH  25  26
ENDBRANCH  24  25
ENDBRANCH  23  24
ENDBRANCH   2  23
TORSDOF 9
ENDMDL
