MODEL 1
REMARK VINA RESULT:      -3.4      0.000      0.000
REMARK  Name = IPA3.pdbqt.pdb
REMARK  5 active torsions:
REMARK  status: ('A' for Active; 'I' for Inactive)
REMARK    1  A    between atoms: S_1  and  S_2
REMARK    2  A    between atoms: S_1  and  C_15
REMARK    3  A    between atoms: S_2  and  C_3
REMARK    4  A    between atoms: C_10  and  O_13
REMARK    5  A    between atoms: C_22  and  O_25
REMARK                            x       y       z     vdW  Elec       q    Type
REMARK                         _______ _______ _______ _____ _____    ______ ____
ROOT
ATOM      1  S   UNL     1      15.133  15.560  62.003  0.00  0.00    +0.000 S 
ENDROOT
BRANCH   1   2
ATOM      2  C   UNL     1      14.005  14.330  61.332  0.00  0.00    +0.000 A 
ATOM      3  C   UNL     1      14.193  13.796  60.034  0.00  0.00    +0.000 A 
ATOM      4  C   UNL     1      13.294  12.810  59.564  0.00  0.00    +0.000 A 
ATOM      5  C   UNL     1      15.240  14.182  59.179  0.00  0.00    +0.000 A 
ATOM      6  C   UNL     1      12.232  12.384  60.357  0.00  0.00    +0.000 A 
ATOM      7  C   UNL     1      13.462  12.244  58.300  0.00  0.00    +0.000 A 
ATOM      8  C   UNL     1      12.040  12.922  61.623  0.00  0.00    +0.000 A 
ATOM      9  C   UNL     1      12.921  13.884  62.105  0.00  0.00    +0.000 A 
ATOM     10  C   UNL     1      14.514  12.641  57.480  0.00  0.00    +0.000 A 
ATOM     11  C   UNL     1      15.404  13.612  57.919  0.00  0.00    +0.000 A 
BRANCH   9  12
ATOM     12  O   UNL     1      12.674  14.360  63.366  0.00  0.00    +0.000 OA
ATOM     13  H   UNL     1      13.223  15.155  63.496  0.00  0.00    +0.000 HD
ENDBRANCH   9  12
ENDBRANCH   1   2
BRANCH   1  14
ATOM     14  S   UNL     1      16.404  14.391  63.127  0.00  0.00    +0.000 S 
BRANCH  14  15
ATOM     15  C   UNL     1      17.408  13.616  61.852  0.00  0.00    +0.000 A 
ATOM     16  C   UNL     1      17.129  12.305  61.396  0.00  0.00    +0.000 A 
ATOM     17  C   UNL     1      17.931  11.751  60.372  0.00  0.00    +0.000 A 
ATOM     18  C   UNL     1      16.081  11.514  61.899  0.00  0.00    +0.000 A 
ATOM     19  C   UNL     1      18.990  12.476  59.832  0.00  0.00    +0.000 A 
ATOM     20  C   UNL     1      17.672  10.471  59.882  0.00  0.00    +0.000 A 
ATOM     21  C   UNL     1      19.272  13.757  60.291  0.00  0.00    +0.000 A 
ATOM     22  C   UNL     1      18.487  14.320  61.290  0.00  0.00    +0.000 A 
ATOM     23  C   UNL     1      16.620   9.716  60.394  0.00  0.00    +0.000 A 
ATOM     24  C   UNL     1      15.823  10.238  61.407  0.00  0.00    +0.000 A 
BRANCH  22  25
ATOM     25  O   UNL     1      18.819  15.589  61.684  0.00  0.00    +0.000 OA
ATOM     26  H   UNL     1      19.280  16.018  60.940  0.00  0.00    +0.000 HD
ENDBRANCH  22  25
ENDBRANCH  14  15
ENDBRANCH   1  14
TORSDOF 5
ENDMDL
MODEL 2
REMARK VINA RESULT:      -3.4     14.090     15.753
REMARK  Name = IPA3.pdbqt.pdb
REMARK  5 active torsions:
REMARK  status: ('A' for Active; 'I' for Inactive)
REMARK    1  A    between atoms: S_1  and  S_2
REMARK    2  A    between atoms: S_1  and  C_15
REMARK    3  A    between atoms: S_2  and  C_3
REMARK    4  A    between atoms: C_10  and  O_13
REMARK    5  A    between atoms: C_22  and  O_25
REMARK                            x       y       z     vdW  Elec       q    Type
REMARK                         _______ _______ _______ _____ _____    ______ ____
ROOT
ATOM      1  S   UNL     1      20.493  -0.267  56.969  0.00  0.00    +0.000 S 
ENDROOT
BRANCH   1   2
ATOM      2  C   UNL     1      19.166  -0.050  55.775  0.00  0.00    +0.000 A 
ATOM      3  C   UNL     1      19.275   0.893  54.723  0.00  0.00    +0.000 A 
ATOM      4  C   UNL     1      18.215   1.006  53.793  0.00  0.00    +0.000 A 
ATOM      5  C   UNL     1      20.393   1.725  54.538  0.00  0.00    +0.000 A 
ATOM      6  C   UNL     1      17.076   0.215  53.919  0.00  0.00    +0.000 A 
ATOM      7  C   UNL     1      18.298   1.906  52.731  0.00  0.00    +0.000 A 
ATOM      8  C   UNL     1      16.965  -0.697  54.960  0.00  0.00    +0.000 A 
ATOM      9  C   UNL     1      18.002  -0.828  55.878  0.00  0.00    +0.000 A 
ATOM     10  C   UNL     1      19.423   2.710  52.570  0.00  0.00    +0.000 A 
ATOM     11  C   UNL     1      20.472   2.621  53.475  0.00  0.00    +0.000 A 
BRANCH   9  12
ATOM     12  O   UNL     1      17.825  -1.754  56.871  0.00  0.00    +0.000 OA
ATOM     13  H   UNL     1      17.066  -1.469  57.411  0.00  0.00    +0.000 HD
ENDBRANCH   9  12
ENDBRANCH   1   2
BRANCH   1  14
ATOM     14  S   UNL     1      21.496  -1.889  56.188  0.00  0.00    +0.000 S 
BRANCH  14  15
ATOM     15  C   UNL     1      22.208  -1.190  54.692  0.00  0.00    +0.000 A 
ATOM     16  C   UNL     1      21.583  -1.362  53.434  0.00  0.00    +0.000 A 
ATOM     17  C   UNL     1      22.168  -0.769  52.291  0.00  0.00    +0.000 A 
ATOM     18  C   UNL     1      20.391  -2.087  53.251  0.00  0.00    +0.000 A 
ATOM     19  C   UNL     1      23.350  -0.042  52.399  0.00  0.00    +0.000 A 
ATOM     20  C   UNL     1      21.568  -0.898  51.039  0.00  0.00    +0.000 A 
ATOM     21  C   UNL     1      23.972   0.113  53.632  0.00  0.00    +0.000 A 
ATOM     22  C   UNL     1      23.403  -0.455  54.766  0.00  0.00    +0.000 A 
ATOM     23  C   UNL     1      20.382  -1.614  50.892  0.00  0.00    +0.000 A 
ATOM     24  C   UNL     1      19.794  -2.211  52.000  0.00  0.00    +0.000 A 
BRANCH  22  25
ATOM     25  O   UNL     1      24.067  -0.252  55.948  0.00  0.00    +0.000 OA
ATOM     26  H   UNL     1      23.470   0.239  56.541  0.00  0.00    +0.000 HD
ENDBRANCH  22  25
ENDBRANCH  14  15
ENDBRANCH   1  14
TORSDOF 5
ENDMDL
MODEL 3
REMARK VINA RESULT:      -3.3     13.857     15.588
REMARK  Name = IPA3.pdbqt.pdb
REMARK  5 active torsions:
REMARK  status: ('A' for Active; 'I' for Inactive)
REMARK    1  A    between atoms: S_1  and  S_2
REMARK    2  A    between atoms: S_1  and  C_15
REMARK    3  A    between atoms: S_2  and  C_3
REMARK    4  A    between atoms: C_10  and  O_13
REMARK    5  A    between atoms: C_22  and  O_25
REMARK                            x       y       z     vdW  Elec       q    Type
REMARK                         _______ _______ _______ _____ _____    ______ ____
ROOT
ATOM      1  S   UNL     1      18.005   3.992  50.923  0.00  0.00    +0.000 S 
ENDROOT
BRANCH   1   2
ATOM      2  C   UNL     1      17.618   2.673  52.083  0.00  0.00    +0.000 A 
ATOM      3  C   UNL     1      18.602   2.162  52.964  0.00  0.00    +0.000 A 
ATOM      4  C   UNL     1      18.240   1.144  53.878  0.00  0.00    +0.000 A 
ATOM      5  C   UNL     1      19.930   2.621  52.996  0.00  0.00    +0.000 A 
ATOM      6  C   UNL     1      16.942   0.640  53.897  0.00  0.00    +0.000 A 
ATOM      7  C   UNL     1      19.176   0.633  54.776  0.00  0.00    +0.000 A 
ATOM      8  C   UNL     1      15.983   1.131  53.021  0.00  0.00    +0.000 A 
ATOM      9  C   UNL     1      16.320   2.140  52.124  0.00  0.00    +0.000 A 
ATOM     10  C   UNL     1      20.482   1.114  54.789  0.00  0.00    +0.000 A 
ATOM     11  C   UNL     1      20.861   2.109  53.897  0.00  0.00    +0.000 A 
BRANCH   9  12
ATOM     12  O   UNL     1      15.320   2.581  51.298  0.00  0.00    +0.000 OA
ATOM     13  H   UNL     1      15.235   1.941  50.568  0.00  0.00    +0.000 HD
ENDBRANCH   9  12
ENDBRANCH   1   2
BRANCH   1  14
ATOM     14  S   UNL     1      18.319   2.936  49.182  0.00  0.00    +0.000 S 
BRANCH  14  15
ATOM     15  C   UNL     1      19.860   2.084  49.546  0.00  0.00    +0.000 A 
ATOM     16  C   UNL     1      19.867   0.734  49.971  0.00  0.00    +0.000 A 
ATOM     17  C   UNL     1      21.107   0.099  50.218  0.00  0.00    +0.000 A 
ATOM     18  C   UNL     1      18.699  -0.030  50.152  0.00  0.00    +0.000 A 
ATOM     19  C   UNL     1      22.301   0.797  50.063  0.00  0.00    +0.000 A 
ATOM     20  C   UNL     1      21.153  -1.237  50.616  0.00  0.00    +0.000 A 
ATOM     21  C   UNL     1      22.292   2.127  49.661  0.00  0.00    +0.000 A 
ATOM     22  C   UNL     1      21.082   2.762  49.405  0.00  0.00    +0.000 A 
ATOM     23  C   UNL     1      19.979  -1.969  50.777  0.00  0.00    +0.000 A 
ATOM     24  C   UNL     1      18.750  -1.364  50.547  0.00  0.00    +0.000 A 
BRANCH  22  25
ATOM     25  O   UNL     1      21.154   4.070  49.003  0.00  0.00    +0.000 OA
ATOM     26  H   UNL     1      21.090   4.627  49.801  0.00  0.00    +0.000 HD
ENDBRANCH  22  25
ENDBRANCH  14  15
ENDBRANCH   1  14
TORSDOF 5
ENDMDL
MODEL 4
REMARK VINA RESULT:      -3.2      3.490      5.925
REMARK  Name = IPA3.pdbqt.pdb
REMARK  5 active torsions:
REMARK  status: ('A' for Active; 'I' for Inactive)
REMARK    1  A    between atoms: S_1  and  S_2
REMARK    2  A    between atoms: S_1  and  C_15
REMARK    3  A    between atoms: S_2  and  C_3
REMARK    4  A    between atoms: C_10  and  O_13
REMARK    5  A    between atoms: C_22  and  O_25
REMARK                            x       y       z     vdW  Elec       q    Type
REMARK                         _______ _______ _______ _____ _____    ______ ____
ROOT
ATOM      1  S   UNL     1      16.282  12.449  58.312  0.00  0.00    +0.000 S 
ENDROOT
BRANCH   1   2
ATOM      2  C   UNL     1      17.377  12.676  59.721  0.00  0.00    +0.000 A 
ATOM      3  C   UNL     1      17.847  11.568  60.467  0.00  0.00    +0.000 A 
ATOM      4  C   UNL     1      18.730  11.798  61.549  0.00  0.00    +0.000 A 
ATOM      5  C   UNL     1      17.497  10.236  60.186  0.00  0.00    +0.000 A 
ATOM      6  C   UNL     1      19.115  13.093  61.886  0.00  0.00    +0.000 A 
ATOM      7  C   UNL     1      19.232  10.730  62.292  0.00  0.00    +0.000 A 
ATOM      8  C   UNL     1      18.638  14.179  61.162  0.00  0.00    +0.000 A 
ATOM      9  C   UNL     1      17.779  13.970  60.089  0.00  0.00    +0.000 A 
ATOM     10  C   UNL     1      18.873   9.421  61.984  0.00  0.00    +0.000 A 
ATOM     11  C   UNL     1      18.003   9.173  60.930  0.00  0.00    +0.000 A 
BRANCH   9  12
ATOM     12  O   UNL     1      17.359  15.087  59.416  0.00  0.00    +0.000 OA
ATOM     13  H   UNL     1      16.392  15.025  59.313  0.00  0.00    +0.000 HD
ENDBRANCH   9  12
ENDBRANCH   1   2
BRANCH   1  14
ATOM     14  S   UNL     1      17.601  12.573  56.734  0.00  0.00    +0.000 S 
BRANCH  14  15
ATOM     15  C   UNL     1      18.558  11.064  56.940  0.00  0.00    +0.000 A 
ATOM     16  C   UNL     1      19.810  11.076  57.601  0.00  0.00    +0.000 A 
ATOM     17  C   UNL     1      20.511   9.858  57.763  0.00  0.00    +0.000 A 
ATOM     18  C   UNL     1      20.401  12.240  58.125  0.00  0.00    +0.000 A 
ATOM     19  C   UNL     1      19.987   8.669  57.264  0.00  0.00    +0.000 A 
ATOM     20  C   UNL     1      21.736   9.828  58.428  0.00  0.00    +0.000 A 
ATOM     21  C   UNL     1      18.765   8.662  56.601  0.00  0.00    +0.000 A 
ATOM     22  C   UNL     1      18.059   9.849  56.444  0.00  0.00    +0.000 A 
ATOM     23  C   UNL     1      22.291  10.996  58.945  0.00  0.00    +0.000 A 
ATOM     24  C   UNL     1      21.623  12.205  58.791  0.00  0.00    +0.000 A 
BRANCH  22  25
ATOM     25  O   UNL     1      16.858   9.762  55.789  0.00  0.00    +0.000 OA
ATOM     26  H   UNL     1      17.041   9.489  54.871  0.00  0.00    +0.000 HD
ENDBRANCH  22  25
ENDBRANCH  14  15
ENDBRANCH   1  14
TORSDOF 5
ENDMDL
MODEL 5
REMARK VINA RESULT:      -3.1      3.474      5.376
REMARK  Name = IPA3.pdbqt.pdb
REMARK  5 active torsions:
REMARK  status: ('A' for Active; 'I' for Inactive)
REMARK    1  A    between atoms: S_1  and  S_2
REMARK    2  A    between atoms: S_1  and  C_15
REMARK    3  A    between atoms: S_2  and  C_3
REMARK    4  A    between atoms: C_10  and  O_13
REMARK    5  A    between atoms: C_22  and  O_25
REMARK                            x       y       z     vdW  Elec       q    Type
REMARK                         _______ _______ _______ _____ _____    ______ ____
ROOT
ATOM      1  S   UNL     1      14.992  12.481  58.714  0.00  0.00    +0.000 S 
ENDROOT
BRANCH   1   2
ATOM      2  C   UNL     1      15.678  12.591  60.373  0.00  0.00    +0.000 A 
ATOM      3  C   UNL     1      16.461  11.542  60.913  0.00  0.00    +0.000 A 
ATOM      4  C   UNL     1      17.001  11.689  62.212  0.00  0.00    +0.000 A 
ATOM      5  C   UNL     1      16.750  10.353  60.221  0.00  0.00    +0.000 A 
ATOM      6  C   UNL     1      16.752  12.840  62.956  0.00  0.00    +0.000 A 
ATOM      7  C   UNL     1      17.797  10.687  62.766  0.00  0.00    +0.000 A 
ATOM      8  C   UNL     1      15.969  13.860  62.431  0.00  0.00    +0.000 A 
ATOM      9  C   UNL     1      15.440  13.736  61.151  0.00  0.00    +0.000 A 
ATOM     10  C   UNL     1      18.071   9.524  62.052  0.00  0.00    +0.000 A 
ATOM     11  C   UNL     1      17.546   9.355  60.778  0.00  0.00    +0.000 A 
BRANCH   9  12
ATOM     12  O   UNL     1      14.687  14.787  60.697  0.00  0.00    +0.000 OA
ATOM     13  H   UNL     1      15.300  15.495  60.425  0.00  0.00    +0.000 HD
ENDBRANCH   9  12
ENDBRANCH   1   2
BRANCH   1  14
ATOM     14  S   UNL     1      16.564  13.163  57.568  0.00  0.00    +0.000 S 
BRANCH  14  15
ATOM     15  C   UNL     1      16.697  11.869  56.326  0.00  0.00    +0.000 A 
ATOM     16  C   UNL     1      17.664  10.842  56.440  0.00  0.00    +0.000 A 
ATOM     17  C   UNL     1      17.711   9.832  55.452  0.00  0.00    +0.000 A 
ATOM     18  C   UNL     1      18.588  10.758  57.498  0.00  0.00    +0.000 A 
ATOM     19  C   UNL     1      16.830   9.856  54.374  0.00  0.00    +0.000 A 
ATOM     20  C   UNL     1      18.636   8.792  55.543  0.00  0.00    +0.000 A 
ATOM     21  C   UNL     1      15.891  10.874  54.255  0.00  0.00    +0.000 A 
ATOM     22  C   UNL     1      15.826  11.869  55.224  0.00  0.00    +0.000 A 
ATOM     23  C   UNL     1      19.530   8.731  56.608  0.00  0.00    +0.000 A 
ATOM     24  C   UNL     1      19.508   9.717  57.587  0.00  0.00    +0.000 A 
BRANCH  22  25
ATOM     25  O   UNL     1      14.869  12.832  55.045  0.00  0.00    +0.000 OA
ATOM     26  H   UNL     1      14.366  12.907  55.877  0.00  0.00    +0.000 HD
ENDBRANCH  22  25
ENDBRANCH  14  15
ENDBRANCH   1  14
TORSDOF 5
ENDMDL
MODEL 6
REMARK VINA RESULT:      -3.0      4.847      6.690
REMARK  Name = IPA3.pdbqt.pdb
REMARK  5 active torsions:
REMARK  status: ('A' for Active; 'I' for Inactive)
REMARK    1  A    between atoms: S_1  and  S_2
REMARK    2  A    between atoms: S_1  and  C_15
REMARK    3  A    between atoms: S_2  and  C_3
REMARK    4  A    between atoms: C_10  and  O_13
REMARK    5  A    between atoms: C_22  and  O_25
REMARK                            x       y       z     vdW  Elec       q    Type
REMARK                         _______ _______ _______ _____ _____    ______ ____
ROOT
ATOM      1  S   UNL     1      14.961  11.868  55.508  0.00  0.00    +0.000 S 
ENDROOT
BRANCH   1   2
ATOM      2  C   UNL     1      16.020  11.163  54.237  0.00  0.00    +0.000 A 
ATOM      3  C   UNL     1      16.034  11.688  52.922  0.00  0.00    +0.000 A 
ATOM      4  C   UNL     1      16.906  11.116  51.966  0.00  0.00    +0.000 A 
ATOM      5  C   UNL     1      15.233  12.766  52.507  0.00  0.00    +0.000 A 
ATOM      6  C   UNL     1      17.725  10.042  52.307  0.00  0.00    +0.000 A 
ATOM      7  C   UNL     1      16.964  11.622  50.668  0.00  0.00    +0.000 A 
ATOM      8  C   UNL     1      17.697   9.519  53.593  0.00  0.00    +0.000 A 
ATOM      9  C   UNL     1      16.854  10.076  54.548  0.00  0.00    +0.000 A 
ATOM     10  C   UNL     1      16.164  12.697  50.290  0.00  0.00    +0.000 A 
ATOM     11  C   UNL     1      15.296  13.269  51.210  0.00  0.00    +0.000 A 
BRANCH   9  12
ATOM     12  O   UNL     1      16.889   9.513  55.797  0.00  0.00    +0.000 OA
ATOM     13  H   UNL     1      17.424  10.093  56.369  0.00  0.00    +0.000 HD
ENDBRANCH   9  12
ENDBRANCH   1   2
BRANCH   1  14
ATOM     14  S   UNL     1      16.339  12.773  56.744  0.00  0.00    +0.000 S 
BRANCH  14  15
ATOM     15  C   UNL     1      15.785  12.231  58.367  0.00  0.00    +0.000 A 
ATOM     16  C   UNL     1      16.517  11.272  59.107  0.00  0.00    +0.000 A 
ATOM     17  C   UNL     1      16.054  10.899  60.391  0.00  0.00    +0.000 A 
ATOM     18  C   UNL     1      17.700  10.668  58.643  0.00  0.00    +0.000 A 
ATOM     19  C   UNL     1      14.888  11.453  60.911  0.00  0.00    +0.000 A 
ATOM     20  C   UNL     1      16.762   9.975  61.159  0.00  0.00    +0.000 A 
ATOM     21  C   UNL     1      14.161  12.383  60.176  0.00  0.00    +0.000 A 
ATOM     22  C   UNL     1      14.609  12.767  58.917  0.00  0.00    +0.000 A 
ATOM     23  C   UNL     1      17.935   9.402  60.675  0.00  0.00    +0.000 A 
ATOM     24  C   UNL     1      18.404   9.748  59.414  0.00  0.00    +0.000 A 
BRANCH  22  25
ATOM     25  O   UNL     1      13.847  13.694  58.256  0.00  0.00    +0.000 OA
ATOM     26  H   UNL     1      13.766  14.476  58.834  0.00  0.00    +0.000 HD
ENDBRANCH  22  25
ENDBRANCH  14  15
ENDBRANCH   1  14
TORSDOF 5
ENDMDL
MODEL 7
REMARK VINA RESULT:      -3.0      3.295      5.967
REMARK  Name = IPA3.pdbqt.pdb
REMARK  5 active torsions:
REMARK  status: ('A' for Active; 'I' for Inactive)
REMARK    1  A    between atoms: S_1  and  S_2
REMARK    2  A    between atoms: S_1  and  C_15
REMARK    3  A    between atoms: S_2  and  C_3
REMARK    4  A    between atoms: C_10  and  O_13
REMARK    5  A    between atoms: C_22  and  O_25
REMARK                            x       y       z     vdW  Elec       q    Type
REMARK                         _______ _______ _______ _____ _____    ______ ____
ROOT
ATOM      1  S   UNL     1      17.439  11.898  58.837  0.00  0.00    +0.000 S 
ENDROOT
BRANCH   1   2
ATOM      2  C   UNL     1      18.348  10.565  58.041  0.00  0.00    +0.000 A 
ATOM      3  C   UNL     1      18.038  10.154  56.722  0.00  0.00    +0.000 A 
ATOM      4  C   UNL     1      18.802   9.121  56.130  0.00  0.00    +0.000 A 
ATOM      5  C   UNL     1      17.013  10.727  55.950  0.00  0.00    +0.000 A 
ATOM      6  C   UNL     1      19.830   8.505  56.839  0.00  0.00    +0.000 A 
ATOM      7  C   UNL     1      18.541   8.706  54.824  0.00  0.00    +0.000 A 
ATOM      8  C   UNL     1      20.122   8.900  58.139  0.00  0.00    +0.000 A 
ATOM      9  C   UNL     1      19.387   9.921  58.732  0.00  0.00    +0.000 A 
ATOM     10  C   UNL     1      17.523   9.299  54.083  0.00  0.00    +0.000 A 
ATOM     11  C   UNL     1      16.757  10.311  54.646  0.00  0.00    +0.000 A 
BRANCH   9  12
ATOM     12  O   UNL     1      19.739  10.262  60.011  0.00  0.00    +0.000 OA
ATOM     13  H   UNL     1      20.090   9.463  60.445  0.00  0.00    +0.000 HD
ENDBRANCH   9  12
ENDBRANCH   1   2
BRANCH   1  14
ATOM     14  S   UNL     1      16.362  10.872  60.263  0.00  0.00    +0.000 S 
BRANCH  14  15
ATOM     15  C   UNL     1      15.778  12.211  61.312  0.00  0.00    +0.000 A 
ATOM     16  C   UNL     1      14.432  12.647  61.259  0.00  0.00    +0.000 A 
ATOM     17  C   UNL     1      14.015  13.686  62.124  0.00  0.00    +0.000 A 
ATOM     18  C   UNL     1      13.469  12.095  60.396  0.00  0.00    +0.000 A 
ATOM     19  C   UNL     1      14.917  14.281  63.001  0.00  0.00    +0.000 A 
ATOM     20  C   UNL     1      12.692  14.127  62.117  0.00  0.00    +0.000 A 
ATOM     21  C   UNL     1      16.242  13.862  63.041  0.00  0.00    +0.000 A 
ATOM     22  C   UNL     1      16.665  12.835  62.204  0.00  0.00    +0.000 A 
ATOM     23  C   UNL     1      11.759  13.553  61.257  0.00  0.00    +0.000 A 
ATOM     24  C   UNL     1      12.148  12.537  60.393  0.00  0.00    +0.000 A 
BRANCH  22  25
ATOM     25  O   UNL     1      17.981  12.470  62.306  0.00  0.00    +0.000 OA
ATOM     26  H   UNL     1      18.482  12.981  61.643  0.00  0.00    +0.000 HD
ENDBRANCH  22  25
ENDBRANCH  14  15
ENDBRANCH   1  14
TORSDOF 5
ENDMDL
MODEL 8
REMARK VINA RESULT:      -2.9     17.255     19.258
REMARK  Name = IPA3.pdbqt.pdb
REMARK  5 active torsions:
REMARK  status: ('A' for Active; 'I' for Inactive)
REMARK    1  A    between atoms: S_1  and  S_2
REMARK    2  A    between atoms: S_1  and  C_15
REMARK    3  A    between atoms: S_2  and  C_3
REMARK    4  A    between atoms: C_10  and  O_13
REMARK    5  A    between atoms: C_22  and  O_25
REMARK                            x       y       z     vdW  Elec       q    Type
REMARK                         _______ _______ _______ _____ _____    ______ ____
ROOT
ATOM      1  S   UNL     1      15.185   4.909  76.000  0.00  0.00    +0.000 S 
ENDROOT
BRANCH   1   2
ATOM      2  C   UNL     1      15.450   3.134  75.884  0.00  0.00    +0.000 A 
ATOM      3  C   UNL     1      14.796   2.238  76.764  0.00  0.00    +0.000 A 
ATOM      4  C   UNL     1      15.015   0.848  76.614  0.00  0.00    +0.000 A 
ATOM      5  C   UNL     1      13.920   2.650  77.784  0.00  0.00    +0.000 A 
ATOM      6  C   UNL     1      15.874   0.370  75.627  0.00  0.00    +0.000 A 
ATOM      7  C   UNL     1      14.370  -0.065  77.447  0.00  0.00    +0.000 A 
ATOM      8  C   UNL     1      16.527   1.252  74.776  0.00  0.00    +0.000 A 
ATOM      9  C   UNL     1      16.314   2.621  74.904  0.00  0.00    +0.000 A 
ATOM     10  C   UNL     1      13.502   0.374  78.442  0.00  0.00    +0.000 A 
ATOM     11  C   UNL     1      13.276   1.734  78.612  0.00  0.00    +0.000 A 
BRANCH   9  12
ATOM     12  O   UNL     1      16.984   3.428  74.022  0.00  0.00    +0.000 OA
ATOM     13  H   UNL     1      17.059   4.311  74.426  0.00  0.00    +0.000 HD
ENDBRANCH   9  12
ENDBRANCH   1   2
BRANCH   1  14
ATOM     14  S   UNL     1      13.769   5.216  74.535  0.00  0.00    +0.000 S 
BRANCH  14  15
ATOM     15  C   UNL     1      12.272   4.646  75.351  0.00  0.00    +0.000 A 
ATOM     16  C   UNL     1      11.797   3.325  75.169  0.00  0.00    +0.000 A 
ATOM     17  C   UNL     1      10.629   2.916  75.855  0.00  0.00    +0.000 A 
ATOM     18  C   UNL     1      12.430   2.377  74.345  0.00  0.00    +0.000 A 
ATOM     19  C   UNL     1       9.948   3.804  76.683  0.00  0.00    +0.000 A 
ATOM     20  C   UNL     1      10.144   1.615  75.718  0.00  0.00    +0.000 A 
ATOM     21  C   UNL     1      10.407   5.106  76.849  0.00  0.00    +0.000 A 
ATOM     22  C   UNL     1      11.559   5.519  76.189  0.00  0.00    +0.000 A 
ATOM     23  C   UNL     1      10.801   0.697  74.902  0.00  0.00    +0.000 A 
ATOM     24  C   UNL     1      11.945   1.079  74.212  0.00  0.00    +0.000 A 
BRANCH  22  25
ATOM     25  O   UNL     1      11.955   6.812  76.408  0.00  0.00    +0.000 OA
ATOM     26  H   UNL     1      11.259   7.398  76.058  0.00  0.00    +0.000 HD
ENDBRANCH  22  25
ENDBRANCH  14  15
ENDBRANCH   1  14
TORSDOF 5
ENDMDL
MODEL 9
REMARK VINA RESULT:      -2.9     13.787     16.062
REMARK  Name = IPA3.pdbqt.pdb
REMARK  5 active torsions:
REMARK  status: ('A' for Active; 'I' for Inactive)
REMARK    1  A    between atoms: S_1  and  S_2
REMARK    2  A    between atoms: S_1  and  C_15
REMARK    3  A    between atoms: S_2  and  C_3
REMARK    4  A    between atoms: C_10  and  O_13
REMARK    5  A    between atoms: C_22  and  O_25
REMARK                            x       y       z     vdW  Elec       q    Type
REMARK                         _______ _______ _______ _____ _____    ______ ____
ROOT
ATOM      1  S   UNL     1      23.820   2.476  52.523  0.00  0.00    +0.000 S 
ENDROOT
BRANCH   1   2
ATOM      2  C   UNL     1      23.674   0.805  53.171  0.00  0.00    +0.000 A 
ATOM      3  C   UNL     1      22.826  -0.148  52.555  0.00  0.00    +0.000 A 
ATOM      4  C   UNL     1      22.768  -1.458  53.087  0.00  0.00    +0.000 A 
ATOM      5  C   UNL     1      22.038   0.129  51.424  0.00  0.00    +0.000 A 
ATOM      6  C   UNL     1      23.519  -1.800  54.208  0.00  0.00    +0.000 A 
ATOM      7  C   UNL     1      21.963  -2.428  52.492  0.00  0.00    +0.000 A 
ATOM      8  C   UNL     1      24.338  -0.859  54.820  0.00  0.00    +0.000 A 
ATOM      9  C   UNL     1      24.414   0.430  54.304  0.00  0.00    +0.000 A 
ATOM     10  C   UNL     1      21.201  -2.125  51.368  0.00  0.00    +0.000 A 
ATOM     11  C   UNL     1      21.237  -0.844  50.833  0.00  0.00    +0.000 A 
BRANCH   9  12
ATOM     12  O   UNL     1      25.250   1.299  54.954  0.00  0.00    +0.000 OA
ATOM     13  H   UNL     1      24.845   2.185  54.916  0.00  0.00    +0.000 HD
ENDBRANCH   9  12
ENDBRANCH   1   2
BRANCH   1  14
ATOM     14  S   UNL     1      22.627   3.534  53.828  0.00  0.00    +0.000 S 
BRANCH  14  15
ATOM     15  C   UNL     1      20.986   2.957  53.370  0.00  0.00    +0.000 A 
ATOM     16  C   UNL     1      20.329   1.952  54.120  0.00  0.00    +0.000 A 
ATOM     17  C   UNL     1      19.028   1.552  53.736  0.00  0.00    +0.000 A 
ATOM     18  C   UNL     1      20.895   1.327  55.246  0.00  0.00    +0.000 A 
ATOM     19  C   UNL     1      18.410   2.125  52.629  0.00  0.00    +0.000 A 
ATOM     20  C   UNL     1      18.340   0.581  54.464  0.00  0.00    +0.000 A 
ATOM     21  C   UNL     1      19.062   3.101  51.884  0.00  0.00    +0.000 A 
ATOM     22  C   UNL     1      20.338   3.512  52.255  0.00  0.00    +0.000 A 
ATOM     23  C   UNL     1      18.924  -0.012  55.581  0.00  0.00    +0.000 A 
ATOM     24  C   UNL     1      20.205   0.359  55.971  0.00  0.00    +0.000 A 
BRANCH  22  25
ATOM     25  O   UNL     1      20.913   4.484  51.480  0.00  0.00    +0.000 OA
ATOM     26  H   UNL     1      20.784   5.338  51.933  0.00  0.00    +0.000 HD
ENDBRANCH  22  25
ENDBRANCH  14  15
ENDBRANCH   1  14
TORSDOF 5
ENDMDL
