MODEL 1
REMARK VINA RESULT:      -5.6      0.000      0.000
REMARK  Name = 
REMARK  8 active torsions:
REMARK  status: ('A' for Active; 'I' for Inactive)
REMARK    1  A    between atoms: O_1  and  C_21
REMARK    2  A    between atoms: O_1  and  C_38
REMARK    3  A    between atoms: O_4  and  C_26
REMARK    4  A    between atoms: N_7  and  C_11
REMARK    5  A    between atoms: C_26  and  C_33
REMARK    6  A    between atoms: C_29  and  C_37
REMARK    7  A    between atoms: C_33  and  C_42
REMARK    8  A    between atoms: C_37  and  C_43
REMARK                            x       y       z     vdW  Elec       q    Type
REMARK                         _______ _______ _______ _____ _____    ______ ____
ROOT
ATOM      1  O   UNL     1      17.458   6.486  67.268  0.00  0.00    +0.000 OA
ATOM      2  O   UNL     1      16.224   2.529  68.024  0.00  0.00    +0.000 OA
ATOM      3  O   UNL     1      16.820   8.603  67.670  0.00  0.00    +0.000 OA
ATOM      4  N   UNL     1      15.185   3.138  69.977  0.00  0.00    +0.000 N 
ATOM      5  N   UNL     1      13.595   4.053  73.059  0.00  0.00    +0.000 NA
ATOM      6  C   UNL     1      14.891   4.087  70.935  0.00  0.00    +0.000 A 
ATOM      7  C   UNL     1      13.876   2.129  71.602  0.00  0.00    +0.000 A 
ATOM      8  C   UNL     1      14.580   1.845  70.307  0.00  0.00    +0.000 C 
ATOM      9  C   UNL     1      16.160   5.705  69.679  0.00  0.00    +0.000 A 
ATOM     10  C   UNL     1      16.720   7.101  69.563  0.00  0.00    +0.000 C 
ATOM     11  C   UNL     1      14.069   3.458  71.962  0.00  0.00    +0.000 A 
ATOM     12  C   UNL     1      16.451   4.784  68.740  0.00  0.00    +0.000 A 
ATOM     13  C   UNL     1      13.122   1.306  72.427  0.00  0.00    +0.000 A 
ATOM     14  C   UNL     1      15.344   5.341  70.831  0.00  0.00    +0.000 A 
ATOM     15  C   UNL     1      15.948   3.378  68.865  0.00  0.00    +0.000 A 
ATOM     16  C   UNL     1      12.604   1.889  73.620  0.00  0.00    +0.000 A 
ATOM     17  C   UNL     1      17.290   5.081  67.547  0.00  0.00    +0.000 C 
ATOM     18  C   UNL     1      12.874   3.272  73.878  0.00  0.00    +0.000 A 
ATOM     19  C   UNL     1      16.981   7.453  68.081  0.00  0.00    +0.000 C 
ATOM     20  C   UNL     1      11.371   1.796  75.720  0.00  0.00    +0.000 A 
ATOM     21  C   UNL     1      11.839   1.171  74.565  0.00  0.00    +0.000 A 
ATOM     22  C   UNL     1      12.369   3.858  75.032  0.00  0.00    +0.000 A 
ATOM     23  C   UNL     1      11.612   3.139  75.957  0.00  0.00    +0.000 A 
ENDROOT
BRANCH  10  24
ATOM     24  O   UNL     1      15.759   8.028  70.085  0.00  0.00    +0.000 OA
ATOM     25  H   UNL     1      15.586   7.752  71.008  0.00  0.00    +0.000 HD
ENDBRANCH  10  24
BRANCH  10  26
ATOM     26  C   UNL     1      18.029   7.227  70.373  0.00  0.00    +0.000 C 
ATOM     27  C   UNL     1      17.903   8.042  71.657  0.00  0.00    +0.000 C 
ENDBRANCH  10  26
BRANCH  13  28
ATOM     28  C   UNL     1      12.915  -0.142  72.055  0.00  0.00    +0.000 C 
ATOM     29  C   UNL     1      11.689  -0.340  71.176  0.00  0.00    +0.000 C 
ENDBRANCH  13  28
BRANCH  20  30
ATOM     30  O   UNL     1      10.581   1.071  76.613  0.00  0.00    +0.000 OA
BRANCH  30  38
ATOM     31  O   UNL     1       8.851   0.295  75.282  0.00  0.00    +0.000 OA
ATOM     32  N   UNL     1       8.405   1.725  77.032  0.00  0.00    +0.000 N 
ATOM     33  C   UNL     1       6.775   3.975  77.951  0.00  0.00    +0.000 C 
ATOM     34  C   UNL     1       8.312   3.916  78.137  0.00  0.00    +0.000 C 
ATOM     35  C   UNL     1       6.399   3.106  76.723  0.00  0.00    +0.000 C 
ATOM     36  C   UNL     1       8.843   2.486  78.189  0.00  0.00    +0.000 C 
ATOM     37  C   UNL     1       6.972   1.695  76.810  0.00  0.00    +0.000 C 
ATOM     38  C   UNL     1       9.247   0.970  76.229  0.00  0.00    +0.000 C 
BRANCH  33  39
ATOM     39  N   UNL     1       6.279   5.380  77.811  0.00  0.00    +0.000 NA
ATOM     40  C   UNL     1       7.080   6.157  76.841  0.00  0.00    +0.000 C 
ATOM     41  C   UNL     1       4.850   5.434  77.439  0.00  0.00    +0.000 C 
ATOM     42  C   UNL     1       6.608   7.607  76.706  0.00  0.00    +0.000 C 
ATOM     43  C   UNL     1       4.321   6.865  77.318  0.00  0.00    +0.000 C 
ATOM     44  C   UNL     1       5.138   7.680  76.331  0.00  0.00    +0.000 C 
ENDBRANCH  33  39
ENDBRANCH  30  38
ENDBRANCH  20  30
TORSDOF 6
ENDMDL
MODEL 2
REMARK VINA RESULT:      -5.4     17.497     22.104
REMARK  Name = 
REMARK  8 active torsions:
REMARK  status: ('A' for Active; 'I' for Inactive)
REMARK    1  A    between atoms: O_1  and  C_21
REMARK    2  A    between atoms: O_1  and  C_38
REMARK    3  A    between atoms: O_4  and  C_26
REMARK    4  A    between atoms: N_7  and  C_11
REMARK    5  A    between atoms: C_26  and  C_33
REMARK    6  A    between atoms: C_29  and  C_37
REMARK    7  A    between atoms: C_33  and  C_42
REMARK    8  A    between atoms: C_37  and  C_43
REMARK                            x       y       z     vdW  Elec       q    Type
REMARK                         _______ _______ _______ _____ _____    ______ ____
ROOT
ATOM      1  O   UNL     1      17.424  -3.422  59.547  0.00  0.00    +0.000 OA
ATOM      2  O   UNL     1      20.641  -1.141  58.065  0.00  0.00    +0.000 OA
ATOM      3  O   UNL     1      15.178  -3.400  59.620  0.00  0.00    +0.000 OA
ATOM      4  N   UNL     1      19.374  -0.325  56.334  0.00  0.00    +0.000 N 
ATOM      5  N   UNL     1      17.432   0.928  53.591  0.00  0.00    +0.000 NA
ATOM      6  C   UNL     1      18.201  -0.313  55.607  0.00  0.00    +0.000 A 
ATOM      7  C   UNL     1      19.621   1.203  54.608  0.00  0.00    +0.000 A 
ATOM      8  C   UNL     1      20.354   0.614  55.779  0.00  0.00    +0.000 C 
ATOM      9  C   UNL     1      17.294  -1.974  57.099  0.00  0.00    +0.000 A 
ATOM     10  C   UNL     1      16.162  -2.899  57.467  0.00  0.00    +0.000 C 
ATOM     11  C   UNL     1      18.351   0.645  54.518  0.00  0.00    +0.000 A 
ATOM     12  C   UNL     1      18.437  -1.991  57.813  0.00  0.00    +0.000 A 
ATOM     13  C   UNL     1      20.014   2.150  53.674  0.00  0.00    +0.000 A 
ATOM     14  C   UNL     1      17.171  -1.095  55.941  0.00  0.00    +0.000 A 
ATOM     15  C   UNL     1      19.592  -1.118  57.431  0.00  0.00    +0.000 A 
ATOM     16  C   UNL     1      19.075   2.477  52.653  0.00  0.00    +0.000 A 
ATOM     17  C   UNL     1      18.638  -2.872  58.996  0.00  0.00    +0.000 C 
ATOM     18  C   UNL     1      17.795   1.832  52.670  0.00  0.00    +0.000 A 
ATOM     19  C   UNL     1      16.215  -3.238  58.975  0.00  0.00    +0.000 C 
ATOM     20  C   UNL     1      18.382   3.674  50.646  0.00  0.00    +0.000 A 
ATOM     21  C   UNL     1      19.340   3.406  51.623  0.00  0.00    +0.000 A 
ATOM     22  C   UNL     1      16.865   2.147  51.688  0.00  0.00    +0.000 A 
ATOM     23  C   UNL     1      17.138   3.068  50.676  0.00  0.00    +0.000 A 
ENDROOT
BRANCH  10  24
ATOM     24  O   UNL     1      14.919  -2.236  57.197  0.00  0.00    +0.000 OA
ATOM     25  H   UNL     1      14.923  -1.419  57.734  0.00  0.00    +0.000 HD
ENDBRANCH  10  24
BRANCH  10  26
ATOM     26  C   UNL     1      16.230  -4.196  56.633  0.00  0.00    +0.000 C 
ATOM     27  C   UNL     1      15.034  -5.127  56.811  0.00  0.00    +0.000 C 
ENDBRANCH  10  26
BRANCH  13  28
ATOM     28  C   UNL     1      21.395   2.754  53.752  0.00  0.00    +0.000 C 
ATOM     29  C   UNL     1      22.429   1.919  53.012  0.00  0.00    +0.000 C 
ENDBRANCH  13  28
BRANCH  20  30
ATOM     30  O   UNL     1      18.659   4.629  49.667  0.00  0.00    +0.000 OA
BRANCH  30  38
ATOM     31  O   UNL     1      20.963   4.821  49.533  0.00  0.00    +0.000 OA
ATOM     32  N   UNL     1      19.717   6.532  50.440  0.00  0.00    +0.000 N 
ATOM     33  C   UNL     1      19.601   8.594  52.513  0.00  0.00    +0.000 C 
ATOM     34  C   UNL     1      18.422   7.635  52.211  0.00  0.00    +0.000 C 
ATOM     35  C   UNL     1      20.918   7.894  52.091  0.00  0.00    +0.000 C 
ATOM     36  C   UNL     1      18.433   7.126  50.772  0.00  0.00    +0.000 C 
ATOM     37  C   UNL     1      20.872   7.382  50.655  0.00  0.00    +0.000 C 
ATOM     38  C   UNL     1      19.872   5.287  49.850  0.00  0.00    +0.000 C 
BRANCH  33  39
ATOM     39  N   UNL     1      19.630   9.014  53.950  0.00  0.00    +0.000 NA
ATOM     40  C   UNL     1      18.353   8.726  54.638  0.00  0.00    +0.000 C 
ATOM     41  C   UNL     1      20.750   8.397  54.690  0.00  0.00    +0.000 C 
ATOM     42  C   UNL     1      18.352   9.177  56.101  0.00  0.00    +0.000 C 
ATOM     43  C   UNL     1      20.809   8.837  56.155  0.00  0.00    +0.000 C 
ATOM     44  C   UNL     1      19.502   8.556  56.875  0.00  0.00    +0.000 C 
ENDBRANCH  33  39
ENDBRANCH  30  38
ENDBRANCH  20  30
TORSDOF 6
ENDMDL
MODEL 3
REMARK VINA RESULT:      -5.3      1.331      1.811
REMARK  Name = 
REMARK  8 active torsions:
REMARK  status: ('A' for Active; 'I' for Inactive)
REMARK    1  A    between atoms: O_1  and  C_21
REMARK    2  A    between atoms: O_1  and  C_38
REMARK    3  A    between atoms: O_4  and  C_26
REMARK    4  A    between atoms: N_7  and  C_11
REMARK    5  A    between atoms: C_26  and  C_33
REMARK    6  A    between atoms: C_29  and  C_37
REMARK    7  A    between atoms: C_33  and  C_42
REMARK    8  A    between atoms: C_37  and  C_43
REMARK                            x       y       z     vdW  Elec       q    Type
REMARK                         _______ _______ _______ _____ _____    ______ ____
ROOT
ATOM      1  O   UNL     1      17.616   6.287  68.005  0.00  0.00    +0.000 OA
ATOM      2  O   UNL     1      16.513   2.572  69.657  0.00  0.00    +0.000 OA
ATOM      3  O   UNL     1      16.822   8.375  67.761  0.00  0.00    +0.000 OA
ATOM      4  N   UNL     1      15.215   3.576  71.261  0.00  0.00    +0.000 N 
ATOM      5  N   UNL     1      13.218   5.121  73.809  0.00  0.00    +0.000 NA
ATOM      6  C   UNL     1      14.757   4.713  71.896  0.00  0.00    +0.000 A 
ATOM      7  C   UNL     1      13.775   2.916  72.953  0.00  0.00    +0.000 A 
ATOM      8  C   UNL     1      14.644   2.366  71.860  0.00  0.00    +0.000 C 
ATOM      9  C   UNL     1      16.080   6.051  70.391  0.00  0.00    +0.000 A 
ATOM     10  C   UNL     1      16.575   7.411  69.966  0.00  0.00    +0.000 C 
ATOM     11  C   UNL     1      13.852   4.304  72.964  0.00  0.00    +0.000 A 
ATOM     12  C   UNL     1      16.531   4.945  69.766  0.00  0.00    +0.000 A 
ATOM     13  C   UNL     1      12.972   2.274  73.886  0.00  0.00    +0.000 A 
ATOM     14  C   UNL     1      15.151   5.930  71.509  0.00  0.00    +0.000 A 
ATOM     15  C   UNL     1      16.092   3.583  70.209  0.00  0.00    +0.000 A 
ATOM     16  C   UNL     1      12.284   3.100  74.822  0.00  0.00    +0.000 A 
ATOM     17  C   UNL     1      17.491   4.993  68.630  0.00  0.00    +0.000 C 
ATOM     18  C   UNL     1      12.446   4.521  74.728  0.00  0.00    +0.000 A 
ATOM     19  C   UNL     1      16.993   7.388  68.478  0.00  0.00    +0.000 C 
ATOM     20  C   UNL     1      10.814   3.451  76.733  0.00  0.00    +0.000 A 
ATOM     21  C   UNL     1      11.450   2.590  75.840  0.00  0.00    +0.000 A 
ATOM     22  C   UNL     1      11.775   5.340  75.626  0.00  0.00    +0.000 A 
ATOM     23  C   UNL     1      10.952   4.824  76.627  0.00  0.00    +0.000 A 
ENDROOT
BRANCH  10  24
ATOM     24  O   UNL     1      15.509   8.358  70.121  0.00  0.00    +0.000 OA
ATOM     25  H   UNL     1      14.747   7.995  69.626  0.00  0.00    +0.000 HD
ENDBRANCH  10  24
BRANCH  10  26
ATOM     26  C   UNL     1      17.767   7.850  70.842  0.00  0.00    +0.000 C 
ATOM     27  C   UNL     1      17.442   8.952  71.846  0.00  0.00    +0.000 C 
ENDBRANCH  10  26
BRANCH  13  28
ATOM     28  C   UNL     1      12.890   0.767  73.894  0.00  0.00    +0.000 C 
ATOM     29  C   UNL     1      11.878   0.242  72.887  0.00  0.00    +0.000 C 
ENDBRANCH  13  28
BRANCH  20  30
ATOM     30  O   UNL     1       9.962   2.918  77.701  0.00  0.00    +0.000 OA
BRANCH  30  38
ATOM     31  O   UNL     1       8.651   1.333  76.636  0.00  0.00    +0.000 OA
ATOM     32  N   UNL     1       7.710   3.307  77.358  0.00  0.00    +0.000 N 
ATOM     33  C   UNL     1       5.765   5.410  76.761  0.00  0.00    +0.000 C 
ATOM     34  C   UNL     1       7.215   5.708  77.219  0.00  0.00    +0.000 C 
ATOM     35  C   UNL     1       5.748   4.024  76.069  0.00  0.00    +0.000 C 
ATOM     36  C   UNL     1       7.811   4.578  78.054  0.00  0.00    +0.000 C 
ATOM     37  C   UNL     1       6.376   2.933  76.931  0.00  0.00    +0.000 C 
ATOM     38  C   UNL     1       8.766   2.424  77.187  0.00  0.00    +0.000 C 
BRANCH  33  39
ATOM     39  N   UNL     1       5.225   6.484  75.869  0.00  0.00    +0.000 NA
ATOM     40  C   UNL     1       3.945   6.093  75.241  0.00  0.00    +0.000 C 
ATOM     41  C   UNL     1       5.063   7.771  76.578  0.00  0.00    +0.000 C 
ATOM     42  C   UNL     1       3.392   7.166  74.300  0.00  0.00    +0.000 C 
ATOM     43  C   UNL     1       4.537   8.887  75.672  0.00  0.00    +0.000 C 
ATOM     44  C   UNL     1       3.226   8.497  75.012  0.00  0.00    +0.000 C 
ENDBRANCH  33  39
ENDBRANCH  30  38
ENDBRANCH  20  30
TORSDOF 6
ENDMDL
MODEL 4
REMARK VINA RESULT:      -5.2     15.616     21.989
REMARK  Name = 
REMARK  8 active torsions:
REMARK  status: ('A' for Active; 'I' for Inactive)
REMARK    1  A    between atoms: O_1  and  C_21
REMARK    2  A    between atoms: O_1  and  C_38
REMARK    3  A    between atoms: O_4  and  C_26
REMARK    4  A    between atoms: N_7  and  C_11
REMARK    5  A    between atoms: C_26  and  C_33
REMARK    6  A    between atoms: C_29  and  C_37
REMARK    7  A    between atoms: C_33  and  C_42
REMARK    8  A    between atoms: C_37  and  C_43
REMARK                            x       y       z     vdW  Elec       q    Type
REMARK                         _______ _______ _______ _____ _____    ______ ____
ROOT
ATOM      1  O   UNL     1      16.770  -4.698  60.279  0.00  0.00    +0.000 OA
ATOM      2  O   UNL     1      15.277  -2.880  56.784  0.00  0.00    +0.000 OA
ATOM      3  O   UNL     1      18.723  -5.272  61.231  0.00  0.00    +0.000 OA
ATOM      4  N   UNL     1      17.173  -1.611  56.534  0.00  0.00    +0.000 N 
ATOM      5  N   UNL     1      20.104   0.420  56.147  0.00  0.00    +0.000 NA
ATOM      6  C   UNL     1      18.395  -1.173  57.004  0.00  0.00    +0.000 A 
ATOM      7  C   UNL     1      18.034  -0.112  54.991  0.00  0.00    +0.000 A 
ATOM      8  C   UNL     1      16.846  -0.993  55.247  0.00  0.00    +0.000 C 
ATOM      9  C   UNL     1      18.118  -2.575  58.945  0.00  0.00    +0.000 A 
ATOM     10  C   UNL     1      18.633  -3.049  60.280  0.00  0.00    +0.000 C 
ATOM     11  C   UNL     1      18.941  -0.227  56.037  0.00  0.00    +0.000 A 
ATOM     12  C   UNL     1      16.924  -3.007  58.492  0.00  0.00    +0.000 A 
ATOM     13  C   UNL     1      18.323   0.741  53.934  0.00  0.00    +0.000 A 
ATOM     14  C   UNL     1      18.889  -1.612  58.166  0.00  0.00    +0.000 A 
ATOM     15  C   UNL     1      16.371  -2.506  57.193  0.00  0.00    +0.000 A 
ATOM     16  C   UNL     1      19.546   1.468  54.009  0.00  0.00    +0.000 A 
ATOM     17  C   UNL     1      16.078  -3.975  59.240  0.00  0.00    +0.000 C 
ATOM     18  C   UNL     1      20.397   1.260  55.143  0.00  0.00    +0.000 A 
ATOM     19  C   UNL     1      18.052  -4.442  60.615  0.00  0.00    +0.000 C 
ATOM     20  C   UNL     1      21.167   3.077  53.159  0.00  0.00    +0.000 A 
ATOM     21  C   UNL     1      19.965   2.387  53.021  0.00  0.00    +0.000 A 
ATOM     22  C   UNL     1      21.598   1.954  55.226  0.00  0.00    +0.000 A 
ATOM     23  C   UNL     1      22.000   2.858  54.243  0.00  0.00    +0.000 A 
ENDROOT
BRANCH  10  24
ATOM     24  O   UNL     1      20.062  -3.161  60.209  0.00  0.00    +0.000 OA
ATOM     25  H   UNL     1      20.250  -3.824  59.515  0.00  0.00    +0.000 HD
ENDBRANCH  10  24
BRANCH  10  26
ATOM     26  C   UNL     1      18.263  -2.043  61.391  0.00  0.00    +0.000 C 
ATOM     27  C   UNL     1      17.437  -2.634  62.530  0.00  0.00    +0.000 C 
ENDBRANCH  10  26
BRANCH  13  28
ATOM     28  C   UNL     1      17.341   0.886  52.797  0.00  0.00    +0.000 C 
ATOM     29  C   UNL     1      16.256   1.906  53.103  0.00  0.00    +0.000 C 
ENDBRANCH  13  28
BRANCH  20  30
ATOM     30  O   UNL     1      21.573   3.945  52.145  0.00  0.00    +0.000 OA
BRANCH  30  38
ATOM     31  O   UNL     1      21.255   6.032  53.098  0.00  0.00    +0.000 OA
ATOM     32  N   UNL     1      20.086   5.443  51.204  0.00  0.00    +0.000 N 
ATOM     33  C   UNL     1      17.528   5.625  49.795  0.00  0.00    +0.000 C 
ATOM     34  C   UNL     1      18.303   4.295  49.965  0.00  0.00    +0.000 C 
ATOM     35  C   UNL     1      17.919   6.570  50.960  0.00  0.00    +0.000 C 
ATOM     36  C   UNL     1      19.805   4.507  50.128  0.00  0.00    +0.000 C 
ATOM     37  C   UNL     1      19.429   6.732  51.098  0.00  0.00    +0.000 C 
ATOM     38  C   UNL     1      20.997   5.210  52.223  0.00  0.00    +0.000 C 
BRANCH  33  39
ATOM     39  N   UNL     1      16.048   5.409  49.728  0.00  0.00    +0.000 NA
ATOM     40  C   UNL     1      15.398   6.317  48.758  0.00  0.00    +0.000 C 
ATOM     41  C   UNL     1      15.701   4.007  49.413  0.00  0.00    +0.000 C 
ATOM     42  C   UNL     1      13.880   6.132  48.697  0.00  0.00    +0.000 C 
ATOM     43  C   UNL     1      14.191   3.764  49.367  0.00  0.00    +0.000 C 
ATOM     44  C   UNL     1      13.506   4.694  48.381  0.00  0.00    +0.000 C 
ENDBRANCH  33  39
ENDBRANCH  30  38
ENDBRANCH  20  30
TORSDOF 6
ENDMDL
MODEL 5
REMARK VINA RESULT:      -5.2     15.179     20.485
REMARK  Name = 
REMARK  8 active torsions:
REMARK  status: ('A' for Active; 'I' for Inactive)
REMARK    1  A    between atoms: O_1  and  C_21
REMARK    2  A    between atoms: O_1  and  C_38
REMARK    3  A    between atoms: O_4  and  C_26
REMARK    4  A    between atoms: N_7  and  C_11
REMARK    5  A    between atoms: C_26  and  C_33
REMARK    6  A    between atoms: C_29  and  C_37
REMARK    7  A    between atoms: C_33  and  C_42
REMARK    8  A    between atoms: C_37  and  C_43
REMARK                            x       y       z     vdW  Elec       q    Type
REMARK                         _______ _______ _______ _____ _____    ______ ____
ROOT
ATOM      1  O   UNL     1      18.860   6.095  47.748  0.00  0.00    +0.000 OA
ATOM      2  O   UNL     1      21.331   5.250  51.054  0.00  0.00    +0.000 OA
ATOM      3  O   UNL     1      17.349   5.096  46.419  0.00  0.00    +0.000 OA
ATOM      4  N   UNL     1      19.872   3.665  51.846  0.00  0.00    +0.000 N 
ATOM      5  N   UNL     1      17.586   1.219  53.132  0.00  0.00    +0.000 NA
ATOM      6  C   UNL     1      18.661   3.007  51.775  0.00  0.00    +0.000 A 
ATOM      7  C   UNL     1      19.795   2.126  53.577  0.00  0.00    +0.000 A 
ATOM      8  C   UNL     1      20.679   3.175  52.966  0.00  0.00    +0.000 C 
ATOM      9  C   UNL     1      18.087   4.331  49.845  0.00  0.00    +0.000 A 
ATOM     10  C   UNL     1      17.077   4.709  48.791  0.00  0.00    +0.000 C 
ATOM     11  C   UNL     1      18.606   2.038  52.864  0.00  0.00    +0.000 A 
ATOM     12  C   UNL     1      19.268   4.977  49.908  0.00  0.00    +0.000 A 
ATOM     13  C   UNL     1      19.990   1.301  54.676  0.00  0.00    +0.000 A 
ATOM     14  C   UNL     1      17.767   3.298  50.825  0.00  0.00    +0.000 A 
ATOM     15  C   UNL     1      20.262   4.653  50.980  0.00  0.00    +0.000 A 
ATOM     16  C   UNL     1      18.924   0.417  55.015  0.00  0.00    +0.000 A 
ATOM     17  C   UNL     1      19.654   6.051  48.952  0.00  0.00    +0.000 C 
ATOM     18  C   UNL     1      17.747   0.421  54.199  0.00  0.00    +0.000 A 
ATOM     19  C   UNL     1      17.789   5.297  47.552  0.00  0.00    +0.000 C 
ATOM     20  C   UNL     1      17.888  -1.297  56.403  0.00  0.00    +0.000 A 
ATOM     21  C   UNL     1      18.969  -0.465  56.116  0.00  0.00    +0.000 A 
ATOM     22  C   UNL     1      16.703  -0.441  54.510  0.00  0.00    +0.000 A 
ATOM     23  C   UNL     1      16.759  -1.309  55.600  0.00  0.00    +0.000 A 
ENDROOT
BRANCH  10  24
ATOM     24  O   UNL     1      16.369   3.528  48.387  0.00  0.00    +0.000 OA
ATOM     25  H   UNL     1      16.034   3.706  47.485  0.00  0.00    +0.000 HD
ENDBRANCH  10  24
BRANCH  10  26
ATOM     26  C   UNL     1      16.066   5.732  49.353  0.00  0.00    +0.000 C 
ATOM     27  C   UNL     1      15.343   6.556  48.291  0.00  0.00    +0.000 C 
ENDBRANCH  10  26
BRANCH  13  28
ATOM     28  C   UNL     1      21.271   1.395  55.467  0.00  0.00    +0.000 C 
ATOM     29  C   UNL     1      22.358   0.488  54.909  0.00  0.00    +0.000 C 
ENDBRANCH  13  28
BRANCH  20  30
ATOM     30  O   UNL     1      17.980  -2.188  57.473  0.00  0.00    +0.000 OA
BRANCH  30  38
ATOM     31  O   UNL     1      16.201  -1.547  58.810  0.00  0.00    +0.000 OA
ATOM     32  N   UNL     1      18.351  -1.443  59.628  0.00  0.00    +0.000 N 
ATOM     33  C   UNL     1      20.228   0.065  61.291  0.00  0.00    +0.000 C 
ATOM     34  C   UNL     1      20.585  -0.454  59.875  0.00  0.00    +0.000 C 
ATOM     35  C   UNL     1      18.692   0.255  61.367  0.00  0.00    +0.000 C 
ATOM     36  C   UNL     1      19.776  -1.686  59.480  0.00  0.00    +0.000 C 
ATOM     37  C   UNL     1      17.927  -0.994  60.940  0.00  0.00    +0.000 C 
ATOM     38  C   UNL     1      17.406  -1.715  58.650  0.00  0.00    +0.000 C 
BRANCH  33  39
ATOM     39  N   UNL     1      20.962   1.325  61.629  0.00  0.00    +0.000 NA
ATOM     40  C   UNL     1      21.598   1.933  60.441  0.00  0.00    +0.000 C 
ATOM     41  C   UNL     1      20.093   2.317  62.297  0.00  0.00    +0.000 C 
ATOM     42  C   UNL     1      22.380   3.207  60.771  0.00  0.00    +0.000 C 
ATOM     43  C   UNL     1      20.836   3.601  62.673  0.00  0.00    +0.000 C 
ATOM     44  C   UNL     1      21.502   4.234  61.465  0.00  0.00    +0.000 C 
ENDBRANCH  33  39
ENDBRANCH  30  38
ENDBRANCH  20  30
TORSDOF 6
ENDMDL
MODEL 6
REMARK VINA RESULT:      -5.1      3.181     11.592
REMARK  Name = 
REMARK  8 active torsions:
REMARK  status: ('A' for Active; 'I' for Inactive)
REMARK    1  A    between atoms: O_1  and  C_21
REMARK    2  A    between atoms: O_1  and  C_38
REMARK    3  A    between atoms: O_4  and  C_26
REMARK    4  A    between atoms: N_7  and  C_11
REMARK    5  A    between atoms: C_26  and  C_33
REMARK    6  A    between atoms: C_29  and  C_37
REMARK    7  A    between atoms: C_33  and  C_42
REMARK    8  A    between atoms: C_37  and  C_43
REMARK                            x       y       z     vdW  Elec       q    Type
REMARK                         _______ _______ _______ _____ _____    ______ ____
ROOT
ATOM      1  O   UNL     1       4.990  -2.244  76.763  0.00  0.00    +0.000 OA
ATOM      2  O   UNL     1       5.983   1.436  78.557  0.00  0.00    +0.000 OA
ATOM      3  O   UNL     1       5.207  -3.328  74.806  0.00  0.00    +0.000 OA
ATOM      4  N   UNL     1       7.840   1.676  77.231  0.00  0.00    +0.000 N 
ATOM      5  N   UNL     1      10.777   2.055  75.206  0.00  0.00    +0.000 NA
ATOM      6  C   UNL     1       8.712   1.178  76.285  0.00  0.00    +0.000 A 
ATOM      7  C   UNL     1       9.479   3.274  76.860  0.00  0.00    +0.000 A 
ATOM      8  C   UNL     1       8.239   3.018  77.667  0.00  0.00    +0.000 C 
ATOM      9  C   UNL     1       7.395  -0.837  76.176  0.00  0.00    +0.000 A 
ATOM     10  C   UNL     1       7.201  -2.226  75.621  0.00  0.00    +0.000 C 
ATOM     11  C   UNL     1       9.748   2.178  76.048  0.00  0.00    +0.000 A 
ATOM     12  C   UNL     1       6.540  -0.356  77.100  0.00  0.00    +0.000 A 
ATOM     13  C   UNL     1      10.329   4.369  76.822  0.00  0.00    +0.000 A 
ATOM     14  C   UNL     1       8.536  -0.034  75.750  0.00  0.00    +0.000 A 
ATOM     15  C   UNL     1       6.746   0.999  77.703  0.00  0.00    +0.000 A 
ATOM     16  C   UNL     1      11.453   4.284  75.950  0.00  0.00    +0.000 A 
ATOM     17  C   UNL     1       5.365  -1.126  77.593  0.00  0.00    +0.000 C 
ATOM     18  C   UNL     1      11.620   3.098  75.164  0.00  0.00    +0.000 A 
ATOM     19  C   UNL     1       5.709  -2.625  75.685  0.00  0.00    +0.000 C 
ATOM     20  C   UNL     1      13.501   5.159  74.960  0.00  0.00    +0.000 A 
ATOM     21  C   UNL     1      12.416   5.309  75.821  0.00  0.00    +0.000 A 
ATOM     22  C   UNL     1      12.705   3.002  74.302  0.00  0.00    +0.000 A 
ATOM     23  C   UNL     1      13.648   4.023  74.182  0.00  0.00    +0.000 A 
ENDROOT
BRANCH  10  24
ATOM     24  O   UNL     1       7.612  -2.233  74.246  0.00  0.00    +0.000 OA
ATOM     25  H   UNL     1       8.487  -1.796  74.221  0.00  0.00    +0.000 HD
ENDBRANCH  10  24
BRANCH  10  26
ATOM     26  C   UNL     1       8.053  -3.246  76.405  0.00  0.00    +0.000 C 
ATOM     27  C   UNL     1       9.306  -3.719  75.673  0.00  0.00    +0.000 C 
ENDBRANCH  10  26
BRANCH  13  28
ATOM     28  C   UNL     1      10.057   5.561  77.708  0.00  0.00    +0.000 C 
ATOM     29  C   UNL     1       9.061   6.525  77.082  0.00  0.00    +0.000 C 
ENDBRANCH  13  28
BRANCH  20  30
ATOM     30  O   UNL     1      14.410   6.208  74.823  0.00  0.00    +0.000 OA
BRANCH  30  38
ATOM     31  O   UNL     1      13.247   7.631  73.413  0.00  0.00    +0.000 OA
ATOM     32  N   UNL     1      15.318   6.837  72.793  0.00  0.00    +0.000 N 
ATOM     33  C   UNL     1      16.968   5.882  70.573  0.00  0.00    +0.000 C 
ATOM     34  C   UNL     1      16.879   5.147  71.934  0.00  0.00    +0.000 C 
ATOM     35  C   UNL     1      15.659   6.686  70.367  0.00  0.00    +0.000 C 
ATOM     36  C   UNL     1      16.525   6.084  73.085  0.00  0.00    +0.000 C 
ATOM     37  C   UNL     1      15.335   7.589  71.553  0.00  0.00    +0.000 C 
ATOM     38  C   UNL     1      14.240   6.952  73.658  0.00  0.00    +0.000 C 
BRANCH  33  39
ATOM     39  N   UNL     1      17.225   4.938  69.440  0.00  0.00    +0.000 NA
ATOM     40  C   UNL     1      16.467   3.677  69.585  0.00  0.00    +0.000 C 
ATOM     41  C   UNL     1      16.937   5.550  68.126  0.00  0.00    +0.000 C 
ATOM     42  C   UNL     1      16.740   2.686  68.451  0.00  0.00    +0.000 C 
ATOM     43  C   UNL     1      17.221   4.605  66.955  0.00  0.00    +0.000 C 
ATOM     44  C   UNL     1      16.455   3.302  67.092  0.00  0.00    +0.000 C 
ENDBRANCH  33  39
ENDBRANCH  30  38
ENDBRANCH  20  30
TORSDOF 6
ENDMDL
MODEL 7
REMARK VINA RESULT:      -4.9      2.582     11.131
REMARK  Name = 
REMARK  8 active torsions:
REMARK  status: ('A' for Active; 'I' for Inactive)
REMARK    1  A    between atoms: O_1  and  C_21
REMARK    2  A    between atoms: O_1  and  C_38
REMARK    3  A    between atoms: O_4  and  C_26
REMARK    4  A    between atoms: N_7  and  C_11
REMARK    5  A    between atoms: C_26  and  C_33
REMARK    6  A    between atoms: C_29  and  C_37
REMARK    7  A    between atoms: C_33  and  C_42
REMARK    8  A    between atoms: C_37  and  C_43
REMARK                            x       y       z     vdW  Elec       q    Type
REMARK                         _______ _______ _______ _____ _____    ______ ____
ROOT
ATOM      1  O   UNL     1       7.903   2.204  78.619  0.00  0.00    +0.000 OA
ATOM      2  O   UNL     1      10.050   0.159  75.626  0.00  0.00    +0.000 OA
ATOM      3  O   UNL     1       8.155   3.892  80.081  0.00  0.00    +0.000 OA
ATOM      4  N   UNL     1      11.300   2.020  75.134  0.00  0.00    +0.000 N 
ATOM      5  N   UNL     1      13.234   4.927  74.311  0.00  0.00    +0.000 NA
ATOM      6  C   UNL     1      11.572   3.363  75.304  0.00  0.00    +0.000 A 
ATOM      7  C   UNL     1      13.079   2.567  73.753  0.00  0.00    +0.000 A 
ATOM      8  C   UNL     1      12.211   1.412  74.161  0.00  0.00    +0.000 C 
ATOM      9  C   UNL     1       9.777   3.494  76.906  0.00  0.00    +0.000 A 
ATOM     10  C   UNL     1       8.929   4.330  77.831  0.00  0.00    +0.000 C 
ATOM     11  C   UNL     1      12.690   3.714  74.435  0.00  0.00    +0.000 A 
ATOM     12  C   UNL     1       9.506   2.183  76.745  0.00  0.00    +0.000 A 
ATOM     13  C   UNL     1      14.132   2.640  72.852  0.00  0.00    +0.000 A 
ATOM     14  C   UNL     1      10.859   4.113  76.149  0.00  0.00    +0.000 A 
ATOM     15  C   UNL     1      10.303   1.348  75.791  0.00  0.00    +0.000 A 
ATOM     16  C   UNL     1      14.740   3.916  72.671  0.00  0.00    +0.000 A 
ATOM     17  C   UNL     1       8.408   1.489  77.472  0.00  0.00    +0.000 C 
ATOM     18  C   UNL     1      14.246   5.022  73.435  0.00  0.00    +0.000 A 
ATOM     19  C   UNL     1       8.319   3.447  78.944  0.00  0.00    +0.000 C 
ATOM     20  C   UNL     1      16.349   5.424  71.634  0.00  0.00    +0.000 A 
ATOM     21  C   UNL     1      15.806   4.148  71.774  0.00  0.00    +0.000 A 
ATOM     22  C   UNL     1      14.833   6.271  73.278  0.00  0.00    +0.000 A 
ATOM     23  C   UNL     1      15.887   6.488  72.390  0.00  0.00    +0.000 A 
ENDROOT
BRANCH  10  24
ATOM     24  O   UNL     1       9.761   5.322  78.448  0.00  0.00    +0.000 OA
ATOM     25  H   UNL     1      10.407   4.834  78.997  0.00  0.00    +0.000 HD
ENDBRANCH  10  24
BRANCH  10  26
ATOM     26  C   UNL     1       7.805   5.037  77.044  0.00  0.00    +0.000 C 
ATOM     27  C   UNL     1       7.902   6.560  77.032  0.00  0.00    +0.000 C 
ENDBRANCH  10  26
BRANCH  13  28
ATOM     28  C   UNL     1      14.558   1.405  72.095  0.00  0.00    +0.000 C 
ATOM     29  C   UNL     1      13.746   1.204  70.824  0.00  0.00    +0.000 C 
ENDBRANCH  13  28
BRANCH  20  30
ATOM     30  O   UNL     1      17.430   5.611  70.771  0.00  0.00    +0.000 OA
BRANCH  30  38
ATOM     31  O   UNL     1      16.427   6.705  68.993  0.00  0.00    +0.000 OA
ATOM     32  N   UNL     1      17.497   4.694  68.651  0.00  0.00    +0.000 N 
ATOM     33  C   UNL     1      17.450   2.154  67.200  0.00  0.00    +0.000 C 
ATOM     34  C   UNL     1      17.698   2.248  68.727  0.00  0.00    +0.000 C 
ATOM     35  C   UNL     1      16.625   3.391  66.763  0.00  0.00    +0.000 C 
ATOM     36  C   UNL     1      18.300   3.587  69.142  0.00  0.00    +0.000 C 
ATOM     37  C   UNL     1      17.253   4.703  67.222  0.00  0.00    +0.000 C 
ATOM     38  C   UNL     1      17.065   5.754  69.436  0.00  0.00    +0.000 C 
BRANCH  33  39
ATOM     39  N   UNL     1      16.777   0.873  66.817  0.00  0.00    +0.000 NA
ATOM     40  C   UNL     1      17.745  -0.151  66.369  0.00  0.00    +0.000 C 
ATOM     41  C   UNL     1      15.943   0.331  67.911  0.00  0.00    +0.000 C 
ATOM     42  C   UNL     1      17.073  -1.459  65.944  0.00  0.00    +0.000 C 
ATOM     43  C   UNL     1      15.227  -0.965  67.526  0.00  0.00    +0.000 C 
ATOM     44  C   UNL     1      16.206  -2.025  67.055  0.00  0.00    +0.000 C 
ENDBRANCH  33  39
ENDBRANCH  30  38
ENDBRANCH  20  30
TORSDOF 6
ENDMDL
MODEL 8
REMARK VINA RESULT:      -4.8      3.362     12.007
REMARK  Name = 
REMARK  8 active torsions:
REMARK  status: ('A' for Active; 'I' for Inactive)
REMARK    1  A    between atoms: O_1  and  C_21
REMARK    2  A    between atoms: O_1  and  C_38
REMARK    3  A    between atoms: O_4  and  C_26
REMARK    4  A    between atoms: N_7  and  C_11
REMARK    5  A    between atoms: C_26  and  C_33
REMARK    6  A    between atoms: C_29  and  C_37
REMARK    7  A    between atoms: C_33  and  C_42
REMARK    8  A    between atoms: C_37  and  C_43
REMARK                            x       y       z     vdW  Elec       q    Type
REMARK                         _______ _______ _______ _____ _____    ______ ____
ROOT
ATOM      1  O   UNL     1      10.444  -0.513  75.676  0.00  0.00    +0.000 OA
ATOM      2  O   UNL     1      11.879  -0.926  71.736  0.00  0.00    +0.000 OA
ATOM      3  O   UNL     1      11.102   0.251  77.684  0.00  0.00    +0.000 OA
ATOM      4  N   UNL     1      13.251   0.901  71.955  0.00  0.00    +0.000 N 
ATOM      5  N   UNL     1      15.367   3.781  72.252  0.00  0.00    +0.000 NA
ATOM      6  C   UNL     1      13.698   1.986  72.681  0.00  0.00    +0.000 A 
ATOM      7  C   UNL     1      14.860   1.990  70.691  0.00  0.00    +0.000 A 
ATOM      8  C   UNL     1      13.933   0.809  70.661  0.00  0.00    +0.000 C 
ATOM      9  C   UNL     1      12.184   1.384  74.457  0.00  0.00    +0.000 A 
ATOM     10  C   UNL     1      11.584   1.696  75.804  0.00  0.00    +0.000 C 
ATOM     11  C   UNL     1      14.710   2.677  71.890  0.00  0.00    +0.000 A 
ATOM     12  C   UNL     1      11.743   0.323  73.753  0.00  0.00    +0.000 A 
ATOM     13  C   UNL     1      15.771   2.455  69.753  0.00  0.00    +0.000 A 
ATOM     14  C   UNL     1      13.208   2.257  73.894  0.00  0.00    +0.000 A 
ATOM     15  C   UNL     1      12.289   0.027  72.390  0.00  0.00    +0.000 A 
ATOM     16  C   UNL     1      16.489   3.640  70.084  0.00  0.00    +0.000 A 
ATOM     17  C   UNL     1      10.690  -0.601  74.257  0.00  0.00    +0.000 C 
ATOM     18  C   UNL     1      16.244   4.256  71.354  0.00  0.00    +0.000 A 
ATOM     19  C   UNL     1      11.045   0.406  76.463  0.00  0.00    +0.000 C 
ATOM     20  C   UNL     1      18.092   5.410  69.599  0.00  0.00    +0.000 A 
ATOM     21  C   UNL     1      17.432   4.242  69.222  0.00  0.00    +0.000 A 
ATOM     22  C   UNL     1      16.942   5.407  71.696  0.00  0.00    +0.000 A 
ATOM     23  C   UNL     1      17.873   5.991  70.837  0.00  0.00    +0.000 A 
ENDROOT
BRANCH  10  24
ATOM     24  O   UNL     1      12.607   2.241  76.649  0.00  0.00    +0.000 OA
ATOM     25  H   UNL     1      13.311   2.563  76.052  0.00  0.00    +0.000 HD
ENDBRANCH  10  24
BRANCH  10  26
ATOM     26  C   UNL     1      10.446   2.730  75.663  0.00  0.00    +0.000 C 
ATOM     27  C   UNL     1      10.503   3.875  76.671  0.00  0.00    +0.000 C 
ENDBRANCH  10  26
BRANCH  13  28
ATOM     28  C   UNL     1      15.934   1.726  68.441  0.00  0.00    +0.000 C 
ATOM     29  C   UNL     1      16.961   0.607  68.530  0.00  0.00    +0.000 C 
ENDBRANCH  13  28
BRANCH  20  30
ATOM     30  O   UNL     1      19.050   5.956  68.743  0.00  0.00    +0.000 OA
BRANCH  30  38
ATOM     31  O   UNL     1      17.746   7.024  67.154  0.00  0.00    +0.000 OA
ATOM     32  N   UNL     1      19.174   5.331  66.522  0.00  0.00    +0.000 N 
ATOM     33  C   UNL     1      19.549   3.026  64.759  0.00  0.00    +0.000 C 
ATOM     34  C   UNL     1      19.862   2.987  66.276  0.00  0.00    +0.000 C 
ATOM     35  C   UNL     1      18.470   4.111  64.513  0.00  0.00    +0.000 C 
ATOM     36  C   UNL     1      20.209   4.362  66.840  0.00  0.00    +0.000 C 
ATOM     37  C   UNL     1      18.849   5.460  65.115  0.00  0.00    +0.000 C 
ATOM     38  C   UNL     1      18.586   6.179  67.450  0.00  0.00    +0.000 C 
BRANCH  33  39
ATOM     39  N   UNL     1      19.124   1.689  64.238  0.00  0.00    +0.000 NA
ATOM     40  C   UNL     1      17.890   1.204  64.894  0.00  0.00    +0.000 C 
ATOM     41  C   UNL     1      18.944   1.692  62.771  0.00  0.00    +0.000 C 
ATOM     42  C   UNL     1      17.456  -0.176  64.397  0.00  0.00    +0.000 C 
ATOM     43  C   UNL     1      18.535   0.324  62.220  0.00  0.00    +0.000 C 
ATOM     44  C   UNL     1      17.273  -0.192  62.889  0.00  0.00    +0.000 C 
ENDBRANCH  33  39
ENDBRANCH  30  38
ENDBRANCH  20  30
TORSDOF 6
ENDMDL
MODEL 9
REMARK VINA RESULT:      -4.8      5.079     13.707
REMARK  Name = 
REMARK  8 active torsions:
REMARK  status: ('A' for Active; 'I' for Inactive)
REMARK    1  A    between atoms: O_1  and  C_21
REMARK    2  A    between atoms: O_1  and  C_38
REMARK    3  A    between atoms: O_4  and  C_26
REMARK    4  A    between atoms: N_7  and  C_11
REMARK    5  A    between atoms: C_26  and  C_33
REMARK    6  A    between atoms: C_29  and  C_37
REMARK    7  A    between atoms: C_33  and  C_42
REMARK    8  A    between atoms: C_37  and  C_43
REMARK                            x       y       z     vdW  Elec       q    Type
REMARK                         _______ _______ _______ _____ _____    ______ ____
ROOT
ATOM      1  O   UNL     1      10.814   2.547  76.486  0.00  0.00    +0.000 OA
ATOM      2  O   UNL     1      13.130   5.488  74.553  0.00  0.00    +0.000 OA
ATOM      3  O   UNL     1       9.613   0.707  76.015  0.00  0.00    +0.000 OA
ATOM      4  N   UNL     1      13.733   4.034  72.883  0.00  0.00    +0.000 N 
ATOM      5  N   UNL     1      14.731   1.770  70.286  0.00  0.00    +0.000 NA
ATOM      6  C   UNL     1      13.741   2.765  72.341  0.00  0.00    +0.000 A 
ATOM      7  C   UNL     1      14.929   4.113  70.899  0.00  0.00    +0.000 A 
ATOM      8  C   UNL     1      14.467   4.978  72.035  0.00  0.00    +0.000 C 
ATOM      9  C   UNL     1      12.438   1.990  74.214  0.00  0.00    +0.000 A 
ATOM     10  C   UNL     1      11.778   0.848  74.945  0.00  0.00    +0.000 C 
ATOM     11  C   UNL     1      14.494   2.807  71.093  0.00  0.00    +0.000 A 
ATOM     12  C   UNL     1      12.426   3.227  74.748  0.00  0.00    +0.000 A 
ATOM     13  C   UNL     1      15.679   4.417  69.771  0.00  0.00    +0.000 A 
ATOM     14  C   UNL     1      13.128   1.746  72.952  0.00  0.00    +0.000 A 
ATOM     15  C   UNL     1      13.121   4.364  74.064  0.00  0.00    +0.000 A 
ATOM     16  C   UNL     1      15.974   3.342  68.884  0.00  0.00    +0.000 A 
ATOM     17  C   UNL     1      11.755   3.545  76.038  0.00  0.00    +0.000 C 
ATOM     18  C   UNL     1      15.466   2.039  69.196  0.00  0.00    +0.000 A 
ATOM     19  C   UNL     1      10.634   1.374  75.842  0.00  0.00    +0.000 C 
ATOM     20  C   UNL     1      17.007   2.399  66.888  0.00  0.00    +0.000 A 
ATOM     21  C   UNL     1      16.743   3.494  67.709  0.00  0.00    +0.000 A 
ATOM     22  C   UNL     1      15.737   0.982  68.336  0.00  0.00    +0.000 A 
ATOM     23  C   UNL     1      16.496   1.145  67.178  0.00  0.00    +0.000 A 
ENDROOT
BRANCH  10  24
ATOM     24  O   UNL     1      11.218  -0.054  73.981  0.00  0.00    +0.000 OA
ATOM     25  H   UNL     1      10.471  -0.502  74.427  0.00  0.00    +0.000 HD
ENDBRANCH  10  24
BRANCH  10  26
ATOM     26  C   UNL     1      12.811   0.086  75.802  0.00  0.00    +0.000 C 
ATOM     27  C   UNL     1      12.490  -1.390  76.018  0.00  0.00    +0.000 C 
ENDBRANCH  10  26
BRANCH  13  28
ATOM     28  C   UNL     1      16.170   5.828  69.555  0.00  0.00    +0.000 C 
ATOM     29  C   UNL     1      15.207   6.646  68.707  0.00  0.00    +0.000 C 
ENDBRANCH  13  28
BRANCH  20  30
ATOM     30  O   UNL     1      17.733   2.590  65.712  0.00  0.00    +0.000 OA
BRANCH  30  38
ATOM     31  O   UNL     1      19.748   1.703  66.433  0.00  0.00    +0.000 OA
ATOM     32  N   UNL     1      18.840   1.018  64.431  0.00  0.00    +0.000 N 
ATOM     33  C   UNL     1      19.407   0.231  61.670  0.00  0.00    +0.000 C 
ATOM     34  C   UNL     1      18.301   1.248  62.046  0.00  0.00    +0.000 C 
ATOM     35  C   UNL     1      20.489   0.255  62.780  0.00  0.00    +0.000 C 
ATOM     36  C   UNL     1      17.761   1.033  63.458  0.00  0.00    +0.000 C 
ATOM     37  C   UNL     1      19.899   0.062  64.173  0.00  0.00    +0.000 C 
ATOM     38  C   UNL     1      18.849   1.765  65.599  0.00  0.00    +0.000 C 
BRANCH  33  39
ATOM     39  N   UNL     1      19.990   0.508  60.319  0.00  0.00    +0.000 NA
ATOM     40  C   UNL     1      21.348   1.086  60.409  0.00  0.00    +0.000 C 
ATOM     41  C   UNL     1      20.012  -0.695  59.462  0.00  0.00    +0.000 C 
ATOM     42  C   UNL     1      21.950   1.405  59.038  0.00  0.00    +0.000 C 
ATOM     43  C   UNL     1      20.580  -0.422  58.068  0.00  0.00    +0.000 C 
ATOM     44  C   UNL     1      21.973   0.179  58.142  0.00  0.00    +0.000 C 
ENDBRANCH  33  39
ENDBRANCH  30  38
ENDBRANCH  20  30
TORSDOF 6
ENDMDL
