MODEL 1
REMARK VINA RESULT:      -5.5      0.000      0.000
REMARK  Name = 
REMARK  8 active torsions:
REMARK  status: ('A' for Active; 'I' for Inactive)
REMARK    1  A    between atoms: O_1  and  C_21
REMARK    2  A    between atoms: O_1  and  C_38
REMARK    3  A    between atoms: O_4  and  C_26
REMARK    4  A    between atoms: N_7  and  C_11
REMARK    5  A    between atoms: C_26  and  C_33
REMARK    6  A    between atoms: C_29  and  C_37
REMARK    7  A    between atoms: C_33  and  C_42
REMARK    8  A    between atoms: C_37  and  C_43
REMARK                            x       y       z     vdW  Elec       q    Type
REMARK                         _______ _______ _______ _____ _____    ______ ____
ROOT
ATOM      1  O   UNL     1       6.700  11.571  60.926  0.00  0.00    +0.000 OA
ATOM      2  O   UNL     1       3.251  10.525  63.109  0.00  0.00    +0.000 OA
ATOM      3  O   UNL     1       8.799  10.858  60.564  0.00  0.00    +0.000 OA
ATOM      4  N   UNL     1       3.785   8.294  63.043  0.00  0.00    +0.000 N 
ATOM      5  N   UNL     1       4.570   4.796  62.914  0.00  0.00    +0.000 NA
ATOM      6  C   UNL     1       4.587   7.264  62.595  0.00  0.00    +0.000 A 
ATOM      7  C   UNL     1       2.953   6.312  63.910  0.00  0.00    +0.000 A 
ATOM      8  C   UNL     1       2.705   7.793  63.898  0.00  0.00    +0.000 C 
ATOM      9  C   UNL     1       5.933   8.871  61.405  0.00  0.00    +0.000 A 
ATOM     10  C   UNL     1       7.083   9.155  60.472  0.00  0.00    +0.000 C 
ATOM     11  C   UNL     1       4.067   6.013  63.135  0.00  0.00    +0.000 A 
ATOM     12  C   UNL     1       5.154   9.881  61.840  0.00  0.00    +0.000 A 
ATOM     13  C   UNL     1       2.268   5.281  64.538  0.00  0.00    +0.000 A 
ATOM     14  C   UNL     1       5.636   7.498  61.799  0.00  0.00    +0.000 A 
ATOM     15  C   UNL     1       3.976   9.613  62.725  0.00  0.00    +0.000 A 
ATOM     16  C   UNL     1       2.754   3.959  64.322  0.00  0.00    +0.000 A 
ATOM     17  C   UNL     1       5.389  11.302  61.466  0.00  0.00    +0.000 C 
ATOM     18  C   UNL     1       3.915   3.783  63.501  0.00  0.00    +0.000 A 
ATOM     19  C   UNL     1       7.601  10.596  60.682  0.00  0.00    +0.000 C 
ATOM     20  C   UNL     1       2.666   1.541  64.618  0.00  0.00    +0.000 A 
ATOM     21  C   UNL     1       2.150   2.809  64.877  0.00  0.00    +0.000 A 
ATOM     22  C   UNL     1       4.407   2.501  63.288  0.00  0.00    +0.000 A 
ATOM     23  C   UNL     1       3.802   1.374  63.843  0.00  0.00    +0.000 A 
ENDROOT
BRANCH  10  24
ATOM     24  O   UNL     1       8.151   8.244  60.766  0.00  0.00    +0.000 OA
ATOM     25  H   UNL     1       8.937   8.581  60.290  0.00  0.00    +0.000 HD
ENDBRANCH  10  24
BRANCH  10  26
ATOM     26  C   UNL     1       6.648   8.960  59.003  0.00  0.00    +0.000 C 
ATOM     27  C   UNL     1       6.980   7.589  58.422  0.00  0.00    +0.000 C 
ENDBRANCH  10  26
BRANCH  13  28
ATOM     28  C   UNL     1       1.048   5.589  65.372  0.00  0.00    +0.000 C 
ATOM     29  C   UNL     1      -0.224   5.623  64.538  0.00  0.00    +0.000 C 
ENDBRANCH  13  28
BRANCH  20  30
ATOM     30  O   UNL     1       2.072   0.430  65.216  0.00  0.00    +0.000 OA
BRANCH  30  38
ATOM     31  O   UNL     1       1.902   0.904  67.476  0.00  0.00    +0.000 OA
ATOM     32  N   UNL     1       3.386  -0.698  66.746  0.00  0.00    +0.000 N 
ATOM     33  C   UNL     1       6.033  -1.885  67.129  0.00  0.00    +0.000 C 
ATOM     34  C   UNL     1       5.483  -1.482  65.737  0.00  0.00    +0.000 C 
ATOM     35  C   UNL     1       5.340  -1.006  68.200  0.00  0.00    +0.000 C 
ATOM     36  C   UNL     1       3.958  -1.503  65.680  0.00  0.00    +0.000 C 
ATOM     37  C   UNL     1       3.819  -1.039  68.087  0.00  0.00    +0.000 C 
ATOM     38  C   UNL     1       2.407   0.266  66.557  0.00  0.00    +0.000 C 
BRANCH  33  39
ATOM     39  N   UNL     1       7.524  -1.774  67.198  0.00  0.00    +0.000 NA
ATOM     40  C   UNL     1       8.093  -1.171  65.973  0.00  0.00    +0.000 C 
ATOM     41  C   UNL     1       7.974  -1.019  68.385  0.00  0.00    +0.000 C 
ATOM     42  C   UNL     1       9.620  -1.077  66.012  0.00  0.00    +0.000 C 
ATOM     43  C   UNL     1       9.498  -0.919  68.485  0.00  0.00    +0.000 C 
ATOM     44  C   UNL     1      10.100  -0.308  67.231  0.00  0.00    +0.000 C 
ENDBRANCH  33  39
ENDBRANCH  30  38
ENDBRANCH  20  30
TORSDOF 6
ENDMDL
MODEL 2
REMARK VINA RESULT:      -5.3     12.140     15.584
REMARK  Name = 
REMARK  8 active torsions:
REMARK  status: ('A' for Active; 'I' for Inactive)
REMARK    1  A    between atoms: O_1  and  C_21
REMARK    2  A    between atoms: O_1  and  C_38
REMARK    3  A    between atoms: O_4  and  C_26
REMARK    4  A    between atoms: N_7  and  C_11
REMARK    5  A    between atoms: C_26  and  C_33
REMARK    6  A    between atoms: C_29  and  C_37
REMARK    7  A    between atoms: C_33  and  C_42
REMARK    8  A    between atoms: C_37  and  C_43
REMARK                            x       y       z     vdW  Elec       q    Type
REMARK                         _______ _______ _______ _____ _____    ______ ____
ROOT
ATOM      1  O   UNL     1       7.015   0.312  78.184  0.00  0.00    +0.000 OA
ATOM      2  O   UNL     1       9.942  -0.734  75.339  0.00  0.00    +0.000 OA
ATOM      3  O   UNL     1       6.681   1.762  79.867  0.00  0.00    +0.000 OA
ATOM      4  N   UNL     1      10.778   1.403  75.291  0.00  0.00    +0.000 N 
ATOM      5  N   UNL     1      12.074   4.745  75.158  0.00  0.00    +0.000 NA
ATOM      6  C   UNL     1      10.707   2.729  75.668  0.00  0.00    +0.000 A 
ATOM      7  C   UNL     1      12.543   2.525  74.290  0.00  0.00    +0.000 A 
ATOM      8  C   UNL     1      11.922   1.163  74.407  0.00  0.00    +0.000 C 
ATOM      9  C   UNL     1       8.741   2.223  76.967  0.00  0.00    +0.000 A 
ATOM     10  C   UNL     1       7.612   2.704  77.843  0.00  0.00    +0.000 C 
ATOM     11  C   UNL     1      11.814   3.441  75.040  0.00  0.00    +0.000 A 
ATOM     12  C   UNL     1       8.805   0.927  76.602  0.00  0.00    +0.000 A 
ATOM     13  C   UNL     1      13.656   2.959  73.585  0.00  0.00    +0.000 A 
ATOM     14  C   UNL     1       9.738   3.169  76.476  0.00  0.00    +0.000 A 
ATOM     15  C   UNL     1       9.889   0.440  75.690  0.00  0.00    +0.000 A 
ATOM     16  C   UNL     1      13.969   4.347  73.665  0.00  0.00    +0.000 A 
ATOM     17  C   UNL     1       7.815  -0.089  77.052  0.00  0.00    +0.000 C 
ATOM     18  C   UNL     1      13.139   5.190  74.473  0.00  0.00    +0.000 A 
ATOM     19  C   UNL     1       7.087   1.548  78.724  0.00  0.00    +0.000 C 
ATOM     20  C   UNL     1      15.303   6.306  73.095  0.00  0.00    +0.000 A 
ATOM     21  C   UNL     1      15.057   4.938  72.986  0.00  0.00    +0.000 A 
ATOM     22  C   UNL     1      13.435   6.543  74.569  0.00  0.00    +0.000 A 
ATOM     23  C   UNL     1      14.514   7.115  73.895  0.00  0.00    +0.000 A 
ENDROOT
BRANCH  10  24
ATOM     24  O   UNL     1       8.106   3.740  78.704  0.00  0.00    +0.000 OA
ATOM     25  H   UNL     1       9.081   3.714  78.630  0.00  0.00    +0.000 HD
ENDBRANCH  10  24
BRANCH  10  26
ATOM     26  C   UNL     1       6.464   3.273  76.981  0.00  0.00    +0.000 C 
ATOM     27  C   UNL     1       5.757   4.482  77.587  0.00  0.00    +0.000 C 
ENDBRANCH  10  26
BRANCH  13  28
ATOM     28  C   UNL     1      14.449   1.978  72.757  0.00  0.00    +0.000 C 
ATOM     29  C   UNL     1      13.891   1.833  71.349  0.00  0.00    +0.000 C 
ENDBRANCH  13  28
BRANCH  20  30
ATOM     30  O   UNL     1      16.411   6.851  72.447  0.00  0.00    +0.000 OA
BRANCH  30  38
ATOM     31  O   UNL     1      15.523   8.180  70.771  0.00  0.00    +0.000 OA
ATOM     32  N   UNL     1      16.745   6.306  70.226  0.00  0.00    +0.000 N 
ATOM     33  C   UNL     1      17.001   4.045  68.386  0.00  0.00    +0.000 C 
ATOM     34  C   UNL     1      17.090   3.893  69.925  0.00  0.00    +0.000 C 
ATOM     35  C   UNL     1      16.147   5.299  68.069  0.00  0.00    +0.000 C 
ATOM     36  C   UNL     1      17.563   5.170  70.615  0.00  0.00    +0.000 C 
ATOM     37  C   UNL     1      16.643   6.543  68.799  0.00  0.00    +0.000 C 
ATOM     38  C   UNL     1      16.173   7.199  71.120  0.00  0.00    +0.000 C 
BRANCH  33  39
ATOM     39  N   UNL     1      16.450   2.817  67.731  0.00  0.00    +0.000 NA
ATOM     40  C   UNL     1      17.114   2.530  66.442  0.00  0.00    +0.000 C 
ATOM     41  C   UNL     1      16.528   1.632  68.610  0.00  0.00    +0.000 C 
ATOM     42  C   UNL     1      16.544   1.295  65.741  0.00  0.00    +0.000 C 
ATOM     43  C   UNL     1      15.944   0.373  67.964  0.00  0.00    +0.000 C 
ATOM     44  C   UNL     1      16.610   0.068  66.634  0.00  0.00    +0.000 C 
ENDBRANCH  33  39
ENDBRANCH  30  38
ENDBRANCH  20  30
TORSDOF 6
ENDMDL
MODEL 3
REMARK VINA RESULT:      -5.3     13.264     17.859
REMARK  Name = 
REMARK  8 active torsions:
REMARK  status: ('A' for Active; 'I' for Inactive)
REMARK    1  A    between atoms: O_1  and  C_21
REMARK    2  A    between atoms: O_1  and  C_38
REMARK    3  A    between atoms: O_4  and  C_26
REMARK    4  A    between atoms: N_7  and  C_11
REMARK    5  A    between atoms: C_26  and  C_33
REMARK    6  A    between atoms: C_29  and  C_37
REMARK    7  A    between atoms: C_33  and  C_42
REMARK    8  A    between atoms: C_37  and  C_43
REMARK                            x       y       z     vdW  Elec       q    Type
REMARK                         _______ _______ _______ _____ _____    ______ ____
ROOT
ATOM      1  O   UNL     1      19.894   6.272  48.835  0.00  0.00    +0.000 OA
ATOM      2  O   UNL     1      17.411   9.469  50.004  0.00  0.00    +0.000 OA
ATOM      3  O   UNL     1      21.769   5.214  49.480  0.00  0.00    +0.000 OA
ATOM      4  N   UNL     1      17.954   9.190  52.217  0.00  0.00    +0.000 N 
ATOM      5  N   UNL     1      18.745   8.746  55.687  0.00  0.00    +0.000 NA
ATOM      6  C   UNL     1      18.586   8.481  53.218  0.00  0.00    +0.000 A 
ATOM      7  C   UNL     1      17.516  10.253  54.230  0.00  0.00    +0.000 A 
ATOM      8  C   UNL     1      17.238  10.349  52.758  0.00  0.00    +0.000 C 
ATOM      9  C   UNL     1      19.409   6.936  51.562  0.00  0.00    +0.000 A 
ATOM     10  C   UNL     1      20.169   5.675  51.235  0.00  0.00    +0.000 C 
ATOM     11  C   UNL     1      18.313   9.144  54.488  0.00  0.00    +0.000 A 
ATOM     12  C   UNL     1      18.793   7.624  50.580  0.00  0.00    +0.000 A 
ATOM     13  C   UNL     1      17.111  11.057  55.286  0.00  0.00    +0.000 A 
ATOM     14  C   UNL     1      19.299   7.384  52.946  0.00  0.00    +0.000 A 
ATOM     15  C   UNL     1      17.989   8.848  50.891  0.00  0.00    +0.000 A 
ATOM     16  C   UNL     1      17.533  10.668  56.591  0.00  0.00    +0.000 A 
ATOM     17  C   UNL     1      18.849   7.217  49.149  0.00  0.00    +0.000 C 
ATOM     18  C   UNL     1      18.354   9.502  56.725  0.00  0.00    +0.000 A 
ATOM     19  C   UNL     1      20.688   5.723  49.780  0.00  0.00    +0.000 C 
ATOM     20  C   UNL     1      17.616  10.935  59.012  0.00  0.00    +0.000 A 
ATOM     21  C   UNL     1      17.182  11.374  57.763  0.00  0.00    +0.000 A 
ATOM     22  C   UNL     1      18.782   9.115  57.988  0.00  0.00    +0.000 A 
ATOM     23  C   UNL     1      18.430   9.822  59.138  0.00  0.00    +0.000 A 
ENDROOT
BRANCH  10  24
ATOM     24  O   UNL     1      21.299   5.578  52.114  0.00  0.00    +0.000 OA
ATOM     25  H   UNL     1      22.062   5.333  51.552  0.00  0.00    +0.000 HD
ENDBRANCH  10  24
BRANCH  10  26
ATOM     26  C   UNL     1      19.272   4.435  51.434  0.00  0.00    +0.000 C 
ATOM     27  C   UNL     1      19.944   3.278  52.167  0.00  0.00    +0.000 C 
ENDBRANCH  10  26
BRANCH  13  28
ATOM     28  C   UNL     1      16.235  12.257  55.023  0.00  0.00    +0.000 C 
ATOM     29  C   UNL     1      14.760  11.888  54.958  0.00  0.00    +0.000 C 
ENDBRANCH  13  28
BRANCH  20  30
ATOM     30  O   UNL     1      17.289  11.680  60.146  0.00  0.00    +0.000 OA
BRANCH  30  38
ATOM     31  O   UNL     1      15.846  10.273  61.288  0.00  0.00    +0.000 OA
ATOM     32  N   UNL     1      15.105  12.322  60.543  0.00  0.00    +0.000 N 
ATOM     33  C   UNL     1      12.856  13.800  59.394  0.00  0.00    +0.000 C 
ATOM     34  C   UNL     1      14.303  13.908  58.849  0.00  0.00    +0.000 C 
ATOM     35  C   UNL     1      12.696  12.420  60.081  0.00  0.00    +0.000 C 
ATOM     36  C   UNL     1      15.355  13.607  59.913  0.00  0.00    +0.000 C 
ATOM     37  C   UNL     1      13.784  12.155  61.118  0.00  0.00    +0.000 C 
ATOM     38  C   UNL     1      16.064  11.334  60.711  0.00  0.00    +0.000 C 
BRANCH  33  39
ATOM     39  N   UNL     1      11.834  14.009  58.321  0.00  0.00    +0.000 NA
ATOM     40  C   UNL     1      11.947  13.003  57.243  0.00  0.00    +0.000 C 
ATOM     41  C   UNL     1      10.456  14.020  58.856  0.00  0.00    +0.000 C 
ATOM     42  C   UNL     1      10.929  13.218  56.120  0.00  0.00    +0.000 C 
ATOM     43  C   UNL     1       9.400  14.260  57.774  0.00  0.00    +0.000 C 
ATOM     44  C   UNL     1       9.508  13.239  56.655  0.00  0.00    +0.000 C 
ENDBRANCH  33  39
ENDBRANCH  30  38
ENDBRANCH  20  30
TORSDOF 6
ENDMDL
MODEL 4
REMARK VINA RESULT:      -5.2     11.907     13.827
REMARK  Name = 
REMARK  8 active torsions:
REMARK  status: ('A' for Active; 'I' for Inactive)
REMARK    1  A    between atoms: O_1  and  C_21
REMARK    2  A    between atoms: O_1  and  C_38
REMARK    3  A    between atoms: O_4  and  C_26
REMARK    4  A    between atoms: N_7  and  C_11
REMARK    5  A    between atoms: C_26  and  C_33
REMARK    6  A    between atoms: C_29  and  C_37
REMARK    7  A    between atoms: C_33  and  C_42
REMARK    8  A    between atoms: C_37  and  C_43
REMARK                            x       y       z     vdW  Elec       q    Type
REMARK                         _______ _______ _______ _____ _____    ______ ____
ROOT
ATOM      1  O   UNL     1      17.622   4.811  67.103  0.00  0.00    +0.000 OA
ATOM      2  O   UNL     1      15.964   1.091  68.183  0.00  0.00    +0.000 OA
ATOM      3  O   UNL     1      17.214   7.011  67.310  0.00  0.00    +0.000 OA
ATOM      4  N   UNL     1      14.987   1.978  70.061  0.00  0.00    +0.000 N 
ATOM      5  N   UNL     1      13.490   3.325  73.029  0.00  0.00    +0.000 NA
ATOM      6  C   UNL     1      14.793   3.033  70.928  0.00  0.00    +0.000 A 
ATOM      7  C   UNL     1      13.569   1.262  71.749  0.00  0.00    +0.000 A 
ATOM      8  C   UNL     1      14.245   0.791  70.494  0.00  0.00    +0.000 C 
ATOM      9  C   UNL     1      16.236   4.389  69.555  0.00  0.00    +0.000 A 
ATOM     10  C   UNL     1      16.944   5.701  69.326  0.00  0.00    +0.000 C 
ATOM     11  C   UNL     1      13.903   2.588  71.995  0.00  0.00    +0.000 A 
ATOM     12  C   UNL     1      16.430   3.363  68.703  0.00  0.00    +0.000 A 
ATOM     13  C   UNL     1      12.727   0.600  72.631  0.00  0.00    +0.000 A 
ATOM     14  C   UNL     1      15.379   4.217  70.723  0.00  0.00    +0.000 A 
ATOM     15  C   UNL     1      15.777   2.036  68.943  0.00  0.00    +0.000 A 
ATOM     16  C   UNL     1      12.270   1.337  73.762  0.00  0.00    +0.000 A 
ATOM     17  C   UNL     1      17.302   3.462  67.501  0.00  0.00    +0.000 C 
ATOM     18  C   UNL     1      12.685   2.701  73.902  0.00  0.00    +0.000 A 
ATOM     19  C   UNL     1      17.248   5.891  67.822  0.00  0.00    +0.000 C 
ATOM     20  C   UNL     1      11.024   1.562  75.844  0.00  0.00    +0.000 A 
ATOM     21  C   UNL     1      11.426   0.792  74.755  0.00  0.00    +0.000 A 
ATOM     22  C   UNL     1      12.241   3.437  74.994  0.00  0.00    +0.000 A 
ATOM     23  C   UNL     1      11.407   2.887  75.967  0.00  0.00    +0.000 A 
ENDROOT
BRANCH  10  24
ATOM     24  O   UNL     1      16.085   6.768  69.751  0.00  0.00    +0.000 OA
ATOM     25  H   UNL     1      16.659   7.415  70.208  0.00  0.00    +0.000 HD
ENDBRANCH  10  24
BRANCH  10  26
ATOM     26  C   UNL     1      18.254   5.757  70.140  0.00  0.00    +0.000 C 
ATOM     27  C   UNL     1      18.359   6.947  71.090  0.00  0.00    +0.000 C 
ENDBRANCH  10  26
BRANCH  13  28
ATOM     28  C   UNL     1      12.367  -0.845  72.384  0.00  0.00    +0.000 C 
ATOM     29  C   UNL     1      13.383  -1.801  72.989  0.00  0.00    +0.000 C 
ENDBRANCH  13  28
BRANCH  20  30
ATOM     30  O   UNL     1      10.156   1.008  76.785  0.00  0.00    +0.000 OA
BRANCH  30  38
ATOM     31  O   UNL     1       8.303   0.444  75.514  0.00  0.00    +0.000 OA
ATOM     32  N   UNL     1       8.107   1.986  77.214  0.00  0.00    +0.000 N 
ATOM     33  C   UNL     1       6.840   4.480  78.073  0.00  0.00    +0.000 C 
ATOM     34  C   UNL     1       8.356   4.205  78.235  0.00  0.00    +0.000 C 
ATOM     35  C   UNL     1       6.316   3.632  76.886  0.00  0.00    +0.000 C 
ATOM     36  C   UNL     1       8.676   2.716  78.334  0.00  0.00    +0.000 C 
ATOM     37  C   UNL     1       6.680   2.156  77.018  0.00  0.00    +0.000 C 
ATOM     38  C   UNL     1       8.813   1.088  76.428  0.00  0.00    +0.000 C 
BRANCH  33  39
ATOM     39  N   UNL     1       6.549   5.937  77.886  0.00  0.00    +0.000 NA
ATOM     40  C   UNL     1       7.424   6.551  76.864  0.00  0.00    +0.000 C 
ATOM     41  C   UNL     1       5.132   6.186  77.549  0.00  0.00    +0.000 C 
ATOM     42  C   UNL     1       7.163   8.048  76.681  0.00  0.00    +0.000 C 
ATOM     43  C   UNL     1       4.813   7.673  77.382  0.00  0.00    +0.000 C 
ATOM     44  C   UNL     1       5.708   8.321  76.341  0.00  0.00    +0.000 C 
ENDBRANCH  33  39
ENDBRANCH  30  38
ENDBRANCH  20  30
TORSDOF 6
ENDMDL
MODEL 5
REMARK VINA RESULT:      -5.1      9.574     13.150
REMARK  Name = 
REMARK  8 active torsions:
REMARK  status: ('A' for Active; 'I' for Inactive)
REMARK    1  A    between atoms: O_1  and  C_21
REMARK    2  A    between atoms: O_1  and  C_38
REMARK    3  A    between atoms: O_4  and  C_26
REMARK    4  A    between atoms: N_7  and  C_11
REMARK    5  A    between atoms: C_26  and  C_33
REMARK    6  A    between atoms: C_29  and  C_37
REMARK    7  A    between atoms: C_33  and  C_42
REMARK    8  A    between atoms: C_37  and  C_43
REMARK                            x       y       z     vdW  Elec       q    Type
REMARK                         _______ _______ _______ _____ _____    ______ ____
ROOT
ATOM      1  O   UNL     1      19.103  12.117  60.572  0.00  0.00    +0.000 OA
ATOM      2  O   UNL     1      16.125  12.273  57.596  0.00  0.00    +0.000 OA
ATOM      3  O   UNL     1      19.467  12.775  62.689  0.00  0.00    +0.000 OA
ATOM      4  N   UNL     1      14.446  12.325  59.161  0.00  0.00    +0.000 N 
ATOM      5  N   UNL     1      11.802  12.359  61.584  0.00  0.00    +0.000 NA
ATOM      6  C   UNL     1      14.027  12.255  60.474  0.00  0.00    +0.000 A 
ATOM      7  C   UNL     1      12.139  12.543  59.185  0.00  0.00    +0.000 A 
ATOM      8  C   UNL     1      13.313  12.511  58.250  0.00  0.00    +0.000 C 
ATOM      9  C   UNL     1      16.320  11.981  61.161  0.00  0.00    +0.000 A 
ATOM     10  C   UNL     1      17.319  11.746  62.266  0.00  0.00    +0.000 C 
ATOM     11  C   UNL     1      12.575  12.389  60.495  0.00  0.00    +0.000 A 
ATOM     12  C   UNL     1      16.737  12.049  59.881  0.00  0.00    +0.000 A 
ATOM     13  C   UNL     1      10.781  12.687  58.934  0.00  0.00    +0.000 A 
ATOM     14  C   UNL     1      14.899  12.088  61.473  0.00  0.00    +0.000 A 
ATOM     15  C   UNL     1      15.755  12.229  58.765  0.00  0.00    +0.000 A 
ATOM     16  C   UNL     1       9.910  12.647  60.061  0.00  0.00    +0.000 A 
ATOM     17  C   UNL     1      18.168  11.933  59.489  0.00  0.00    +0.000 C 
ATOM     18  C   UNL     1      10.484  12.484  61.364  0.00  0.00    +0.000 A 
ATOM     19  C   UNL     1      18.710  12.278  61.854  0.00  0.00    +0.000 C 
ATOM     20  C   UNL     1       7.707  12.699  61.101  0.00  0.00    +0.000 A 
ATOM     21  C   UNL     1       8.506  12.759  59.961  0.00  0.00    +0.000 A 
ATOM     22  C   UNL     1       9.650  12.452  62.474  0.00  0.00    +0.000 A 
ATOM     23  C   UNL     1       8.264  12.565  62.362  0.00  0.00    +0.000 A 
ENDROOT
BRANCH  10  24
ATOM     24  O   UNL     1      16.890  12.460  63.434  0.00  0.00    +0.000 OA
ATOM     25  H   UNL     1      16.303  11.852  63.926  0.00  0.00    +0.000 HD
ENDBRANCH  10  24
BRANCH  10  26
ATOM     26  C   UNL     1      17.408  10.242  62.603  0.00  0.00    +0.000 C 
ATOM     27  C   UNL     1      17.562   9.935  64.090  0.00  0.00    +0.000 C 
ENDBRANCH  10  26
BRANCH  13  28
ATOM     28  C   UNL     1      10.293  12.841  57.515  0.00  0.00    +0.000 C 
ATOM     29  C   UNL     1      10.301  14.293  57.059  0.00  0.00    +0.000 C 
ENDBRANCH  13  28
BRANCH  20  30
ATOM     30  O   UNL     1       6.326  12.857  60.973  0.00  0.00    +0.000 OA
BRANCH  30  38
ATOM     31  O   UNL     1       6.093  15.127  61.366  0.00  0.00    +0.000 OA
ATOM     32  N   UNL     1       4.976  13.609  62.690  0.00  0.00    +0.000 N 
ATOM     33  C   UNL     1       4.072  12.981  65.401  0.00  0.00    +0.000 C 
ATOM     34  C   UNL     1       4.792  11.953  64.493  0.00  0.00    +0.000 C 
ATOM     35  C   UNL     1       4.505  14.404  64.964  0.00  0.00    +0.000 C 
ATOM     36  C   UNL     1       4.597  12.243  63.008  0.00  0.00    +0.000 C 
ATOM     37  C   UNL     1       4.315  14.638  63.469  0.00  0.00    +0.000 C 
ATOM     38  C   UNL     1       5.821  13.963  61.649  0.00  0.00    +0.000 C 
BRANCH  33  39
ATOM     39  N   UNL     1       4.346  12.738  66.853  0.00  0.00    +0.000 NA
ATOM     40  C   UNL     1       5.405  13.628  67.375  0.00  0.00    +0.000 C 
ATOM     41  C   UNL     1       3.128  12.866  67.680  0.00  0.00    +0.000 C 
ATOM     42  C   UNL     1       5.721  13.374  68.851  0.00  0.00    +0.000 C 
ATOM     43  C   UNL     1       3.386  12.594  69.164  0.00  0.00    +0.000 C 
ATOM     44  C   UNL     1       4.477  13.495  69.715  0.00  0.00    +0.000 C 
ENDBRANCH  33  39
ENDBRANCH  30  38
ENDBRANCH  20  30
TORSDOF 6
ENDMDL
MODEL 6
REMARK VINA RESULT:      -5.1     12.308     15.468
REMARK  Name = 
REMARK  8 active torsions:
REMARK  status: ('A' for Active; 'I' for Inactive)
REMARK    1  A    between atoms: O_1  and  C_21
REMARK    2  A    between atoms: O_1  and  C_38
REMARK    3  A    between atoms: O_4  and  C_26
REMARK    4  A    between atoms: N_7  and  C_11
REMARK    5  A    between atoms: C_26  and  C_33
REMARK    6  A    between atoms: C_29  and  C_37
REMARK    7  A    between atoms: C_33  and  C_42
REMARK    8  A    between atoms: C_37  and  C_43
REMARK                            x       y       z     vdW  Elec       q    Type
REMARK                         _______ _______ _______ _____ _____    ______ ____
ROOT
ATOM      1  O   UNL     1      20.720  -1.429  58.574  0.00  0.00    +0.000 OA
ATOM      2  O   UNL     1      18.339  -1.807  62.030  0.00  0.00    +0.000 OA
ATOM      3  O   UNL     1      21.418   0.133  57.118  0.00  0.00    +0.000 OA
ATOM      4  N   UNL     1      18.791   0.348  62.678  0.00  0.00    +0.000 N 
ATOM      5  N   UNL     1      19.520   3.696  63.740  0.00  0.00    +0.000 NA
ATOM      6  C   UNL     1      19.474   1.535  62.506  0.00  0.00    +0.000 A 
ATOM      7  C   UNL     1      18.136   1.798  64.364  0.00  0.00    +0.000 A 
ATOM      8  C   UNL     1      17.903   0.410  63.842  0.00  0.00    +0.000 C 
ATOM      9  C   UNL     1      20.559   0.596  60.570  0.00  0.00    +0.000 A 
ATOM     10  C   UNL     1      21.564   0.740  59.455  0.00  0.00    +0.000 C 
ATOM     11  C   UNL     1      19.067   2.452  63.565  0.00  0.00    +0.000 A 
ATOM     12  C   UNL     1      19.896  -0.566  60.732  0.00  0.00    +0.000 A 
ATOM     13  C   UNL     1      17.594   2.463  65.454  0.00  0.00    +0.000 A 
ATOM     14  C   UNL     1      20.339   1.698  61.500  0.00  0.00    +0.000 A 
ATOM     15  C   UNL     1      18.932  -0.746  61.865  0.00  0.00    +0.000 A 
ATOM     16  C   UNL     1      18.054   3.789  65.695  0.00  0.00    +0.000 A 
ATOM     17  C   UNL     1      20.081  -1.736  59.831  0.00  0.00    +0.000 C 
ATOM     18  C   UNL     1      19.018   4.352  64.797  0.00  0.00    +0.000 A 
ATOM     19  C   UNL     1      21.204  -0.203  58.284  0.00  0.00    +0.000 C 
ATOM     20  C   UNL     1      18.109   5.868  66.966  0.00  0.00    +0.000 A 
ATOM     21  C   UNL     1      17.610   4.581  66.777  0.00  0.00    +0.000 A 
ATOM     22  C   UNL     1      19.470   5.648  65.013  0.00  0.00    +0.000 A 
ATOM     23  C   UNL     1      19.022   6.420  66.084  0.00  0.00    +0.000 A 
ENDROOT
BRANCH  10  24
ATOM     24  O   UNL     1      21.529   2.091  58.974  0.00  0.00    +0.000 OA
ATOM     25  H   UNL     1      21.219   2.639  59.723  0.00  0.00    +0.000 HD
ENDBRANCH  10  24
BRANCH  10  26
ATOM     26  C   UNL     1      22.986   0.426  59.966  0.00  0.00    +0.000 C 
ATOM     27  C   UNL     1      24.077   1.327  59.394  0.00  0.00    +0.000 C 
ENDBRANCH  10  26
BRANCH  13  28
ATOM     28  C   UNL     1      16.591   1.760  66.338  0.00  0.00    +0.000 C 
ATOM     29  C   UNL     1      17.260   0.995  67.469  0.00  0.00    +0.000 C 
ENDBRANCH  13  28
BRANCH  20  30
ATOM     30  O   UNL     1      17.617   6.640  68.019  0.00  0.00    +0.000 OA
BRANCH  30  38
ATOM     31  O   UNL     1      19.196   6.292  69.678  0.00  0.00    +0.000 OA
ATOM     32  N   UNL     1      17.005   5.675  70.027  0.00  0.00    +0.000 N 
ATOM     33  C   UNL     1      15.222   3.682  71.216  0.00  0.00    +0.000 C 
ATOM     34  C   UNL     1      15.043   4.219  69.774  0.00  0.00    +0.000 C 
ATOM     35  C   UNL     1      16.716   3.816  71.605  0.00  0.00    +0.000 C 
ATOM     36  C   UNL     1      15.619   5.621  69.593  0.00  0.00    +0.000 C 
ATOM     37  C   UNL     1      17.252   5.227  71.385  0.00  0.00    +0.000 C 
ATOM     38  C   UNL     1      18.039   6.212  69.275  0.00  0.00    +0.000 C 
BRANCH  33  39
ATOM     39  N   UNL     1      14.734   2.274  71.357  0.00  0.00    +0.000 NA
ATOM     40  C   UNL     1      13.452   2.200  72.089  0.00  0.00    +0.000 C 
ATOM     41  C   UNL     1      14.607   1.593  70.051  0.00  0.00    +0.000 C 
ATOM     42  C   UNL     1      12.952   0.765  72.270  0.00  0.00    +0.000 C 
ATOM     43  C   UNL     1      14.136   0.143  70.180  0.00  0.00    +0.000 C 
ATOM     44  C   UNL     1      12.823   0.049  70.936  0.00  0.00    +0.000 C 
ENDBRANCH  33  39
ENDBRANCH  30  38
ENDBRANCH  20  30
TORSDOF 6
ENDMDL
MODEL 7
REMARK VINA RESULT:      -4.9     12.208     15.626
REMARK  Name = 
REMARK  8 active torsions:
REMARK  status: ('A' for Active; 'I' for Inactive)
REMARK    1  A    between atoms: O_1  and  C_21
REMARK    2  A    between atoms: O_1  and  C_38
REMARK    3  A    between atoms: O_4  and  C_26
REMARK    4  A    between atoms: N_7  and  C_11
REMARK    5  A    between atoms: C_26  and  C_33
REMARK    6  A    between atoms: C_29  and  C_37
REMARK    7  A    between atoms: C_33  and  C_42
REMARK    8  A    between atoms: C_37  and  C_43
REMARK                            x       y       z     vdW  Elec       q    Type
REMARK                         _______ _______ _______ _____ _____    ______ ____
ROOT
ATOM      1  O   UNL     1       5.748   1.405  79.323  0.00  0.00    +0.000 OA
ATOM      2  O   UNL     1       8.068  -0.740  76.536  0.00  0.00    +0.000 OA
ATOM      3  O   UNL     1       5.931   3.107  80.779  0.00  0.00    +0.000 OA
ATOM      4  N   UNL     1       9.405   1.079  76.123  0.00  0.00    +0.000 N 
ATOM      5  N   UNL     1      11.479   3.920  75.421  0.00  0.00    +0.000 NA
ATOM      6  C   UNL     1       9.700   2.416  76.296  0.00  0.00    +0.000 A 
ATOM      7  C   UNL     1      11.302   1.557  74.881  0.00  0.00    +0.000 A 
ATOM      8  C   UNL     1      10.373   0.432  75.233  0.00  0.00    +0.000 C 
ATOM      9  C   UNL     1       7.787   2.619  77.749  0.00  0.00    +0.000 A 
ATOM     10  C   UNL     1       6.893   3.491  78.593  0.00  0.00    +0.000 C 
ATOM     11  C   UNL     1      10.892   2.724  75.515  0.00  0.00    +0.000 A 
ATOM     12  C   UNL     1       7.493   1.314  77.583  0.00  0.00    +0.000 A 
ATOM     13  C   UNL     1      12.425   1.588  74.066  0.00  0.00    +0.000 A 
ATOM     14  C   UNL     1       8.943   3.198  77.073  0.00  0.00    +0.000 A 
ATOM     15  C   UNL     1       8.340   0.444  76.706  0.00  0.00    +0.000 A 
ATOM     16  C   UNL     1      13.081   2.844  73.918  0.00  0.00    +0.000 A 
ATOM     17  C   UNL     1       6.322   0.660  78.229  0.00  0.00    +0.000 C 
ATOM     18  C   UNL     1      12.559   3.975  74.627  0.00  0.00    +0.000 A 
ATOM     19  C   UNL     1       6.171   2.641  79.664  0.00  0.00    +0.000 C 
ATOM     20  C   UNL     1      14.809   4.293  72.994  0.00  0.00    +0.000 A 
ATOM     21  C   UNL     1      14.221   3.035  73.106  0.00  0.00    +0.000 A 
ATOM     22  C   UNL     1      13.192   5.205  74.501  0.00  0.00    +0.000 A 
ATOM     23  C   UNL     1      14.318   5.380  73.697  0.00  0.00    +0.000 A 
ENDROOT
BRANCH  10  24
ATOM     24  O   UNL     1       7.701   4.469  79.262  0.00  0.00    +0.000 OA
ATOM     25  H   UNL     1       8.541   4.022  79.487  0.00  0.00    +0.000 HD
ENDBRANCH  10  24
BRANCH  10  26
ATOM     26  C   UNL     1       5.855   4.217  77.710  0.00  0.00    +0.000 C 
ATOM     27  C   UNL     1       6.221   5.655  77.356  0.00  0.00    +0.000 C 
ENDBRANCH  10  26
BRANCH  13  28
ATOM     28  C   UNL     1      12.874   0.331  73.360  0.00  0.00    +0.000 C 
ATOM     29  C   UNL     1      12.201   0.162  72.007  0.00  0.00    +0.000 C 
ENDBRANCH  13  28
BRANCH  20  30
ATOM     30  O   UNL     1      15.960   4.439  72.218  0.00  0.00    +0.000 OA
BRANCH  30  38
ATOM     31  O   UNL     1      16.993   2.366  72.236  0.00  0.00    +0.000 OA
ATOM     32  N   UNL     1      16.092   3.185  70.281  0.00  0.00    +0.000 N 
ATOM     33  C   UNL     1      16.412   3.392  67.380  0.00  0.00    +0.000 C 
ATOM     34  C   UNL     1      16.062   4.605  68.278  0.00  0.00    +0.000 C 
ATOM     35  C   UNL     1      17.173   2.352  68.241  0.00  0.00    +0.000 C 
ATOM     36  C   UNL     1      15.341   4.198  69.560  0.00  0.00    +0.000 C 
ATOM     37  C   UNL     1      16.425   1.996  69.522  0.00  0.00    +0.000 C 
ATOM     38  C   UNL     1      16.397   3.254  71.633  0.00  0.00    +0.000 C 
BRANCH  33  39
ATOM     39  N   UNL     1      17.198   3.795  66.171  0.00  0.00    +0.000 NA
ATOM     40  C   UNL     1      18.222   4.813  66.489  0.00  0.00    +0.000 C 
ATOM     41  C   UNL     1      17.830   2.638  65.504  0.00  0.00    +0.000 C 
ATOM     42  C   UNL     1      19.017   5.261  65.260  0.00  0.00    +0.000 C 
ATOM     43  C   UNL     1      18.616   3.031  64.250  0.00  0.00    +0.000 C 
ATOM     44  C   UNL     1      19.668   4.082  64.558  0.00  0.00    +0.000 C 
ENDBRANCH  33  39
ENDBRANCH  30  38
ENDBRANCH  20  30
TORSDOF 6
ENDMDL
MODEL 8
REMARK VINA RESULT:      -4.8     13.704     19.261
REMARK  Name = 
REMARK  8 active torsions:
REMARK  status: ('A' for Active; 'I' for Inactive)
REMARK    1  A    between atoms: O_1  and  C_21
REMARK    2  A    between atoms: O_1  and  C_38
REMARK    3  A    between atoms: O_4  and  C_26
REMARK    4  A    between atoms: N_7  and  C_11
REMARK    5  A    between atoms: C_26  and  C_33
REMARK    6  A    between atoms: C_29  and  C_37
REMARK    7  A    between atoms: C_33  and  C_42
REMARK    8  A    between atoms: C_37  and  C_43
REMARK                            x       y       z     vdW  Elec       q    Type
REMARK                         _______ _______ _______ _____ _____    ______ ____
ROOT
ATOM      1  O   UNL     1      16.113  13.292  63.126  0.00  0.00    +0.000 OA
ATOM      2  O   UNL     1      19.083  10.492  62.082  0.00  0.00    +0.000 OA
ATOM      3  O   UNL     1      14.943  14.987  62.228  0.00  0.00    +0.000 OA
ATOM      4  N   UNL     1      18.424  10.487  59.884  0.00  0.00    +0.000 N 
ATOM      5  N   UNL     1      17.383  10.422  56.452  0.00  0.00    +0.000 NA
ATOM      6  C   UNL     1      17.547  10.880  58.893  0.00  0.00    +0.000 A 
ATOM      7  C   UNL     1      19.128   9.536  57.891  0.00  0.00    +0.000 A 
ATOM      8  C   UNL     1      19.479   9.622  59.349  0.00  0.00    +0.000 C 
ATOM      9  C   UNL     1      16.302  12.134  60.531  0.00  0.00    +0.000 A 
ATOM     10  C   UNL     1      15.110  12.993  60.868  0.00  0.00    +0.000 C 
ATOM     11  C   UNL     1      17.984  10.282  57.636  0.00  0.00    +0.000 A 
ATOM     12  C   UNL     1      17.154  11.754  61.504  0.00  0.00    +0.000 A 
ATOM     13  C   UNL     1      19.742   8.858  56.847  0.00  0.00    +0.000 A 
ATOM     14  C   UNL     1      16.507  11.674  59.162  0.00  0.00    +0.000 A 
ATOM     15  C   UNL     1      18.314  10.857  61.199  0.00  0.00    +0.000 A 
ATOM     16  C   UNL     1      19.132   8.961  55.564  0.00  0.00    +0.000 A 
ATOM     17  C   UNL     1      16.998  12.171  62.924  0.00  0.00    +0.000 C 
ATOM     18  C   UNL     1      17.952   9.764  55.431  0.00  0.00    +0.000 A 
ATOM     19  C   UNL     1      15.403  13.849  62.122  0.00  0.00    +0.000 C 
ATOM     20  C   UNL     1      18.978   8.442  53.188  0.00  0.00    +0.000 A 
ATOM     21  C   UNL     1      19.629   8.311  54.413  0.00  0.00    +0.000 A 
ATOM     22  C   UNL     1      17.350   9.883  54.185  0.00  0.00    +0.000 A 
ATOM     23  C   UNL     1      17.852   9.237  53.055  0.00  0.00    +0.000 A 
ENDROOT
BRANCH  10  24
ATOM     24  O   UNL     1      14.853  13.877  59.768  0.00  0.00    +0.000 OA
ATOM     25  H   UNL     1      13.982  14.286  59.944  0.00  0.00    +0.000 HD
ENDBRANCH  10  24
BRANCH  10  26
ATOM     26  C   UNL     1      13.862  12.117  61.109  0.00  0.00    +0.000 C 
ATOM     27  C   UNL     1      12.680  12.434  60.197  0.00  0.00    +0.000 C 
ENDBRANCH  10  26
BRANCH  13  28
ATOM     28  C   UNL     1      20.978   8.032  57.113  0.00  0.00    +0.000 C 
ATOM     29  C   UNL     1      22.254   8.849  56.976  0.00  0.00    +0.000 C 
ENDBRANCH  13  28
BRANCH  20  30
ATOM     30  O   UNL     1      19.519   7.823  52.061  0.00  0.00    +0.000 OA
BRANCH  30  38
ATOM     31  O   UNL     1      18.109   5.987  51.972  0.00  0.00    +0.000 OA
ATOM     32  N   UNL     1      18.440   7.276  50.092  0.00  0.00    +0.000 N 
ATOM     33  C   UNL     1      18.750   7.260  47.182  0.00  0.00    +0.000 C 
ATOM     34  C   UNL     1      19.692   8.049  48.126  0.00  0.00    +0.000 C 
ATOM     35  C   UNL     1      18.154   6.068  47.974  0.00  0.00    +0.000 C 
ATOM     36  C   UNL     1      19.017   8.438  49.438  0.00  0.00    +0.000 C 
ATOM     37  C   UNL     1      17.513   6.503  49.288  0.00  0.00    +0.000 C 
ATOM     38  C   UNL     1      18.643   6.948  51.425  0.00  0.00    +0.000 C 
BRANCH  33  39
ATOM     39  N   UNL     1      19.450   6.807  45.939  0.00  0.00    +0.000 NA
ATOM     40  C   UNL     1      20.263   5.594  46.171  0.00  0.00    +0.000 C 
ATOM     41  C   UNL     1      18.511   6.576  44.821  0.00  0.00    +0.000 C 
ATOM     42  C   UNL     1      21.012   5.132  44.918  0.00  0.00    +0.000 C 
ATOM     43  C   UNL     1      19.215   6.138  43.535  0.00  0.00    +0.000 C 
ATOM     44  C   UNL     1      20.061   4.897  43.757  0.00  0.00    +0.000 C 
ENDBRANCH  33  39
ENDBRANCH  30  38
ENDBRANCH  20  30
TORSDOF 6
ENDMDL
MODEL 9
REMARK VINA RESULT:      -4.4      8.060     12.907
REMARK  Name = 
REMARK  8 active torsions:
REMARK  status: ('A' for Active; 'I' for Inactive)
REMARK    1  A    between atoms: O_1  and  C_21
REMARK    2  A    between atoms: O_1  and  C_38
REMARK    3  A    between atoms: O_4  and  C_26
REMARK    4  A    between atoms: N_7  and  C_11
REMARK    5  A    between atoms: C_26  and  C_33
REMARK    6  A    between atoms: C_29  and  C_37
REMARK    7  A    between atoms: C_33  and  C_42
REMARK    8  A    between atoms: C_37  and  C_43
REMARK                            x       y       z     vdW  Elec       q    Type
REMARK                         _______ _______ _______ _____ _____    ______ ____
ROOT
ATOM      1  O   UNL     1       3.997   7.619  76.839  0.00  0.00    +0.000 OA
ATOM      2  O   UNL     1       1.369   8.747  73.745  0.00  0.00    +0.000 OA
ATOM      3  O   UNL     1       6.184   7.248  77.201  0.00  0.00    +0.000 OA
ATOM      4  N   UNL     1       3.003   9.965  72.689  0.00  0.00    +0.000 N 
ATOM      5  N   UNL     1       5.522  11.918  71.044  0.00  0.00    +0.000 NA
ATOM      6  C   UNL     1       4.277  10.494  72.662  0.00  0.00    +0.000 A 
ATOM      7  C   UNL     1       3.236  11.162  70.718  0.00  0.00    +0.000 A 
ATOM      8  C   UNL     1       2.249  10.333  71.487  0.00  0.00    +0.000 C 
ATOM      9  C   UNL     1       4.715   9.472  74.800  0.00  0.00    +0.000 A 
ATOM     10  C   UNL     1       5.652   9.257  75.961  0.00  0.00    +0.000 C 
ATOM     11  C   UNL     1       4.430  11.250  71.424  0.00  0.00    +0.000 A 
ATOM     12  C   UNL     1       3.472   8.953  74.833  0.00  0.00    +0.000 A 
ATOM     13  C   UNL     1       3.123  11.808  69.495  0.00  0.00    +0.000 A 
ATOM     14  C   UNL     1       5.138  10.282  73.662  0.00  0.00    +0.000 A 
ATOM     15  C   UNL     1       2.509   9.200  73.713  0.00  0.00    +0.000 A 
ATOM     16  C   UNL     1       4.256  12.548  69.049  0.00  0.00    +0.000 A 
ATOM     17  C   UNL     1       2.968   8.131  75.967  0.00  0.00    +0.000 C 
ATOM     18  C   UNL     1       5.430  12.560  69.870  0.00  0.00    +0.000 A 
ATOM     19  C   UNL     1       5.300   7.944  76.698  0.00  0.00    +0.000 C 
ATOM     20  C   UNL     1       5.418  13.987  67.463  0.00  0.00    +0.000 A 
ATOM     21  C   UNL     1       4.282  13.272  67.837  0.00  0.00    +0.000 A 
ATOM     22  C   UNL     1       6.547  13.269  69.445  0.00  0.00    +0.000 A 
ATOM     23  C   UNL     1       6.561  13.980  68.245  0.00  0.00    +0.000 A 
ENDROOT
BRANCH  10  24
ATOM     24  O   UNL     1       6.991   9.147  75.459  0.00  0.00    +0.000 OA
ATOM     25  H   UNL     1       7.370  10.048  75.494  0.00  0.00    +0.000 HD
ENDBRANCH  10  24
BRANCH  10  26
ATOM     26  C   UNL     1       5.581  10.447  76.942  0.00  0.00    +0.000 C 
ATOM     27  C   UNL     1       6.787  11.380  76.894  0.00  0.00    +0.000 C 
ENDBRANCH  10  26
BRANCH  13  28
ATOM     28  C   UNL     1       1.828  11.732  68.723  0.00  0.00    +0.000 C 
ATOM     29  C   UNL     1       1.744  10.479  67.865  0.00  0.00    +0.000 C 
ENDBRANCH  13  28
BRANCH  20  30
ATOM     30  O   UNL     1       5.427  14.657  66.239  0.00  0.00    +0.000 OA
BRANCH  30  38
ATOM     31  O   UNL     1       3.257  14.374  65.480  0.00  0.00    +0.000 OA
ATOM     32  N   UNL     1       5.020  13.522  64.268  0.00  0.00    +0.000 N 
ATOM     33  C   UNL     1       5.958  11.297  62.615  0.00  0.00    +0.000 C 
ATOM     34  C   UNL     1       6.792  11.894  63.776  0.00  0.00    +0.000 C 
ATOM     35  C   UNL     1       4.458  11.557  62.908  0.00  0.00    +0.000 C 
ATOM     36  C   UNL     1       6.448  13.355  64.055  0.00  0.00    +0.000 C 
ATOM     37  C   UNL     1       4.168  13.025  63.205  0.00  0.00    +0.000 C 
ATOM     38  C   UNL     1       4.465  14.203  65.341  0.00  0.00    +0.000 C 
BRANCH  33  39
ATOM     39  N   UNL     1       6.240   9.841  62.411  0.00  0.00    +0.000 NA
ATOM     40  C   UNL     1       5.055   9.001  62.689  0.00  0.00    +0.000 C 
ATOM     41  C   UNL     1       6.751   9.555  61.054  0.00  0.00    +0.000 C 
ATOM     42  C   UNL     1       5.331   7.506  62.515  0.00  0.00    +0.000 C 
ATOM     43  C   UNL     1       7.069   8.073  60.839  0.00  0.00    +0.000 C 
ATOM     44  C   UNL     1       5.864   7.196  61.127  0.00  0.00    +0.000 C 
ENDBRANCH  33  39
ENDBRANCH  30  38
ENDBRANCH  20  30
TORSDOF 6
ENDMDL
