MODEL 1
REMARK VINA RESULT:      -3.8      0.000      0.000
REMARK  Name = 
REMARK  4 active torsions:
REMARK  status: ('A' for Active; 'I' for Inactive)
REMARK    1  A    between atoms: C_1  and  C_6
REMARK    2  A    between atoms: C_1  and  C_7
REMARK    3  A    between atoms: C_9  and  C_14
REMARK    4  A    between atoms: C_11  and  C_15
REMARK                            x       y       z     vdW  Elec       q    Type
REMARK                         _______ _______ _______ _____ _____    ______ ____
ROOT
ATOM      1  C   UNL     1      10.426  -1.503  71.688  0.00  0.00    +0.000 C 
ATOM      2  C   UNL     1      10.858  -0.448  70.675  0.00  0.00    +0.000 C 
ATOM      3  C   UNL     1       9.402  -0.815  70.801  0.00  0.00    +0.000 C 
ATOM      4  C   UNL     1      11.672  -0.827  69.522  0.00  0.00    +0.000 C 
ATOM      5  C   UNL     1       8.668  -1.476  69.677  0.00  0.00    +0.000 C 
ATOM      6  C   UNL     1      10.747  -2.965  71.478  0.00  0.00    +0.000 C 
ATOM      7  C   UNL     1      10.447  -1.104  73.145  0.00  0.00    +0.000 C 
ATOM      8  C   UNL     1      11.336  -1.036  68.235  0.00  0.00    +0.000 C 
ATOM      9  C   UNL     1      13.159  -1.036  69.737  0.00  0.00    +0.000 C 
ATOM     10  C   UNL     1       8.766  -0.628  68.409  0.00  0.00    +0.000 C 
ATOM     11  C   UNL     1       9.996  -0.956  67.540  0.00  0.00    +0.000 C 
ATOM     12  C   UNL     1      12.540  -1.453  67.430  0.00  0.00    +0.000 C 
ATOM     13  C   UNL     1      13.555  -1.840  68.499  0.00  0.00    +0.000 C 
ATOM     14  C   UNL     1      13.919   0.285  69.835  0.00  0.00    +0.000 C 
ATOM     15  C   UNL     1      10.047   0.043  66.375  0.00  0.00    +0.000 C 
ENDROOT
TORSDOF 0
ENDMDL
MODEL 2
REMARK VINA RESULT:      -3.7     16.465     19.206
REMARK  Name = 
REMARK  4 active torsions:
REMARK  status: ('A' for Active; 'I' for Inactive)
REMARK    1  A    between atoms: C_1  and  C_6
REMARK    2  A    between atoms: C_1  and  C_7
REMARK    3  A    between atoms: C_9  and  C_14
REMARK    4  A    between atoms: C_11  and  C_15
REMARK                            x       y       z     vdW  Elec       q    Type
REMARK                         _______ _______ _______ _____ _____    ______ ____
ROOT
ATOM      1  C   UNL     1      18.302   3.233  50.955  0.00  0.00    +0.000 C 
ATOM      2  C   UNL     1      18.868   1.888  51.397  0.00  0.00    +0.000 C 
ATOM      3  C   UNL     1      17.376   2.092  51.341  0.00  0.00    +0.000 C 
ATOM      4  C   UNL     1      19.605   1.779  52.654  0.00  0.00    +0.000 C 
ATOM      5  C   UNL     1      16.541   2.056  52.582  0.00  0.00    +0.000 C 
ATOM      6  C   UNL     1      18.407   4.453  51.840  0.00  0.00    +0.000 C 
ATOM      7  C   UNL     1      18.398   3.568  49.485  0.00  0.00    +0.000 C 
ATOM      8  C   UNL     1      19.226   1.319  53.862  0.00  0.00    +0.000 C 
ATOM      9  C   UNL     1      21.049   2.242  52.677  0.00  0.00    +0.000 C 
ATOM     10  C   UNL     1      16.743   0.732  53.319  0.00  0.00    +0.000 C 
ATOM     11  C   UNL     1      17.903   0.761  54.335  0.00  0.00    +0.000 C 
ATOM     12  C   UNL     1      20.347   1.453  54.860  0.00  0.00    +0.000 C 
ATOM     13  C   UNL     1      21.309   2.415  54.173  0.00  0.00    +0.000 C 
ATOM     14  C   UNL     1      21.992   1.223  52.041  0.00  0.00    +0.000 C 
ATOM     15  C   UNL     1      18.081  -0.652  54.908  0.00  0.00    +0.000 C 
ENDROOT
TORSDOF 0
ENDMDL
MODEL 3
REMARK VINA RESULT:      -3.6     14.810     17.714
REMARK  Name = 
REMARK  4 active torsions:
REMARK  status: ('A' for Active; 'I' for Inactive)
REMARK    1  A    between atoms: C_1  and  C_6
REMARK    2  A    between atoms: C_1  and  C_7
REMARK    3  A    between atoms: C_9  and  C_14
REMARK    4  A    between atoms: C_11  and  C_15
REMARK                            x       y       z     vdW  Elec       q    Type
REMARK                         _______ _______ _______ _____ _____    ______ ____
ROOT
ATOM      1  C   UNL     1      20.059   1.665  53.175  0.00  0.00    +0.000 C 
ATOM      2  C   UNL     1      18.815   1.593  54.056  0.00  0.00    +0.000 C 
ATOM      3  C   UNL     1      20.182   1.428  54.671  0.00  0.00    +0.000 C 
ATOM      4  C   UNL     1      17.875   0.484  53.910  0.00  0.00    +0.000 C 
ATOM      5  C   UNL     1      20.600   0.135  55.296  0.00  0.00    +0.000 C 
ATOM      6  C   UNL     1      20.393   0.557  52.204  0.00  0.00    +0.000 C 
ATOM      7  C   UNL     1      20.458   3.029  52.663  0.00  0.00    +0.000 C 
ATOM      8  C   UNL     1      17.706  -0.633  54.644  0.00  0.00    +0.000 C 
ATOM      9  C   UNL     1      16.891   0.531  52.757  0.00  0.00    +0.000 C 
ATOM     10  C   UNL     1      19.611  -0.270  56.389  0.00  0.00    +0.000 C 
ATOM     11  C   UNL     1      18.437  -1.125  55.872  0.00  0.00    +0.000 C 
ATOM     12  C   UNL     1      16.621  -1.498  54.057  0.00  0.00    +0.000 C 
ATOM     13  C   UNL     1      16.441  -0.927  52.656  0.00  0.00    +0.000 C 
ATOM     14  C   UNL     1      15.725   1.477  53.032  0.00  0.00    +0.000 C 
ATOM     15  C   UNL     1      17.457  -1.355  57.032  0.00  0.00    +0.000 C 
ENDROOT
TORSDOF 0
ENDMDL
MODEL 4
REMARK VINA RESULT:      -3.6     13.220     14.896
REMARK  Name = 
REMARK  4 active torsions:
REMARK  status: ('A' for Active; 'I' for Inactive)
REMARK    1  A    between atoms: C_1  and  C_6
REMARK    2  A    between atoms: C_1  and  C_7
REMARK    3  A    between atoms: C_9  and  C_14
REMARK    4  A    between atoms: C_11  and  C_15
REMARK                            x       y       z     vdW  Elec       q    Type
REMARK                         _______ _______ _______ _____ _____    ______ ____
ROOT
ATOM      1  C   UNL     1       7.138   7.800  59.319  0.00  0.00    +0.000 C 
ATOM      2  C   UNL     1       7.635   8.592  60.525  0.00  0.00    +0.000 C 
ATOM      3  C   UNL     1       6.623   7.491  60.715  0.00  0.00    +0.000 C 
ATOM      4  C   UNL     1       7.299  10.008  60.662  0.00  0.00    +0.000 C 
ATOM      5  C   UNL     1       5.237   7.786  61.195  0.00  0.00    +0.000 C 
ATOM      6  C   UNL     1       6.220   8.428  58.297  0.00  0.00    +0.000 C 
ATOM      7  C   UNL     1       8.099   6.807  58.709  0.00  0.00    +0.000 C 
ATOM      8  C   UNL     1       6.370  10.625  61.417  0.00  0.00    +0.000 C 
ATOM      9  C   UNL     1       8.090  11.011  59.846  0.00  0.00    +0.000 C 
ATOM     10  C   UNL     1       5.285   8.529  62.530  0.00  0.00    +0.000 C 
ATOM     11  C   UNL     1       5.349  10.063  62.381  0.00  0.00    +0.000 C 
ATOM     12  C   UNL     1       6.387  12.112  61.175  0.00  0.00    +0.000 C 
ATOM     13  C   UNL     1       7.188  12.244  59.886  0.00  0.00    +0.000 C 
ATOM     14  C   UNL     1       9.468  11.284  60.446  0.00  0.00    +0.000 C 
ATOM     15  C   UNL     1       5.522  10.679  63.776  0.00  0.00    +0.000 C 
ENDROOT
TORSDOF 0
ENDMDL
MODEL 5
REMARK VINA RESULT:      -3.6      2.862      5.543
REMARK  Name = 
REMARK  4 active torsions:
REMARK  status: ('A' for Active; 'I' for Inactive)
REMARK    1  A    between atoms: C_1  and  C_6
REMARK    2  A    between atoms: C_1  and  C_7
REMARK    3  A    between atoms: C_9  and  C_14
REMARK    4  A    between atoms: C_11  and  C_15
REMARK                            x       y       z     vdW  Elec       q    Type
REMARK                         _______ _______ _______ _____ _____    ______ ____
ROOT
ATOM      1  C   UNL     1       5.146  -1.974  67.822  0.00  0.00    +0.000 C 
ATOM      2  C   UNL     1       6.329  -2.588  68.566  0.00  0.00    +0.000 C 
ATOM      3  C   UNL     1       5.016  -2.385  69.280  0.00  0.00    +0.000 C 
ATOM      4  C   UNL     1       7.515  -1.783  68.850  0.00  0.00    +0.000 C 
ATOM      5  C   UNL     1       4.895  -1.431  70.426  0.00  0.00    +0.000 C 
ATOM      6  C   UNL     1       5.135  -0.511  67.446  0.00  0.00    +0.000 C 
ATOM      7  C   UNL     1       4.453  -2.845  66.802  0.00  0.00    +0.000 C 
ATOM      8  C   UNL     1       7.916  -1.169  69.980  0.00  0.00    +0.000 C 
ATOM      9  C   UNL     1       8.510  -1.560  67.727  0.00  0.00    +0.000 C 
ATOM     10  C   UNL     1       5.902  -1.785  71.520  0.00  0.00    +0.000 C 
ATOM     11  C   UNL     1       7.271  -1.097  71.345  0.00  0.00    +0.000 C 
ATOM     12  C   UNL     1       9.204  -0.421  69.753  0.00  0.00    +0.000 C 
ATOM     13  C   UNL     1       9.303  -0.355  68.234  0.00  0.00    +0.000 C 
ATOM     14  C   UNL     1       9.398  -2.779  67.493  0.00  0.00    +0.000 C 
ATOM     15  C   UNL     1       8.223  -1.631  72.425  0.00  0.00    +0.000 C 
ENDROOT
TORSDOF 0
ENDMDL
MODEL 6
REMARK VINA RESULT:      -3.6     16.779     18.564
REMARK  Name = 
REMARK  4 active torsions:
REMARK  status: ('A' for Active; 'I' for Inactive)
REMARK    1  A    between atoms: C_1  and  C_6
REMARK    2  A    between atoms: C_1  and  C_7
REMARK    3  A    between atoms: C_9  and  C_14
REMARK    4  A    between atoms: C_11  and  C_15
REMARK                            x       y       z     vdW  Elec       q    Type
REMARK                         _______ _______ _______ _____ _____    ______ ____
ROOT
ATOM      1  C   UNL     1      21.089   0.528  54.915  0.00  0.00    +0.000 C 
ATOM      2  C   UNL     1      20.215   1.738  54.599  0.00  0.00    +0.000 C 
ATOM      3  C   UNL     1      19.616   0.537  55.285  0.00  0.00    +0.000 C 
ATOM      4  C   UNL     1      19.917   2.086  53.211  0.00  0.00    +0.000 C 
ATOM      5  C   UNL     1      18.565  -0.293  54.618  0.00  0.00    +0.000 C 
ATOM      6  C   UNL     1      21.587  -0.383  53.817  0.00  0.00    +0.000 C 
ATOM      7  C   UNL     1      22.080   0.675  56.045  0.00  0.00    +0.000 C 
ATOM      8  C   UNL     1      18.816   1.872  52.464  0.00  0.00    +0.000 C 
ATOM      9  C   UNL     1      20.981   2.817  52.415  0.00  0.00    +0.000 C 
ATOM     10  C   UNL     1      17.377   0.579  54.214  0.00  0.00    +0.000 C 
ATOM     11  C   UNL     1      17.511   1.190  52.805  0.00  0.00    +0.000 C 
ATOM     12  C   UNL     1      19.014   2.389  51.063  0.00  0.00    +0.000 C 
ATOM     13  C   UNL     1      20.522   2.586  50.975  0.00  0.00    +0.000 C 
ATOM     14  C   UNL     1      21.049   4.301  52.769  0.00  0.00    +0.000 C 
ATOM     15  C   UNL     1      16.326   2.139  52.572  0.00  0.00    +0.000 C 
ENDROOT
TORSDOF 0
ENDMDL
MODEL 7
REMARK VINA RESULT:      -3.6      5.960      8.590
REMARK  Name = 
REMARK  4 active torsions:
REMARK  status: ('A' for Active; 'I' for Inactive)
REMARK    1  A    between atoms: C_1  and  C_6
REMARK    2  A    between atoms: C_1  and  C_7
REMARK    3  A    between atoms: C_9  and  C_14
REMARK    4  A    between atoms: C_11  and  C_15
REMARK                            x       y       z     vdW  Elec       q    Type
REMARK                         _______ _______ _______ _____ _____    ______ ____
ROOT
ATOM      1  C   UNL     1      11.888   2.196  75.942  0.00  0.00    +0.000 C 
ATOM      2  C   UNL     1      10.465   2.132  75.394  0.00  0.00    +0.000 C 
ATOM      3  C   UNL     1      11.021   3.443  75.889  0.00  0.00    +0.000 C 
ATOM      4  C   UNL     1       9.434   1.388  76.115  0.00  0.00    +0.000 C 
ATOM      5  C   UNL     1      10.441   4.129  77.085  0.00  0.00    +0.000 C 
ATOM      6  C   UNL     1      12.240   1.577  77.275  0.00  0.00    +0.000 C 
ATOM      7  C   UNL     1      13.013   2.102  74.939  0.00  0.00    +0.000 C 
ATOM      8  C   UNL     1       8.444   1.811  76.924  0.00  0.00    +0.000 C 
ATOM      9  C   UNL     1       9.413  -0.121  75.973  0.00  0.00    +0.000 C 
ATOM     10  C   UNL     1       8.945   4.371  76.886  0.00  0.00    +0.000 C 
ATOM     11  C   UNL     1       8.062   3.204  77.371  0.00  0.00    +0.000 C 
ATOM     12  C   UNL     1       7.660   0.642  77.464  0.00  0.00    +0.000 C 
ATOM     13  C   UNL     1       8.566  -0.547  77.172  0.00  0.00    +0.000 C 
ATOM     14  C   UNL     1       8.803  -0.568  74.647  0.00  0.00    +0.000 C 
ATOM     15  C   UNL     1       6.604   3.513  77.000  0.00  0.00    +0.000 C 
ENDROOT
TORSDOF 0
ENDMDL
MODEL 8
REMARK VINA RESULT:      -3.5      6.288      8.820
REMARK  Name = 
REMARK  4 active torsions:
REMARK  status: ('A' for Active; 'I' for Inactive)
REMARK    1  A    between atoms: C_1  and  C_6
REMARK    2  A    between atoms: C_1  and  C_7
REMARK    3  A    between atoms: C_9  and  C_14
REMARK    4  A    between atoms: C_11  and  C_15
REMARK                            x       y       z     vdW  Elec       q    Type
REMARK                         _______ _______ _______ _____ _____    ______ ____
ROOT
ATOM      1  C   UNL     1       7.306   3.128  77.996  0.00  0.00    +0.000 C 
ATOM      2  C   UNL     1       8.574   2.282  78.060  0.00  0.00    +0.000 C 
ATOM      3  C   UNL     1       8.676   3.785  77.992  0.00  0.00    +0.000 C 
ATOM      4  C   UNL     1       8.935   1.414  76.941  0.00  0.00    +0.000 C 
ATOM      5  C   UNL     1       9.290   4.468  76.811  0.00  0.00    +0.000 C 
ATOM      6  C   UNL     1       6.450   3.158  76.751  0.00  0.00    +0.000 C 
ATOM      7  C   UNL     1       6.495   3.244  79.264  0.00  0.00    +0.000 C 
ATOM      8  C   UNL     1       9.834   1.577  75.951  0.00  0.00    +0.000 C 
ATOM      9  C   UNL     1       8.217   0.085  76.810  0.00  0.00    +0.000 C 
ATOM     10  C   UNL     1      10.710   3.953  76.578  0.00  0.00    +0.000 C 
ATOM     11  C   UNL     1      10.777   2.721  75.654  0.00  0.00    +0.000 C 
ATOM     12  C   UNL     1       9.806   0.404  75.006  0.00  0.00    +0.000 C 
ATOM     13  C   UNL     1       8.495  -0.290  75.355  0.00  0.00    +0.000 C 
ATOM     14  C   UNL     1       8.752  -0.959  77.787  0.00  0.00    +0.000 C 
ATOM     15  C   UNL     1      12.230   2.229  75.605  0.00  0.00    +0.000 C 
ENDROOT
TORSDOF 0
ENDMDL
MODEL 9
REMARK VINA RESULT:      -3.4     10.833     12.804
REMARK  Name = 
REMARK  4 active torsions:
REMARK  status: ('A' for Active; 'I' for Inactive)
REMARK    1  A    between atoms: C_1  and  C_6
REMARK    2  A    between atoms: C_1  and  C_7
REMARK    3  A    between atoms: C_9  and  C_14
REMARK    4  A    between atoms: C_11  and  C_15
REMARK                            x       y       z     vdW  Elec       q    Type
REMARK                         _______ _______ _______ _____ _____    ______ ____
ROOT
ATOM      1  C   UNL     1       4.965   4.569  59.772  0.00  0.00    +0.000 C 
ATOM      2  C   UNL     1       5.718   3.909  58.620  0.00  0.00    +0.000 C 
ATOM      3  C   UNL     1       5.294   3.086  59.811  0.00  0.00    +0.000 C 
ATOM      4  C   UNL     1       7.112   4.259  58.357  0.00  0.00    +0.000 C 
ATOM      5  C   UNL     1       6.305   2.462  60.721  0.00  0.00    +0.000 C 
ATOM      6  C   UNL     1       5.662   5.522  60.715  0.00  0.00    +0.000 C 
ATOM      7  C   UNL     1       3.524   4.943  59.523  0.00  0.00    +0.000 C 
ATOM      8  C   UNL     1       8.256   3.616  58.659  0.00  0.00    +0.000 C 
ATOM      9  C   UNL     1       7.394   5.555  57.621  0.00  0.00    +0.000 C 
ATOM     10  C   UNL     1       7.255   1.567  59.925  0.00  0.00    +0.000 C 
ATOM     11  C   UNL     1       8.492   2.309  59.381  0.00  0.00    +0.000 C 
ATOM     12  C   UNL     1       9.452   4.413  58.206  0.00  0.00    +0.000 C 
ATOM     13  C   UNL     1       8.868   5.796  57.946  0.00  0.00    +0.000 C 
ATOM     14  C   UNL     1       7.146   5.431  56.120  0.00  0.00    +0.000 C 
ATOM     15  C   UNL     1       9.292   1.338  58.501  0.00  0.00    +0.000 C 
ENDROOT
TORSDOF 0
ENDMDL
