MODEL 1
REMARK VINA RESULT:      -5.1      0.000      0.000
REMARK  Name = JAK3_Inhibitor.pdbqt.pdb
REMARK  1 active torsions:
REMARK  status: ('A' for Active; 'I' for Inactive)
REMARK    1  A    between atoms: C_7  and  C_20
REMARK                            x       y       z     vdW  Elec       q    Type
REMARK                         _______ _______ _______ _____ _____    ______ ____
ROOT
ATOM      1  O   UNL     1      21.051   8.199  56.919  0.00  0.00    +0.000 OA
ATOM      2  N   UNL     1      20.078   8.772  54.866  0.00  0.00    +0.000 N 
ATOM      3  C   UNL     1      18.124   9.739  55.582  0.00  0.00    +0.000 A 
ATOM      4  C   UNL     1      18.892   9.391  54.468  0.00  0.00    +0.000 A 
ATOM      5  C   UNL     1      18.889   9.305  56.739  0.00  0.00    +0.000 C 
ATOM      6  C   UNL     1      16.902  10.365  55.436  0.00  0.00    +0.000 A 
ATOM      7  C   UNL     1      16.436  10.652  54.141  0.00  0.00    +0.000 A 
ATOM      8  C   UNL     1      20.156   8.679  56.251  0.00  0.00    +0.000 C 
ATOM      9  C   UNL     1      18.478   9.651  53.181  0.00  0.00    +0.000 A 
ATOM     10  C   UNL     1      18.570   9.418  57.989  0.00  0.00    +0.000 C 
ATOM     11  C   UNL     1      17.242  10.285  53.038  0.00  0.00    +0.000 A 
ATOM     12  H   UNL     1      20.801   8.429  54.250  0.00  0.00    +0.000 HD
ATOM     13  N   UNL     1      19.089   9.060  60.367  0.00  0.00    +0.000 N 
ATOM     14  C   UNL     1      18.268   9.518  59.371  0.00  0.00    +0.000 C 
ATOM     15  C   UNL     1      17.152  10.065  59.960  0.00  0.00    +0.000 C 
ATOM     16  C   UNL     1      18.511   9.307  61.584  0.00  0.00    +0.000 C 
ATOM     17  C   UNL     1      17.305   9.931  61.360  0.00  0.00    +0.000 C 
ATOM     18  H   UNL     1      19.984   8.609  60.225  0.00  0.00    +0.000 HD
ENDROOT
BRANCH   7  20
ATOM     19  N   UNL     1      13.771  12.882  52.668  0.00  0.00    +0.000 NA
ATOM     20  C   UNL     1      15.143  11.317  53.938  0.00  0.00    +0.000 A 
ATOM     21  C   UNL     1      14.043  11.071  54.762  0.00  0.00    +0.000 A 
ATOM     22  C   UNL     1      14.932  12.234  52.913  0.00  0.00    +0.000 A 
ATOM     23  C   UNL     1      12.826  11.711  54.554  0.00  0.00    +0.000 A 
ATOM     24  C   UNL     1      12.745  12.601  53.498  0.00  0.00    +0.000 A 
ENDBRANCH   7  20
TORSDOF 1
ENDMDL
MODEL 2
REMARK VINA RESULT:      -4.8      9.634     10.999
REMARK  Name = JAK3_Inhibitor.pdbqt.pdb
REMARK  1 active torsions:
REMARK  status: ('A' for Active; 'I' for Inactive)
REMARK    1  A    between atoms: C_7  and  C_20
REMARK                            x       y       z     vdW  Elec       q    Type
REMARK                         _______ _______ _______ _____ _____    ______ ____
ROOT
ATOM      1  O   UNL     1      17.833  -2.458  57.745  0.00  0.00    +0.000 OA
ATOM      2  N   UNL     1      19.350  -0.927  56.830  0.00  0.00    +0.000 N 
ATOM      3  C   UNL     1      18.079  -0.029  55.144  0.00  0.00    +0.000 A 
ATOM      4  C   UNL     1      19.322  -0.007  55.781  0.00  0.00    +0.000 A 
ATOM      5  C   UNL     1      17.293  -1.028  55.849  0.00  0.00    +0.000 C 
ATOM      6  C   UNL     1      17.814   0.798  54.071  0.00  0.00    +0.000 A 
ATOM      7  C   UNL     1      18.818   1.672  53.622  0.00  0.00    +0.000 A 
ATOM      8  C   UNL     1      18.139  -1.599  56.942  0.00  0.00    +0.000 C 
ATOM      9  C   UNL     1      20.337   0.832  55.378  0.00  0.00    +0.000 A 
ATOM     10  C   UNL     1      16.074  -1.394  55.610  0.00  0.00    +0.000 C 
ATOM     11  C   UNL     1      20.065   1.668  54.293  0.00  0.00    +0.000 A 
ATOM     12  H   UNL     1      20.135  -1.099  57.443  0.00  0.00    +0.000 HD
ATOM     13  N   UNL     1      14.120  -2.792  56.138  0.00  0.00    +0.000 N 
ATOM     14  C   UNL     1      14.743  -1.828  55.389  0.00  0.00    +0.000 C 
ATOM     15  C   UNL     1      13.854  -1.396  54.432  0.00  0.00    +0.000 C 
ATOM     16  C   UNL     1      12.846  -2.979  55.671  0.00  0.00    +0.000 C 
ATOM     17  C   UNL     1      12.655  -2.124  54.610  0.00  0.00    +0.000 C 
ATOM     18  H   UNL     1      14.537  -3.287  56.916  0.00  0.00    +0.000 HD
ENDROOT
BRANCH   7  20
ATOM     19  N   UNL     1      17.036   3.523  50.859  0.00  0.00    +0.000 NA
ATOM     20  C   UNL     1      18.581   2.570  52.486  0.00  0.00    +0.000 A 
ATOM     21  C   UNL     1      19.602   3.334  51.916  0.00  0.00    +0.000 A 
ATOM     22  C   UNL     1      17.326   2.717  51.905  0.00  0.00    +0.000 A 
ATOM     23  C   UNL     1      19.358   4.179  50.840  0.00  0.00    +0.000 A 
ATOM     24  C   UNL     1      18.064   4.236  50.353  0.00  0.00    +0.000 A 
ENDBRANCH   7  20
TORSDOF 1
ENDMDL
MODEL 3
REMARK VINA RESULT:      -4.8      9.142     10.218
REMARK  Name = JAK3_Inhibitor.pdbqt.pdb
REMARK  1 active torsions:
REMARK  status: ('A' for Active; 'I' for Inactive)
REMARK    1  A    between atoms: C_7  and  C_20
REMARK                            x       y       z     vdW  Elec       q    Type
REMARK                         _______ _______ _______ _____ _____    ______ ____
ROOT
ATOM      1  O   UNL     1      20.333  -0.829  57.369  0.00  0.00    +0.000 OA
ATOM      2  N   UNL     1      20.772   0.765  55.711  0.00  0.00    +0.000 N 
ATOM      3  C   UNL     1      18.770   0.770  54.590  0.00  0.00    +0.000 A 
ATOM      4  C   UNL     1      20.053   1.319  54.651  0.00  0.00    +0.000 A 
ATOM      5  C   UNL     1      18.697  -0.182  55.685  0.00  0.00    +0.000 C 
ATOM      6  C   UNL     1      17.873   1.164  53.617  0.00  0.00    +0.000 A 
ATOM      7  C   UNL     1      18.268   2.135  52.681  0.00  0.00    +0.000 A 
ATOM      8  C   UNL     1      20.009  -0.169  56.401  0.00  0.00    +0.000 C 
ATOM      9  C   UNL     1      20.487   2.272  53.756  0.00  0.00    +0.000 A 
ATOM     10  C   UNL     1      17.696  -0.932  56.020  0.00  0.00    +0.000 C 
ATOM     11  C   UNL     1      19.576   2.668  52.774  0.00  0.00    +0.000 A 
ATOM     12  H   UNL     1      21.722   0.997  55.965  0.00  0.00    +0.000 HD
ATOM     13  N   UNL     1      16.698  -2.634  57.491  0.00  0.00    +0.000 N 
ATOM     14  C   UNL     1      16.629  -1.772  56.427  0.00  0.00    +0.000 C 
ATOM     15  C   UNL     1      15.376  -1.888  55.870  0.00  0.00    +0.000 C 
ATOM     16  C   UNL     1      15.506  -3.297  57.617  0.00  0.00    +0.000 C 
ATOM     17  C   UNL     1      14.667  -2.853  56.622  0.00  0.00    +0.000 C 
ATOM     18  H   UNL     1      17.504  -2.759  58.088  0.00  0.00    +0.000 HD
ENDROOT
BRANCH   7  20
ATOM     19  N   UNL     1      15.185   2.396  50.521  0.00  0.00    +0.000 NA
ATOM     20  C   UNL     1      17.348   2.584  51.630  0.00  0.00    +0.000 A 
ATOM     21  C   UNL     1      17.685   3.597  50.730  0.00  0.00    +0.000 A 
ATOM     22  C   UNL     1      16.082   2.031  51.465  0.00  0.00    +0.000 A 
ATOM     23  C   UNL     1      16.799   4.010  49.741  0.00  0.00    +0.000 A 
ATOM     24  C   UNL     1      15.569   3.380  49.682  0.00  0.00    +0.000 A 
ENDBRANCH   7  20
TORSDOF 1
ENDMDL
MODEL 4
REMARK VINA RESULT:      -4.7      8.657     11.386
REMARK  Name = JAK3_Inhibitor.pdbqt.pdb
REMARK  1 active torsions:
REMARK  status: ('A' for Active; 'I' for Inactive)
REMARK    1  A    between atoms: C_7  and  C_20
REMARK                            x       y       z     vdW  Elec       q    Type
REMARK                         _______ _______ _______ _____ _____    ______ ____
ROOT
ATOM      1  O   UNL     1      20.592   4.356  51.581  0.00  0.00    +0.000 OA
ATOM      2  N   UNL     1      21.062   2.993  53.427  0.00  0.00    +0.000 N 
ATOM      3  C   UNL     1      19.114   1.789  53.569  0.00  0.00    +0.000 A 
ATOM      4  C   UNL     1      20.377   1.998  54.127  0.00  0.00    +0.000 A 
ATOM      5  C   UNL     1      19.017   2.716  52.454  0.00  0.00    +0.000 C 
ATOM      6  C   UNL     1      18.251   0.849  54.095  0.00  0.00    +0.000 A 
ATOM      7  C   UNL     1      18.661   0.097  55.209  0.00  0.00    +0.000 A 
ATOM      8  C   UNL     1      20.294   3.489  52.380  0.00  0.00    +0.000 C 
ATOM      9  C   UNL     1      20.825   1.287  55.218  0.00  0.00    +0.000 A 
ATOM     10  C   UNL     1      18.022   2.880  51.642  0.00  0.00    +0.000 C 
ATOM     11  C   UNL     1      19.948   0.336  55.746  0.00  0.00    +0.000 A 
ATOM     12  H   UNL     1      21.993   3.326  53.634  0.00  0.00    +0.000 HD
ATOM     13  N   UNL     1      17.004   4.017  49.711  0.00  0.00    +0.000 N 
ATOM     14  C   UNL     1      16.961   3.098  50.727  0.00  0.00    +0.000 C 
ATOM     15  C   UNL     1      15.740   2.466  50.674  0.00  0.00    +0.000 C 
ATOM     16  C   UNL     1      15.827   3.980  49.013  0.00  0.00    +0.000 C 
ATOM     17  C   UNL     1      15.023   3.024  49.590  0.00  0.00    +0.000 C 
ATOM     18  H   UNL     1      17.785   4.628  49.511  0.00  0.00    +0.000 HD
ENDROOT
BRANCH   7  20
ATOM     19  N   UNL     1      15.845  -2.385  55.592  0.00  0.00    +0.000 NA
ATOM     20  C   UNL     1      17.777  -0.914  55.802  0.00  0.00    +0.000 A 
ATOM     21  C   UNL     1      17.963  -1.396  57.099  0.00  0.00    +0.000 A 
ATOM     22  C   UNL     1      16.698  -1.454  55.109  0.00  0.00    +0.000 A 
ATOM     23  C   UNL     1      17.115  -2.354  57.642  0.00  0.00    +0.000 A 
ATOM     24  C   UNL     1      16.077  -2.812  56.850  0.00  0.00    +0.000 A 
ENDBRANCH   7  20
TORSDOF 1
ENDMDL
MODEL 5
REMARK VINA RESULT:      -4.6      9.043     11.630
REMARK  Name = JAK3_Inhibitor.pdbqt.pdb
REMARK  1 active torsions:
REMARK  status: ('A' for Active; 'I' for Inactive)
REMARK    1  A    between atoms: C_7  and  C_20
REMARK                            x       y       z     vdW  Elec       q    Type
REMARK                         _______ _______ _______ _____ _____    ______ ____
ROOT
ATOM      1  O   UNL     1      16.014   3.034  49.869  0.00  0.00    +0.000 OA
ATOM      2  N   UNL     1      18.085   3.381  50.906  0.00  0.00    +0.000 N 
ATOM      3  C   UNL     1      17.947   1.880  52.635  0.00  0.00    +0.000 A 
ATOM      4  C   UNL     1      18.741   2.848  52.017  0.00  0.00    +0.000 A 
ATOM      5  C   UNL     1      16.724   1.814  51.853  0.00  0.00    +0.000 C 
ATOM      6  C   UNL     1      18.387   1.212  53.761  0.00  0.00    +0.000 A 
ATOM      7  C   UNL     1      19.656   1.519  54.281  0.00  0.00    +0.000 A 
ATOM      8  C   UNL     1      16.835   2.799  50.734  0.00  0.00    +0.000 C 
ATOM      9  C   UNL     1      19.990   3.184  52.488  0.00  0.00    +0.000 A 
ATOM     10  C   UNL     1      15.693   1.056  52.053  0.00  0.00    +0.000 C 
ATOM     11  C   UNL     1      20.432   2.505  53.626  0.00  0.00    +0.000 A 
ATOM     12  H   UNL     1      18.449   4.096  50.292  0.00  0.00    +0.000 HD
ATOM     13  N   UNL     1      13.446   0.290  51.405  0.00  0.00    +0.000 N 
ATOM     14  C   UNL     1      14.542   0.247  52.227  0.00  0.00    +0.000 C 
ATOM     15  C   UNL     1      14.304  -0.695  53.201  0.00  0.00    +0.000 C 
ATOM     16  C   UNL     1      12.513  -0.611  51.844  0.00  0.00    +0.000 C 
ATOM     17  C   UNL     1      13.020  -1.237  52.959  0.00  0.00    +0.000 C 
ATOM     18  H   UNL     1      13.345   0.894  50.600  0.00  0.00    +0.000 HD
ENDROOT
BRANCH   7  20
ATOM     19  N   UNL     1      21.947   0.524  57.110  0.00  0.00    +0.000 NA
ATOM     20  C   UNL     1      20.165   0.834  55.474  0.00  0.00    +0.000 A 
ATOM     21  C   UNL     1      19.426  -0.145  56.142  0.00  0.00    +0.000 A 
ATOM     22  C   UNL     1      21.416   1.115  56.016  0.00  0.00    +0.000 A 
ATOM     23  C   UNL     1      19.926  -0.783  57.272  0.00  0.00    +0.000 A 
ATOM     24  C   UNL     1      21.184  -0.413  57.711  0.00  0.00    +0.000 A 
ENDBRANCH   7  20
TORSDOF 1
ENDMDL
MODEL 6
REMARK VINA RESULT:      -4.6     20.793     24.280
REMARK  Name = JAK3_Inhibitor.pdbqt.pdb
REMARK  1 active torsions:
REMARK  status: ('A' for Active; 'I' for Inactive)
REMARK    1  A    between atoms: C_7  and  C_20
REMARK                            x       y       z     vdW  Elec       q    Type
REMARK                         _______ _______ _______ _____ _____    ______ ____
ROOT
ATOM      1  O   UNL     1       5.549   3.168  78.613  0.00  0.00    +0.000 OA
ATOM      2  N   UNL     1       7.527   4.199  77.897  0.00  0.00    +0.000 N 
ATOM      3  C   UNL     1       8.533   2.459  76.790  0.00  0.00    +0.000 A 
ATOM      4  C   UNL     1       8.648   3.799  77.169  0.00  0.00    +0.000 A 
ATOM      5  C   UNL     1       7.258   2.008  77.322  0.00  0.00    +0.000 C 
ATOM      6  C   UNL     1       9.526   1.839  76.059  0.00  0.00    +0.000 A 
ATOM      7  C   UNL     1      10.665   2.577  75.694  0.00  0.00    +0.000 A 
ATOM      8  C   UNL     1       6.620   3.155  78.038  0.00  0.00    +0.000 C 
ATOM      9  C   UNL     1       9.744   4.564  76.836  0.00  0.00    +0.000 A 
ATOM     10  C   UNL     1       6.726   0.831  77.220  0.00  0.00    +0.000 C 
ATOM     11  C   UNL     1      10.745   3.932  76.095  0.00  0.00    +0.000 A 
ATOM     12  H   UNL     1       7.371   5.120  78.282  0.00  0.00    +0.000 HD
ATOM     13  N   UNL     1       4.884  -0.729  77.692  0.00  0.00    +0.000 N 
ATOM     14  C   UNL     1       6.102  -0.439  77.136  0.00  0.00    +0.000 C 
ATOM     15  C   UNL     1       6.565  -1.575  76.515  0.00  0.00    +0.000 C 
ATOM     16  C   UNL     1       4.565  -2.036  77.433  0.00  0.00    +0.000 C 
ATOM     17  C   UNL     1       5.594  -2.586  76.703  0.00  0.00    +0.000 C 
ATOM     18  H   UNL     1       4.310  -0.079  78.212  0.00  0.00    +0.000 HD
ENDROOT
BRANCH   7  20
ATOM     19  N   UNL     1      14.037   2.035  74.091  0.00  0.00    +0.000 NA
ATOM     20  C   UNL     1      11.744   1.959  74.917  0.00  0.00    +0.000 A 
ATOM     21  C   UNL     1      11.580   0.740  74.255  0.00  0.00    +0.000 A 
ATOM     22  C   UNL     1      12.999   2.547  74.790  0.00  0.00    +0.000 A 
ATOM     23  C   UNL     1      12.616   0.170  73.523  0.00  0.00    +0.000 A 
ATOM     24  C   UNL     1      13.817   0.855  73.474  0.00  0.00    +0.000 A 
ENDBRANCH   7  20
TORSDOF 1
ENDMDL
MODEL 7
REMARK VINA RESULT:      -4.5     10.148     11.946
REMARK  Name = JAK3_Inhibitor.pdbqt.pdb
REMARK  1 active torsions:
REMARK  status: ('A' for Active; 'I' for Inactive)
REMARK    1  A    between atoms: C_7  and  C_20
REMARK                            x       y       z     vdW  Elec       q    Type
REMARK                         _______ _______ _______ _____ _____    ______ ____
ROOT
ATOM      1  O   UNL     1      16.150  -3.380  58.384  0.00  0.00    +0.000 OA
ATOM      2  N   UNL     1      18.256  -2.387  58.130  0.00  0.00    +0.000 N 
ATOM      3  C   UNL     1      17.852  -0.991  56.354  0.00  0.00    +0.000 A 
ATOM      4  C   UNL     1      18.808  -1.437  57.269  0.00  0.00    +0.000 A 
ATOM      5  C   UNL     1      16.633  -1.716  56.673  0.00  0.00    +0.000 C 
ATOM      6  C   UNL     1      18.168  -0.046  55.398  0.00  0.00    +0.000 A 
ATOM      7  C   UNL     1      19.475   0.469  55.357  0.00  0.00    +0.000 A 
ATOM      8  C   UNL     1      16.919  -2.617  57.831  0.00  0.00    +0.000 C 
ATOM      9  C   UNL     1      20.101  -0.962  57.269  0.00  0.00    +0.000 A 
ATOM     10  C   UNL     1      15.482  -1.630  56.087  0.00  0.00    +0.000 C 
ATOM     11  C   UNL     1      20.416  -0.005  56.301  0.00  0.00    +0.000 A 
ATOM     12  H   UNL     1      18.743  -2.858  58.879  0.00  0.00    +0.000 HD
ATOM     13  N   UNL     1      13.129  -2.323  55.887  0.00  0.00    +0.000 N 
ATOM     14  C   UNL     1      14.202  -1.573  55.480  0.00  0.00    +0.000 C 
ATOM     15  C   UNL     1      13.797  -0.797  54.419  0.00  0.00    +0.000 C 
ATOM     16  C   UNL     1      12.047  -2.034  55.098  0.00  0.00    +0.000 C 
ATOM     17  C   UNL     1      12.435  -1.089  54.177  0.00  0.00    +0.000 C 
ATOM     18  H   UNL     1      13.138  -2.985  56.651  0.00  0.00    +0.000 HD
ENDROOT
BRANCH   7  20
ATOM     19  N   UNL     1      21.504   3.054  53.502  0.00  0.00    +0.000 NA
ATOM     20  C   UNL     1      19.855   1.475  54.359  0.00  0.00    +0.000 A 
ATOM     21  C   UNL     1      19.003   1.850  53.318  0.00  0.00    +0.000 A 
ATOM     22  C   UNL     1      21.088   2.120  54.387  0.00  0.00    +0.000 A 
ATOM     23  C   UNL     1      19.382   2.805  52.382  0.00  0.00    +0.000 A 
ATOM     24  C   UNL     1      20.636   3.373  52.519  0.00  0.00    +0.000 A 
ENDBRANCH   7  20
TORSDOF 1
ENDMDL
MODEL 8
REMARK VINA RESULT:      -4.5      8.598     11.199
REMARK  Name = JAK3_Inhibitor.pdbqt.pdb
REMARK  1 active torsions:
REMARK  status: ('A' for Active; 'I' for Inactive)
REMARK    1  A    between atoms: C_7  and  C_20
REMARK                            x       y       z     vdW  Elec       q    Type
REMARK                         _______ _______ _______ _____ _____    ______ ____
ROOT
ATOM      1  O   UNL     1      15.075   3.512  49.392  0.00  0.00    +0.000 OA
ATOM      2  N   UNL     1      15.048   1.884  51.076  0.00  0.00    +0.000 N 
ATOM      3  C   UNL     1      17.108   2.226  52.026  0.00  0.00    +0.000 A 
ATOM      4  C   UNL     1      15.934   1.470  52.071  0.00  0.00    +0.000 A 
ATOM      5  C   UNL     1      16.930   3.166  50.931  0.00  0.00    +0.000 C 
ATOM      6  C   UNL     1      18.137   1.996  52.917  0.00  0.00    +0.000 A 
ATOM      7  C   UNL     1      17.989   0.984  53.881  0.00  0.00    +0.000 A 
ATOM      8  C   UNL     1      15.584   2.926  50.327  0.00  0.00    +0.000 C 
ATOM      9  C   UNL     1      15.742   0.469  52.996  0.00  0.00    +0.000 A 
ATOM     10  C   UNL     1      17.762   4.067  50.515  0.00  0.00    +0.000 C 
ATOM     11  C   UNL     1      16.785   0.240  53.896  0.00  0.00    +0.000 A 
ATOM     12  H   UNL     1      14.132   1.496  50.902  0.00  0.00    +0.000 HD
ATOM     13  N   UNL     1      18.337   5.892  48.968  0.00  0.00    +0.000 N 
ATOM     14  C   UNL     1      18.636   5.068  50.022  0.00  0.00    +0.000 C 
ATOM     15  C   UNL     1      19.892   5.400  50.475  0.00  0.00    +0.000 C 
ATOM     16  C   UNL     1      19.386   6.743  48.744  0.00  0.00    +0.000 C 
ATOM     17  C   UNL     1      20.367   6.459  49.667  0.00  0.00    +0.000 C 
ATOM     18  H   UNL     1      17.475   5.873  48.440  0.00  0.00    +0.000 HD
ENDROOT
BRANCH   7  20
ATOM     19  N   UNL     1      19.854  -0.552  56.778  0.00  0.00    +0.000 NA
ATOM     20  C   UNL     1      19.056   0.705  54.849  0.00  0.00    +0.000 A 
ATOM     21  C   UNL     1      20.280   1.376  54.820  0.00  0.00    +0.000 A 
ATOM     22  C   UNL     1      18.916  -0.245  55.856  0.00  0.00    +0.000 A 
ATOM     23  C   UNL     1      21.279   1.098  55.745  0.00  0.00    +0.000 A 
ATOM     24  C   UNL     1      21.016   0.130  56.698  0.00  0.00    +0.000 A 
ENDBRANCH   7  20
TORSDOF 1
ENDMDL
MODEL 9
REMARK VINA RESULT:      -4.3      7.892     10.239
REMARK  Name = JAK3_Inhibitor.pdbqt.pdb
REMARK  1 active torsions:
REMARK  status: ('A' for Active; 'I' for Inactive)
REMARK    1  A    between atoms: C_7  and  C_20
REMARK                            x       y       z     vdW  Elec       q    Type
REMARK                         _______ _______ _______ _____ _____    ______ ____
ROOT
ATOM      1  O   UNL     1      20.621   6.314  50.293  0.00  0.00    +0.000 OA
ATOM      2  N   UNL     1      20.825   4.521  51.786  0.00  0.00    +0.000 N 
ATOM      3  C   UNL     1      18.677   3.714  51.771  0.00  0.00    +0.000 A 
ATOM      4  C   UNL     1      19.961   3.551  52.296  0.00  0.00    +0.000 A 
ATOM      5  C   UNL     1      18.758   4.861  50.882  0.00  0.00    +0.000 C 
ATOM      6  C   UNL     1      17.648   2.868  52.133  0.00  0.00    +0.000 A 
ATOM      7  C   UNL     1      17.909   1.828  53.042  0.00  0.00    +0.000 A 
ATOM      8  C   UNL     1      20.163   5.370  50.906  0.00  0.00    +0.000 C 
ATOM      9  C   UNL     1      20.267   2.548  53.189  0.00  0.00    +0.000 A 
ATOM     10  C   UNL     1      17.808   5.385  50.174  0.00  0.00    +0.000 C 
ATOM     11  C   UNL     1      19.223   1.693  53.551  0.00  0.00    +0.000 A 
ATOM     12  H   UNL     1      21.805   4.616  52.010  0.00  0.00    +0.000 HD
ATOM     13  N   UNL     1      17.022   7.086  48.579  0.00  0.00    +0.000 N 
ATOM     14  C   UNL     1      16.805   5.995  49.380  0.00  0.00    +0.000 C 
ATOM     15  C   UNL     1      15.482   5.637  49.258  0.00  0.00    +0.000 C 
ATOM     16  C   UNL     1      15.854   7.428  47.949  0.00  0.00    +0.000 C 
ATOM     17  C   UNL     1      14.881   6.544  48.354  0.00  0.00    +0.000 C 
ATOM     18  H   UNL     1      17.907   7.563  48.472  0.00  0.00    +0.000 HD
ENDROOT
BRANCH   7  20
ATOM     19  N   UNL     1      16.181  -1.145  54.594  0.00  0.00    +0.000 NA
ATOM     20  C   UNL     1      16.846   0.904  53.454  0.00  0.00    +0.000 A 
ATOM     21  C   UNL     1      15.504   1.128  53.140  0.00  0.00    +0.000 A 
ATOM     22  C   UNL     1      17.108  -0.252  54.183  0.00  0.00    +0.000 A 
ATOM     23  C   UNL     1      14.511   0.240  53.539  0.00  0.00    +0.000 A 
ATOM     24  C   UNL     1      14.902  -0.873  54.260  0.00  0.00    +0.000 A 
ENDBRANCH   7  20
TORSDOF 1
ENDMDL
