MODEL 1
REMARK VINA RESULT:      -3.3      0.000      0.000
REMARK  Name = Leptomycin.pdbqt.pdb
REMARK  12 active torsions:
REMARK  status: ('A' for Active; 'I' for Inactive)
REMARK    1  A    between atoms: C_2  and  C_4
REMARK    2  A    between atoms: C_5  and  C_6
REMARK    3  A    between atoms: C_6  and  C_7
REMARK    4  A    between atoms: C_10  and  C_11
REMARK    5  A    between atoms: C_10  and  C_21
REMARK    6  A    between atoms: C_12  and  C_13
REMARK    7  A    between atoms: C_23  and  C_25
REMARK    8  A    between atoms: C_25  and  C_27
REMARK    9  A    between atoms: C_27  and  C_29
REMARK   10  A    between atoms: C_29  and  O_30
REMARK   11  A    between atoms: C_29  and  C_32
REMARK   12  A    between atoms: C_38  and  O_40
REMARK                            x       y       z     vdW  Elec       q    Type
REMARK                         _______ _______ _______ _____ _____    ______ ____
ROOT
ATOM      1  C   UNL     1      13.824   8.863  75.604  0.00  0.00    +0.000 C 
ATOM      2  C   UNL     1      13.053   8.729  76.634  0.00  0.00    +0.000 C 
ATOM      3  C   UNL     1      12.695   9.950  77.431  0.00  0.00    +0.000 C 
ATOM      4  C   UNL     1      14.623   8.959  74.437  0.00  0.00    +0.000 C 
ATOM      5  C   UNL     1      16.122   9.027  74.685  0.00  0.00    +0.000 C 
ENDROOT
BRANCH   2   6
ATOM      6  C   UNL     1      12.199   7.600  76.705  0.00  0.00    +0.000 C 
ATOM      7  C   UNL     1      11.516   6.612  76.726  0.00  0.00    +0.000 C 
BRANCH   7   8
ATOM      8  C   UNL     1      10.729   5.299  76.673  0.00  0.00    +0.000 C 
BRANCH   8   9
ATOM      9  C   UNL     1       9.924   4.141  76.803  0.00  0.00    +0.000 C 
ATOM     10  C   UNL     1       8.791   4.134  77.782  0.00  0.00    +0.000 C 
ATOM     11  C   UNL     1      10.237   2.948  76.105  0.00  0.00    +0.000 C 
ATOM     12  C   UNL     1      10.684   1.951  75.404  0.00  0.00    +0.000 C 
BRANCH  12  13
ATOM     13  C   UNL     1      11.915   2.177  74.731  0.00  0.00    +0.000 C 
ATOM     14  C   UNL     1      12.901   2.298  74.057  0.00  0.00    +0.000 C 
BRANCH  14  15
ATOM     15  C   UNL     1      13.997   2.377  73.159  0.00  0.00    +0.000 A 
ATOM     16  O   UNL     1      13.727   2.973  71.855  0.00  0.00    +0.000 OA
ATOM     17  C   UNL     1      14.723   3.140  70.896  0.00  0.00    +0.000 A 
ATOM     18  O   UNL     1      14.558   3.665  69.806  0.00  0.00    +0.000 OA
ATOM     19  C   UNL     1      15.987   2.640  71.351  0.00  0.00    +0.000 A 
ATOM     20  C   UNL     1      16.256   2.140  72.401  0.00  0.00    +0.000 A 
ATOM     21  C   UNL     1      15.356   1.919  73.468  0.00  0.00    +0.000 A 
ATOM     22  C   UNL     1      15.820   1.325  74.760  0.00  0.00    +0.000 C 
ENDBRANCH  14  15
ENDBRANCH  12  13
BRANCH  12  23
ATOM     23  C   UNL     1       9.950   0.740  75.376  0.00  0.00    +0.000 C 
ATOM     24  C   UNL     1       9.162  -0.575  75.343  0.00  0.00    +0.000 C 
ENDBRANCH  12  23
ENDBRANCH   8   9
ENDBRANCH   7   8
ENDBRANCH   2   6
BRANCH   4  25
ATOM     25  C   UNL     1      14.077   8.452  73.140  0.00  0.00    +0.000 C 
ATOM     26  O   UNL     1      13.601   9.206  72.285  0.00  0.00    +0.000 OA
BRANCH  25  27
ATOM     27  C   UNL     1      14.074   6.972  72.936  0.00  0.00    +0.000 C 
ATOM     28  C   UNL     1      12.850   6.157  73.347  0.00  0.00    +0.000 C 
BRANCH  27  29
ATOM     29  C   UNL     1      15.336   6.308  72.628  0.00  0.00    +0.000 C 
BRANCH  29  30
ATOM     30  C   UNL     1      16.263   5.657  73.537  0.00  0.00    +0.000 C 
ATOM     31  C   UNL     1      17.710   5.457  73.141  0.00  0.00    +0.000 C 
ATOM     32  C   UNL     1      15.952   5.338  74.879  0.00  0.00    +0.000 C 
ATOM     33  C   UNL     1      15.698   4.981  76.220  0.00  0.00    +0.000 C 
ATOM     34  C   UNL     1      14.371   4.377  76.566  0.00  0.00    +0.000 C 
ATOM     35  C   UNL     1      16.545   5.278  77.144  0.00  0.00    +0.000 C 
ATOM     36  C   UNL     1      17.485   5.631  78.151  0.00  0.00    +0.000 C 
ATOM     37  O   UNL     1      17.809   6.781  78.379  0.00  0.00    +0.000 OA
BRANCH  36  38
ATOM     38  O   UNL     1      18.000   4.582  78.811  0.00  0.00    +0.000 OA
ATOM     39  H   UNL     1      18.953   4.593  78.584  0.00  0.00    +0.000 HD
ENDBRANCH  36  38
ENDBRANCH  29  30
BRANCH  29  40
ATOM     40  O   UNL     1      15.680   6.258  71.275  0.00  0.00    +0.000 OA
ATOM     41  H   UNL     1      16.454   6.823  71.072  0.00  0.00    +0.000 HD
ENDBRANCH  29  40
ENDBRANCH  27  29
ENDBRANCH  25  27
ENDBRANCH   4  25
TORSDOF 12
ENDMDL
MODEL 2
REMARK VINA RESULT:      -3.2     14.985     18.551
REMARK  Name = Leptomycin.pdbqt.pdb
REMARK  12 active torsions:
REMARK  status: ('A' for Active; 'I' for Inactive)
REMARK    1  A    between atoms: C_2  and  C_4
REMARK    2  A    between atoms: C_5  and  C_6
REMARK    3  A    between atoms: C_6  and  C_7
REMARK    4  A    between atoms: C_10  and  C_11
REMARK    5  A    between atoms: C_10  and  C_21
REMARK    6  A    between atoms: C_12  and  C_13
REMARK    7  A    between atoms: C_23  and  C_25
REMARK    8  A    between atoms: C_25  and  C_27
REMARK    9  A    between atoms: C_27  and  C_29
REMARK   10  A    between atoms: C_29  and  O_30
REMARK   11  A    between atoms: C_29  and  C_32
REMARK   12  A    between atoms: C_38  and  O_40
REMARK                            x       y       z     vdW  Elec       q    Type
REMARK                         _______ _______ _______ _____ _____    ______ ____
ROOT
ATOM      1  C   UNL     1      20.338  11.105  59.853  0.00  0.00    +0.000 C 
ATOM      2  C   UNL     1      21.454  10.830  59.261  0.00  0.00    +0.000 C 
ATOM      3  C   UNL     1      22.735  10.983  60.030  0.00  0.00    +0.000 C 
ATOM      4  C   UNL     1      19.082  11.345  60.467  0.00  0.00    +0.000 C 
ATOM      5  C   UNL     1      18.665  12.805  60.537  0.00  0.00    +0.000 C 
ENDROOT
BRANCH   2   6
ATOM      6  C   UNL     1      21.437   9.962  58.141  0.00  0.00    +0.000 C 
ATOM      7  C   UNL     1      21.410   9.278  57.153  0.00  0.00    +0.000 C 
BRANCH   7   8
ATOM      8  C   UNL     1      21.348   8.510  55.830  0.00  0.00    +0.000 C 
BRANCH   8   9
ATOM      9  C   UNL     1      21.166   7.946  54.544  0.00  0.00    +0.000 C 
ATOM     10  C   UNL     1      22.315   7.265  53.866  0.00  0.00    +0.000 C 
ATOM     11  C   UNL     1      19.949   8.108  53.837  0.00  0.00    +0.000 C 
ATOM     12  C   UNL     1      18.779   8.370  53.340  0.00  0.00    +0.000 C 
BRANCH  12  13
ATOM     13  C   UNL     1      17.959   9.229  54.119  0.00  0.00    +0.000 C 
ATOM     14  C   UNL     1      17.191   9.975  54.665  0.00  0.00    +0.000 C 
BRANCH  14  15
ATOM     15  C   UNL     1      16.214  10.859  55.190  0.00  0.00    +0.000 A 
ATOM     16  O   UNL     1      14.879  10.772  54.607  0.00  0.00    +0.000 OA
ATOM     17  C   UNL     1      13.822  11.560  55.056  0.00  0.00    +0.000 A 
ATOM     18  O   UNL     1      12.679  11.501  54.628  0.00  0.00    +0.000 OA
ATOM     19  C   UNL     1      14.229  12.444  56.108  0.00  0.00    +0.000 A 
ATOM     20  C   UNL     1      15.305  12.557  56.613  0.00  0.00    +0.000 A 
ATOM     21  C   UNL     1      16.461  11.819  56.271  0.00  0.00    +0.000 A 
ATOM     22  C   UNL     1      17.748  12.015  57.008  0.00  0.00    +0.000 C 
ENDBRANCH  14  15
ENDBRANCH  12  13
BRANCH  12  23
ATOM     23  C   UNL     1      18.419   7.818  52.086  0.00  0.00    +0.000 C 
ATOM     24  C   UNL     1      18.037   7.222  50.725  0.00  0.00    +0.000 C 
ENDBRANCH  12  23
ENDBRANCH   8   9
ENDBRANCH   7   8
ENDBRANCH   2   6
BRANCH   4  25
ATOM     25  C   UNL     1      18.064  10.249  60.486  0.00  0.00    +0.000 C 
ATOM     26  O   UNL     1      18.077   9.320  59.672  0.00  0.00    +0.000 OA
BRANCH  25  27
ATOM     27  C   UNL     1      16.976  10.351  61.506  0.00  0.00    +0.000 C 
ATOM     28  C   UNL     1      15.530  10.531  61.050  0.00  0.00    +0.000 C 
BRANCH  27  29
ATOM     29  C   UNL     1      17.346  10.573  62.900  0.00  0.00    +0.000 C 
BRANCH  29  30
ATOM     30  C   UNL     1      18.112   9.710  63.782  0.00  0.00    +0.000 C 
ATOM     31  C   UNL     1      17.865   9.731  65.276  0.00  0.00    +0.000 C 
ATOM     32  C   UNL     1      18.980   8.692  63.325  0.00  0.00    +0.000 C 
ATOM     33  C   UNL     1      19.871   7.672  62.931  0.00  0.00    +0.000 C 
ATOM     34  C   UNL     1      20.800   7.929  61.785  0.00  0.00    +0.000 C 
ATOM     35  C   UNL     1      19.803   6.504  63.472  0.00  0.00    +0.000 C 
ATOM     36  C   UNL     1      19.700   5.218  64.069  0.00  0.00    +0.000 C 
ATOM     37  O   UNL     1      18.690   4.541  64.011  0.00  0.00    +0.000 OA
BRANCH  36  38
ATOM     38  O   UNL     1      20.805   4.827  64.721  0.00  0.00    +0.000 OA
ATOM     39  H   UNL     1      20.886   3.872  64.515  0.00  0.00    +0.000 HD
ENDBRANCH  36  38
ENDBRANCH  29  30
BRANCH  29  40
ATOM     40  O   UNL     1      16.942  11.793  63.447  0.00  0.00    +0.000 OA
ATOM     41  H   UNL     1      16.978  12.519  62.790  0.00  0.00    +0.000 HD
ENDBRANCH  29  40
ENDBRANCH  27  29
ENDBRANCH  25  27
ENDBRANCH   4  25
TORSDOF 12
ENDMDL
MODEL 3
REMARK VINA RESULT:      -3.1     13.255     16.014
REMARK  Name = Leptomycin.pdbqt.pdb
REMARK  12 active torsions:
REMARK  status: ('A' for Active; 'I' for Inactive)
REMARK    1  A    between atoms: C_2  and  C_4
REMARK    2  A    between atoms: C_5  and  C_6
REMARK    3  A    between atoms: C_6  and  C_7
REMARK    4  A    between atoms: C_10  and  C_11
REMARK    5  A    between atoms: C_10  and  C_21
REMARK    6  A    between atoms: C_12  and  C_13
REMARK    7  A    between atoms: C_23  and  C_25
REMARK    8  A    between atoms: C_25  and  C_27
REMARK    9  A    between atoms: C_27  and  C_29
REMARK   10  A    between atoms: C_29  and  O_30
REMARK   11  A    between atoms: C_29  and  C_32
REMARK   12  A    between atoms: C_38  and  O_40
REMARK                            x       y       z     vdW  Elec       q    Type
REMARK                         _______ _______ _______ _____ _____    ______ ____
ROOT
ATOM      1  C   UNL     1       1.660   6.262  65.294  0.00  0.00    +0.000 C 
ATOM      2  C   UNL     1       1.666   6.710  64.081  0.00  0.00    +0.000 C 
ATOM      3  C   UNL     1       0.408   6.608  63.268  0.00  0.00    +0.000 C 
ATOM      4  C   UNL     1       1.696   5.833  66.645  0.00  0.00    +0.000 C 
ATOM      5  C   UNL     1       1.893   4.338  66.843  0.00  0.00    +0.000 C 
ENDROOT
BRANCH   2   6
ATOM      6  C   UNL     1       2.628   7.686  63.718  0.00  0.00    +0.000 C 
ATOM      7  C   UNL     1       3.432   8.543  63.468  0.00  0.00    +0.000 C 
BRANCH   7   8
ATOM      8  C   UNL     1       4.426   9.689  63.258  0.00  0.00    +0.000 C 
BRANCH   8   9
ATOM      9  C   UNL     1       5.425  10.634  62.920  0.00  0.00    +0.000 C 
ATOM     10  C   UNL     1       5.426  11.977  63.581  0.00  0.00    +0.000 C 
ATOM     11  C   UNL     1       6.360  10.375  61.887  0.00  0.00    +0.000 C 
ATOM     12  C   UNL     1       7.115   9.972  60.911  0.00  0.00    +0.000 C 
BRANCH  12  13
ATOM     13  C   UNL     1       6.747   8.733  60.321  0.00  0.00    +0.000 C 
ATOM     14  C   UNL     1       6.493   7.626  59.932  0.00  0.00    +0.000 C 
BRANCH  14  15
ATOM     15  C   UNL     1       6.244   6.271  59.592  0.00  0.00    +0.000 A 
ATOM     16  O   UNL     1       6.716   5.832  58.283  0.00  0.00    +0.000 OA
ATOM     17  C   UNL     1       6.565   4.520  57.843  0.00  0.00    +0.000 A 
ATOM     18  O   UNL     1       6.973   4.093  56.773  0.00  0.00    +0.000 OA
ATOM     19  C   UNL     1       5.887   3.710  58.812  0.00  0.00    +0.000 A 
ATOM     20  C   UNL     1       5.477   4.022  59.889  0.00  0.00    +0.000 A 
ATOM     21  C   UNL     1       5.571   5.307  60.470  0.00  0.00    +0.000 A 
ATOM     22  C   UNL     1       5.062   5.569  61.851  0.00  0.00    +0.000 C 
ENDBRANCH  14  15
ENDBRANCH  12  13
BRANCH  12  23
ATOM     23  C   UNL     1       8.205  10.778  60.501  0.00  0.00    +0.000 C 
ATOM     24  C   UNL     1       9.390  11.647  60.060  0.00  0.00    +0.000 C 
ENDBRANCH  12  23
ENDBRANCH   8   9
ENDBRANCH   7   8
ENDBRANCH   2   6
BRANCH   4  25
ATOM     25  C   UNL     1       2.088   6.811  67.707  0.00  0.00    +0.000 C 
ATOM     26  O   UNL     1       3.001   6.585  68.508  0.00  0.00    +0.000 OA
BRANCH  25  27
ATOM     27  C   UNL     1       1.283   8.066  67.804  0.00  0.00    +0.000 C 
ATOM     28  C   UNL     1       1.632   9.256  66.912  0.00  0.00    +0.000 C 
BRANCH  27  29
ATOM     29  C   UNL     1       0.384   8.232  68.941  0.00  0.00    +0.000 C 
BRANCH  29  30
ATOM     30  C   UNL     1       0.597   8.989  70.161  0.00  0.00    +0.000 C 
ATOM     31  C   UNL     1      -0.509   9.853  70.729  0.00  0.00    +0.000 C 
ATOM     32  C   UNL     1       1.738   8.847  70.985  0.00  0.00    +0.000 C 
ATOM     33  C   UNL     1       2.857   8.760  71.839  0.00  0.00    +0.000 C 
ATOM     34  C   UNL     1       4.223   8.668  71.230  0.00  0.00    +0.000 C 
ATOM     35  C   UNL     1       2.697   8.645  73.112  0.00  0.00    +0.000 C 
ATOM     36  C   UNL     1       2.497   8.501  74.512  0.00  0.00    +0.000 C 
ATOM     37  O   UNL     1       1.887   7.569  75.001  0.00  0.00    +0.000 OA
BRANCH  36  38
ATOM     38  O   UNL     1       3.022   9.495  75.245  0.00  0.00    +0.000 OA
ATOM     39  H   UNL     1       2.401   9.602  75.994  0.00  0.00    +0.000 HD
ENDBRANCH  36  38
ENDBRANCH  29  30
BRANCH  29  40
ATOM     40  O   UNL     1      -0.862   7.611  68.823  0.00  0.00    +0.000 OA
ATOM     41  H   UNL     1      -1.229   7.695  67.919  0.00  0.00    +0.000 HD
ENDBRANCH  29  40
ENDBRANCH  27  29
ENDBRANCH  25  27
ENDBRANCH   4  25
TORSDOF 12
ENDMDL
MODEL 4
REMARK VINA RESULT:      -3.0     11.332     14.635
REMARK  Name = Leptomycin.pdbqt.pdb
REMARK  12 active torsions:
REMARK  status: ('A' for Active; 'I' for Inactive)
REMARK    1  A    between atoms: C_2  and  C_4
REMARK    2  A    between atoms: C_5  and  C_6
REMARK    3  A    between atoms: C_6  and  C_7
REMARK    4  A    between atoms: C_10  and  C_11
REMARK    5  A    between atoms: C_10  and  C_21
REMARK    6  A    between atoms: C_12  and  C_13
REMARK    7  A    between atoms: C_23  and  C_25
REMARK    8  A    between atoms: C_25  and  C_27
REMARK    9  A    between atoms: C_27  and  C_29
REMARK   10  A    between atoms: C_29  and  O_30
REMARK   11  A    between atoms: C_29  and  C_32
REMARK   12  A    between atoms: C_38  and  O_40
REMARK                            x       y       z     vdW  Elec       q    Type
REMARK                         _______ _______ _______ _____ _____    ______ ____
ROOT
ATOM      1  C   UNL     1       1.902  10.581  68.849  0.00  0.00    +0.000 C 
ATOM      2  C   UNL     1       2.181  11.843  68.841  0.00  0.00    +0.000 C 
ATOM      3  C   UNL     1       1.124  12.819  69.270  0.00  0.00    +0.000 C 
ATOM      4  C   UNL     1       1.667   9.183  68.887  0.00  0.00    +0.000 C 
ATOM      5  C   UNL     1       0.908   8.623  67.695  0.00  0.00    +0.000 C 
ENDROOT
BRANCH   2   6
ATOM      6  C   UNL     1       3.539  12.242  68.912  0.00  0.00    +0.000 C 
ATOM      7  C   UNL     1       4.671  12.637  68.999  0.00  0.00    +0.000 C 
BRANCH   7   8
ATOM      8  C   UNL     1       6.067  13.247  69.156  0.00  0.00    +0.000 C 
BRANCH   8   9
ATOM      9  C   UNL     1       7.318  13.816  69.499  0.00  0.00    +0.000 C 
ATOM     10  C   UNL     1       7.531  14.355  70.880  0.00  0.00    +0.000 C 
ATOM     11  C   UNL     1       8.336  13.986  68.530  0.00  0.00    +0.000 C 
ATOM     12  C   UNL     1       9.138  14.075  67.513  0.00  0.00    +0.000 C 
BRANCH  12  13
ATOM     13  C   UNL     1       8.589  13.682  66.262  0.00  0.00    +0.000 C 
ATOM     14  C   UNL     1       8.005  13.337  65.271  0.00  0.00    +0.000 C 
BRANCH  14  15
ATOM     15  C   UNL     1       7.200  12.931  64.176  0.00  0.00    +0.000 A 
ATOM     16  O   UNL     1       7.899  12.630  62.931  0.00  0.00    +0.000 OA
ATOM     17  C   UNL     1       7.229  12.190  61.793  0.00  0.00    +0.000 A 
ATOM     18  O   UNL     1       7.769  11.891  60.739  0.00  0.00    +0.000 OA
ATOM     19  C   UNL     1       5.814  12.104  62.010  0.00  0.00    +0.000 A 
ATOM     20  C   UNL     1       5.197  12.344  63.003  0.00  0.00    +0.000 A 
ATOM     21  C   UNL     1       5.741  12.784  64.230  0.00  0.00    +0.000 A 
ATOM     22  C   UNL     1       4.870  13.008  65.425  0.00  0.00    +0.000 C 
ENDBRANCH  14  15
ENDBRANCH  12  13
BRANCH  12  23
ATOM     23  C   UNL     1      10.454  14.562  67.708  0.00  0.00    +0.000 C 
ATOM     24  C   UNL     1      11.876  15.096  67.915  0.00  0.00    +0.000 C 
ENDBRANCH  12  23
ENDBRANCH   8   9
ENDBRANCH   7   8
ENDBRANCH   2   6
BRANCH   4  25
ATOM     25  C   UNL     1       2.575   8.316  69.701  0.00  0.00    +0.000 C 
ATOM     26  O   UNL     1       3.019   7.244  69.277  0.00  0.00    +0.000 OA
BRANCH  25  27
ATOM     27  C   UNL     1       2.884   8.772  71.090  0.00  0.00    +0.000 C 
ATOM     28  C   UNL     1       1.742   9.029  72.070  0.00  0.00    +0.000 C 
BRANCH  27  29
ATOM     29  C   UNL     1       4.234   9.240  71.386  0.00  0.00    +0.000 C 
BRANCH  29  30
ATOM     30  C   UNL     1       4.642  10.470  72.041  0.00  0.00    +0.000 C 
ATOM     31  C   UNL     1       6.106  10.742  72.314  0.00  0.00    +0.000 C 
ATOM     32  C   UNL     1       3.766  11.550  72.300  0.00  0.00    +0.000 C 
ATOM     33  C   UNL     1       2.940  12.654  72.598  0.00  0.00    +0.000 C 
ATOM     34  C   UNL     1       1.565  12.401  73.133  0.00  0.00    +0.000 C 
ATOM     35  C   UNL     1       3.320  13.849  72.302  0.00  0.00    +0.000 C 
ATOM     36  C   UNL     1       3.751  15.158  71.953  0.00  0.00    +0.000 C 
ATOM     37  O   UNL     1       4.004  15.488  70.809  0.00  0.00    +0.000 OA
BRANCH  36  38
ATOM     38  O   UNL     1       3.875  15.991  72.998  0.00  0.00    +0.000 OA
ATOM     39  H   UNL     1       2.963  16.302  73.173  0.00  0.00    +0.000 HD
ENDBRANCH  36  38
ENDBRANCH  29  30
BRANCH  29  40
ATOM     40  O   UNL     1       5.268   8.373  71.026  0.00  0.00    +0.000 OA
ATOM     41  H   UNL     1       5.015   7.791  70.280  0.00  0.00    +0.000 HD
ENDBRANCH  29  40
ENDBRANCH  27  29
ENDBRANCH  25  27
ENDBRANCH   4  25
TORSDOF 12
ENDMDL
MODEL 5
REMARK VINA RESULT:      -3.0     18.946     22.567
REMARK  Name = Leptomycin.pdbqt.pdb
REMARK  12 active torsions:
REMARK  status: ('A' for Active; 'I' for Inactive)
REMARK    1  A    between atoms: C_2  and  C_4
REMARK    2  A    between atoms: C_5  and  C_6
REMARK    3  A    between atoms: C_6  and  C_7
REMARK    4  A    between atoms: C_10  and  C_11
REMARK    5  A    between atoms: C_10  and  C_21
REMARK    6  A    between atoms: C_12  and  C_13
REMARK    7  A    between atoms: C_23  and  C_25
REMARK    8  A    between atoms: C_25  and  C_27
REMARK    9  A    between atoms: C_27  and  C_29
REMARK   10  A    between atoms: C_29  and  O_30
REMARK   11  A    between atoms: C_29  and  C_32
REMARK   12  A    between atoms: C_38  and  O_40
REMARK                            x       y       z     vdW  Elec       q    Type
REMARK                         _______ _______ _______ _____ _____    ______ ____
ROOT
ATOM      1  C   UNL     1      21.080  -0.789  54.684  0.00  0.00    +0.000 C 
ATOM      2  C   UNL     1      20.162   0.070  54.987  0.00  0.00    +0.000 C 
ATOM      3  C   UNL     1      20.004   1.290  54.127  0.00  0.00    +0.000 C 
ATOM      4  C   UNL     1      22.037  -1.787  54.369  0.00  0.00    +0.000 C 
ATOM      5  C   UNL     1      23.456  -1.490  54.827  0.00  0.00    +0.000 C 
ENDROOT
BRANCH   2   6
ATOM      6  C   UNL     1      19.057  -0.358  55.764  0.00  0.00    +0.000 C 
ATOM      7  C   UNL     1      18.124  -0.779  56.393  0.00  0.00    +0.000 C 
BRANCH   7   8
ATOM      8  C   UNL     1      16.946  -1.423  57.130  0.00  0.00    +0.000 C 
BRANCH   8   9
ATOM      9  C   UNL     1      15.800  -2.087  57.631  0.00  0.00    +0.000 C 
ATOM     10  C   UNL     1      15.916  -2.939  58.857  0.00  0.00    +0.000 C 
ATOM     11  C   UNL     1      14.567  -2.050  56.934  0.00  0.00    +0.000 C 
ATOM     12  C   UNL     1      13.536  -1.917  56.156  0.00  0.00    +0.000 C 
BRANCH  12  13
ATOM     13  C   UNL     1      13.772  -1.229  54.936  0.00  0.00    +0.000 C 
ATOM     14  C   UNL     1      14.060  -0.569  53.975  0.00  0.00    +0.000 C 
BRANCH  14  15
ATOM     15  C   UNL     1      14.493   0.274  52.919  0.00  0.00    +0.000 A 
ATOM     16  O   UNL     1      15.520   1.256  53.251  0.00  0.00    +0.000 OA
ATOM     17  C   UNL     1      16.054   2.121  52.299  0.00  0.00    +0.000 A 
ATOM     18  O   UNL     1      16.939   2.934  52.516  0.00  0.00    +0.000 OA
ATOM     19  C   UNL     1      15.455   1.927  51.011  0.00  0.00    +0.000 A 
ATOM     20  C   UNL     1      14.611   1.145  50.692  0.00  0.00    +0.000 A 
ATOM     21  C   UNL     1      13.990   0.204  51.543  0.00  0.00    +0.000 A 
ATOM     22  C   UNL     1      12.975  -0.761  51.017  0.00  0.00    +0.000 C 
ENDBRANCH  14  15
ENDBRANCH  12  13
BRANCH  12  23
ATOM     23  C   UNL     1      12.293  -2.468  56.554  0.00  0.00    +0.000 C 
ATOM     24  C   UNL     1      10.944  -3.057  56.984  0.00  0.00    +0.000 C 
ENDBRANCH  12  23
ENDBRANCH   8   9
ENDBRANCH   7   8
ENDBRANCH   2   6
BRANCH   4  25
ATOM     25  C   UNL     1      21.574  -3.193  54.153  0.00  0.00    +0.000 C 
ATOM     26  O   UNL     1      22.330  -4.083  53.750  0.00  0.00    +0.000 OA
BRANCH  25  27
ATOM     27  C   UNL     1      20.126  -3.475  54.390  0.00  0.00    +0.000 C 
ATOM     28  C   UNL     1      19.693  -4.164  55.683  0.00  0.00    +0.000 C 
BRANCH  27  29
ATOM     29  C   UNL     1      19.199  -3.357  53.269  0.00  0.00    +0.000 C 
BRANCH  29  30
ATOM     30  C   UNL     1      17.833  -2.867  53.271  0.00  0.00    +0.000 C 
ATOM     31  C   UNL     1      17.490  -1.554  52.600  0.00  0.00    +0.000 C 
ATOM     32  C   UNL     1      16.726  -3.626  53.717  0.00  0.00    +0.000 C 
ATOM     33  C   UNL     1      15.586  -4.328  54.161  0.00  0.00    +0.000 C 
ATOM     34  C   UNL     1      15.679  -5.135  55.419  0.00  0.00    +0.000 C 
ATOM     35  C   UNL     1      14.523  -4.367  53.434  0.00  0.00    +0.000 C 
ATOM     36  C   UNL     1      13.365  -4.411  52.608  0.00  0.00    +0.000 C 
ATOM     37  O   UNL     1      13.374  -4.872  51.482  0.00  0.00    +0.000 OA
BRANCH  36  38
ATOM     38  O   UNL     1      12.270  -3.881  53.173  0.00  0.00    +0.000 OA
ATOM     39  H   UNL     1      11.831  -3.392  52.446  0.00  0.00    +0.000 HD
ENDBRANCH  36  38
ENDBRANCH  29  30
BRANCH  29  40
ATOM     40  O   UNL     1      19.707  -3.731  52.022  0.00  0.00    +0.000 OA
ATOM     41  H   UNL     1      20.309  -4.501  52.088  0.00  0.00    +0.000 HD
ENDBRANCH  29  40
ENDBRANCH  27  29
ENDBRANCH  25  27
ENDBRANCH   4  25
TORSDOF 12
ENDMDL
MODEL 6
REMARK VINA RESULT:      -2.9      3.468      7.730
REMARK  Name = Leptomycin.pdbqt.pdb
REMARK  12 active torsions:
REMARK  status: ('A' for Active; 'I' for Inactive)
REMARK    1  A    between atoms: C_2  and  C_4
REMARK    2  A    between atoms: C_5  and  C_6
REMARK    3  A    between atoms: C_6  and  C_7
REMARK    4  A    between atoms: C_10  and  C_11
REMARK    5  A    between atoms: C_10  and  C_21
REMARK    6  A    between atoms: C_12  and  C_13
REMARK    7  A    between atoms: C_23  and  C_25
REMARK    8  A    between atoms: C_25  and  C_27
REMARK    9  A    between atoms: C_27  and  C_29
REMARK   10  A    between atoms: C_29  and  O_30
REMARK   11  A    between atoms: C_29  and  C_32
REMARK   12  A    between atoms: C_38  and  O_40
REMARK                            x       y       z     vdW  Elec       q    Type
REMARK                         _______ _______ _______ _____ _____    ______ ____
ROOT
ATOM      1  C   UNL     1      13.879  -0.505  71.442  0.00  0.00    +0.000 C 
ATOM      2  C   UNL     1      13.383  -1.148  72.449  0.00  0.00    +0.000 C 
ATOM      3  C   UNL     1      14.180  -2.269  73.051  0.00  0.00    +0.000 C 
ATOM      4  C   UNL     1      14.396   0.267  70.370  0.00  0.00    +0.000 C 
ATOM      5  C   UNL     1      14.240  -0.357  68.992  0.00  0.00    +0.000 C 
ENDROOT
BRANCH   2   6
ATOM      6  C   UNL     1      12.398  -0.514  73.245  0.00  0.00    +0.000 C 
ATOM      7  C   UNL     1      11.542  -0.036  73.940  0.00  0.00    +0.000 C 
BRANCH   7   8
ATOM      8  C   UNL     1      10.416   0.457  74.854  0.00  0.00    +0.000 C 
BRANCH   8   9
ATOM      9  C   UNL     1       9.516   1.024  75.789  0.00  0.00    +0.000 C 
ATOM     10  C   UNL     1       8.289   0.264  76.188  0.00  0.00    +0.000 C 
ATOM     11  C   UNL     1       9.696   2.343  76.273  0.00  0.00    +0.000 C 
ATOM     12  C   UNL     1      10.012   3.562  76.591  0.00  0.00    +0.000 C 
BRANCH  12  13
ATOM     13  C   UNL     1      11.116   4.113  75.888  0.00  0.00    +0.000 C 
ATOM     14  C   UNL     1      12.072   4.453  75.244  0.00  0.00    +0.000 C 
BRANCH  14  15
ATOM     15  C   UNL     1      13.204   4.725  74.434  0.00  0.00    +0.000 A 
ATOM     16  O   UNL     1      13.315   6.080  73.905  0.00  0.00    +0.000 OA
ATOM     17  C   UNL     1      14.395   6.485  73.125  0.00  0.00    +0.000 A 
ATOM     18  O   UNL     1      14.553   7.615  72.688  0.00  0.00    +0.000 OA
ATOM     19  C   UNL     1      15.325   5.416  72.911  0.00  0.00    +0.000 A 
ATOM     20  C   UNL     1      15.277   4.293  73.315  0.00  0.00    +0.000 A 
ATOM     21  C   UNL     1      14.254   3.748  74.123  0.00  0.00    +0.000 A 
ATOM     22  C   UNL     1      14.325   2.336  74.610  0.00  0.00    +0.000 C 
ENDBRANCH  14  15
ENDBRANCH  12  13
BRANCH  12  23
ATOM     23  C   UNL     1       9.245   4.243  77.568  0.00  0.00    +0.000 C 
ATOM     24  C   UNL     1       8.423   4.983  78.630  0.00  0.00    +0.000 C 
ENDBRANCH  12  23
ENDBRANCH   8   9
ENDBRANCH   7   8
ENDBRANCH   2   6
BRANCH   4  25
ATOM     25  C   UNL     1      14.524   1.748  70.538  0.00  0.00    +0.000 C 
ATOM     26  O   UNL     1      13.624   2.437  71.031  0.00  0.00    +0.000 OA
BRANCH  25  27
ATOM     27  C   UNL     1      15.775   2.383  70.026  0.00  0.00    +0.000 C 
ATOM     28  C   UNL     1      17.118   2.016  70.654  0.00  0.00    +0.000 C 
BRANCH  27  29
ATOM     29  C   UNL     1      15.660   3.545  69.150  0.00  0.00    +0.000 C 
BRANCH  29  30
ATOM     30  C   UNL     1      16.311   3.785  67.875  0.00  0.00    +0.000 C 
ATOM     31  C   UNL     1      16.861   5.156  67.543  0.00  0.00    +0.000 C 
ATOM     32  C   UNL     1      16.636   2.763  66.954  0.00  0.00    +0.000 C 
ATOM     33  C   UNL     1      16.972   1.790  65.989  0.00  0.00    +0.000 C 
ATOM     34  C   UNL     1      15.989   0.700  65.691  0.00  0.00    +0.000 C 
ATOM     35  C   UNL     1      18.148   1.775  65.464  0.00  0.00    +0.000 C 
ATOM     36  C   UNL     1      19.457   1.766  64.908  0.00  0.00    +0.000 C 
ATOM     37  O   UNL     1      20.461   1.634  65.584  0.00  0.00    +0.000 OA
BRANCH  36  38
ATOM     38  O   UNL     1      19.489   1.936  63.578  0.00  0.00    +0.000 OA
ATOM     39  H   UNL     1      18.569   1.768  63.287  0.00  0.00    +0.000 HD
ENDBRANCH  36  38
ENDBRANCH  29  30
BRANCH  29  40
ATOM     40  O   UNL     1      14.778   4.540  69.578  0.00  0.00    +0.000 OA
ATOM     41  H   UNL     1      14.101   4.745  68.901  0.00  0.00    +0.000 HD
ENDBRANCH  29  40
ENDBRANCH  27  29
ENDBRANCH  25  27
ENDBRANCH   4  25
TORSDOF 12
ENDMDL
MODEL 7
REMARK VINA RESULT:      -2.7      1.595      2.097
REMARK  Name = Leptomycin.pdbqt.pdb
REMARK  12 active torsions:
REMARK  status: ('A' for Active; 'I' for Inactive)
REMARK    1  A    between atoms: C_2  and  C_4
REMARK    2  A    between atoms: C_5  and  C_6
REMARK    3  A    between atoms: C_6  and  C_7
REMARK    4  A    between atoms: C_10  and  C_11
REMARK    5  A    between atoms: C_10  and  C_21
REMARK    6  A    between atoms: C_12  and  C_13
REMARK    7  A    between atoms: C_23  and  C_25
REMARK    8  A    between atoms: C_25  and  C_27
REMARK    9  A    between atoms: C_27  and  C_29
REMARK   10  A    between atoms: C_29  and  O_30
REMARK   11  A    between atoms: C_29  and  C_32
REMARK   12  A    between atoms: C_38  and  O_40
REMARK                            x       y       z     vdW  Elec       q    Type
REMARK                         _______ _______ _______ _____ _____    ______ ____
ROOT
ATOM      1  C   UNL     1      13.297   8.370  76.990  0.00  0.00    +0.000 C 
ATOM      2  C   UNL     1      12.324   8.097  77.797  0.00  0.00    +0.000 C 
ATOM      3  C   UNL     1      11.743   9.204  78.627  0.00  0.00    +0.000 C 
ATOM      4  C   UNL     1      14.330   8.623  76.053  0.00  0.00    +0.000 C 
ATOM      5  C   UNL     1      15.732   8.689  76.638  0.00  0.00    +0.000 C 
ENDROOT
BRANCH   2   6
ATOM      6  C   UNL     1      11.528   6.952  77.544  0.00  0.00    +0.000 C 
ATOM      7  C   UNL     1      10.900   5.960  77.289  0.00  0.00    +0.000 C 
BRANCH   7   8
ATOM      8  C   UNL     1      10.193   4.663  76.885  0.00  0.00    +0.000 C 
BRANCH   8   9
ATOM      9  C   UNL     1       9.440   3.480  76.686  0.00  0.00    +0.000 C 
ATOM     10  C   UNL     1       8.098   3.340  77.335  0.00  0.00    +0.000 C 
ATOM     11  C   UNL     1       9.978   2.378  75.976  0.00  0.00    +0.000 C 
ATOM     12  C   UNL     1      10.636   1.475  75.316  0.00  0.00    +0.000 C 
BRANCH  12  13
ATOM     13  C   UNL     1      11.985   1.800  75.008  0.00  0.00    +0.000 C 
ATOM     14  C   UNL     1      13.102   2.018  74.624  0.00  0.00    +0.000 C 
BRANCH  14  15
ATOM     15  C   UNL     1      14.382   2.224  74.049  0.00  0.00    +0.000 A 
ATOM     16  O   UNL     1      15.529   1.817  74.853  0.00  0.00    +0.000 OA
ATOM     17  C   UNL     1      16.837   1.934  74.390  0.00  0.00    +0.000 A 
ATOM     18  O   UNL     1      17.828   1.575  75.008  0.00  0.00    +0.000 OA
ATOM     19  C   UNL     1      16.886   2.509  73.078  0.00  0.00    +0.000 A 
ATOM     20  C   UNL     1      15.981   2.863  72.385  0.00  0.00    +0.000 A 
ATOM     21  C   UNL     1      14.609   2.793  72.715  0.00  0.00    +0.000 A 
ATOM     22  C   UNL     1      13.558   3.224  71.743  0.00  0.00    +0.000 C 
ENDBRANCH  14  15
ENDBRANCH  12  13
BRANCH  12  23
ATOM     23  C   UNL     1       9.994   0.258  74.979  0.00  0.00    +0.000 C 
ATOM     24  C   UNL     1       9.305  -1.063  74.616  0.00  0.00    +0.000 C 
ENDBRANCH  12  23
ENDBRANCH   8   9
ENDBRANCH   7   8
ENDBRANCH   2   6
BRANCH   4  25
ATOM     25  C   UNL     1      14.109   8.268  74.616  0.00  0.00    +0.000 C 
ATOM     26  O   UNL     1      13.823   9.115  73.763  0.00  0.00    +0.000 OA
BRANCH  25  27
ATOM     27  C   UNL     1      14.191   6.821  74.254  0.00  0.00    +0.000 C 
ATOM     28  C   UNL     1      12.919   5.977  74.231  0.00  0.00    +0.000 C 
BRANCH  27  29
ATOM     29  C   UNL     1      15.503   6.183  74.219  0.00  0.00    +0.000 C 
BRANCH  29  30
ATOM     30  C   UNL     1      16.212   5.512  75.294  0.00  0.00    +0.000 C 
ATOM     31  C   UNL     1      17.724   5.448  75.290  0.00  0.00    +0.000 C 
ATOM     32  C   UNL     1      15.588   5.044  76.474  0.00  0.00    +0.000 C 
ATOM     33  C   UNL     1      15.023   4.543  77.665  0.00  0.00    +0.000 C 
ATOM     34  C   UNL     1      13.712   3.821  77.593  0.00  0.00    +0.000 C 
ATOM     35  C   UNL     1      15.565   4.806  78.804  0.00  0.00    +0.000 C 
ATOM     36  C   UNL     1      16.171   5.121  80.051  0.00  0.00    +0.000 C 
ATOM     37  O   UNL     1      16.317   6.264  80.444  0.00  0.00    +0.000 OA
BRANCH  36  38
ATOM     38  O   UNL     1      16.586   4.050  80.745  0.00  0.00    +0.000 OA
ATOM     39  H   UNL     1      16.143   4.135  81.614  0.00  0.00    +0.000 HD
ENDBRANCH  36  38
ENDBRANCH  29  30
BRANCH  29  40
ATOM     40  O   UNL     1      16.145   6.186  72.979  0.00  0.00    +0.000 OA
ATOM     41  H   UNL     1      16.175   5.292  72.580  0.00  0.00    +0.000 HD
ENDBRANCH  29  40
ENDBRANCH  27  29
ENDBRANCH  25  27
ENDBRANCH   4  25
TORSDOF 12
ENDMDL
MODEL 8
REMARK VINA RESULT:      -2.6     14.588     18.243
REMARK  Name = Leptomycin.pdbqt.pdb
REMARK  12 active torsions:
REMARK  status: ('A' for Active; 'I' for Inactive)
REMARK    1  A    between atoms: C_2  and  C_4
REMARK    2  A    between atoms: C_5  and  C_6
REMARK    3  A    between atoms: C_6  and  C_7
REMARK    4  A    between atoms: C_10  and  C_11
REMARK    5  A    between atoms: C_10  and  C_21
REMARK    6  A    between atoms: C_12  and  C_13
REMARK    7  A    between atoms: C_23  and  C_25
REMARK    8  A    between atoms: C_25  and  C_27
REMARK    9  A    between atoms: C_27  and  C_29
REMARK   10  A    between atoms: C_29  and  O_30
REMARK   11  A    between atoms: C_29  and  C_32
REMARK   12  A    between atoms: C_38  and  O_40
REMARK                            x       y       z     vdW  Elec       q    Type
REMARK                         _______ _______ _______ _____ _____    ______ ____
ROOT
ATOM      1  C   UNL     1      20.830  11.447  60.809  0.00  0.00    +0.000 C 
ATOM      2  C   UNL     1      22.105  11.237  60.874  0.00  0.00    +0.000 C 
ATOM      3  C   UNL     1      22.850  11.693  62.095  0.00  0.00    +0.000 C 
ATOM      4  C   UNL     1      19.425  11.607  60.707  0.00  0.00    +0.000 C 
ATOM      5  C   UNL     1      18.962  12.986  60.265  0.00  0.00    +0.000 C 
ENDROOT
BRANCH   2   6
ATOM      6  C   UNL     1      22.666  10.201  60.086  0.00  0.00    +0.000 C 
ATOM      7  C   UNL     1      23.127   9.358  59.365  0.00  0.00    +0.000 C 
BRANCH   7   8
ATOM      8  C   UNL     1      23.680   8.356  58.348  0.00  0.00    +0.000 C 
BRANCH   8   9
ATOM      9  C   UNL     1      24.127   7.557  57.267  0.00  0.00    +0.000 C 
ATOM     10  C   UNL     1      25.534   7.044  57.259  0.00  0.00    +0.000 C 
ATOM     11  C   UNL     1      23.304   7.324  56.138  0.00  0.00    +0.000 C 
ATOM     12  C   UNL     1      22.422   7.233  55.190  0.00  0.00    +0.000 C 
BRANCH  12  13
ATOM     13  C   UNL     1      21.245   8.008  55.369  0.00  0.00    +0.000 C 
ATOM     14  C   UNL     1      20.217   8.628  55.392  0.00  0.00    +0.000 C 
BRANCH  14  15
ATOM     15  C   UNL     1      18.978   9.312  55.292  0.00  0.00    +0.000 A 
ATOM     16  O   UNL     1      18.626  10.186  56.406  0.00  0.00    +0.000 OA
ATOM     17  C   UNL     1      17.455  10.939  56.415  0.00  0.00    +0.000 A 
ATOM     18  O   UNL     1      17.131  11.711  57.305  0.00  0.00    +0.000 OA
ATOM     19  C   UNL     1      16.673  10.719  55.234  0.00  0.00    +0.000 A 
ATOM     20  C   UNL     1      16.913  10.013  54.302  0.00  0.00    +0.000 A 
ATOM     21  C   UNL     1      18.063   9.206  54.150  0.00  0.00    +0.000 A 
ATOM     22  C   UNL     1      18.280   8.396  52.911  0.00  0.00    +0.000 C 
ENDBRANCH  14  15
ENDBRANCH  12  13
BRANCH  12  23
ATOM     23  C   UNL     1      22.694   6.412  54.068  0.00  0.00    +0.000 C 
ATOM     24  C   UNL     1      22.985   5.517  52.857  0.00  0.00    +0.000 C 
ENDBRANCH  12  23
ENDBRANCH   8   9
ENDBRANCH   7   8
ENDBRANCH   2   6
BRANCH   4  25
ATOM     25  C   UNL     1      18.571  10.399  60.487  0.00  0.00    +0.000 C 
ATOM     26  O   UNL     1      18.836   9.551  59.627  0.00  0.00    +0.000 OA
BRANCH  25  27
ATOM     27  C   UNL     1      17.334  10.281  61.316  0.00  0.00    +0.000 C 
ATOM     28  C   UNL     1      15.967  10.303  60.636  0.00  0.00    +0.000 C 
BRANCH  27  29
ATOM     29  C   UNL     1      17.445  10.444  62.762  0.00  0.00    +0.000 C 
BRANCH  29  30
ATOM     30  C   UNL     1      18.147   9.605  63.716  0.00  0.00    +0.000 C 
ATOM     31  C   UNL     1      17.819   9.684  65.191  0.00  0.00    +0.000 C 
ATOM     32  C   UNL     1      19.025   8.560  63.346  0.00  0.00    +0.000 C 
ATOM     33  C   UNL     1      19.922   7.514  63.040  0.00  0.00    +0.000 C 
ATOM     34  C   UNL     1      20.917   7.716  61.939  0.00  0.00    +0.000 C 
ATOM     35  C   UNL     1      19.807   6.369  63.618  0.00  0.00    +0.000 C 
ATOM     36  C   UNL     1      19.651   5.107  64.256  0.00  0.00    +0.000 C 
ATOM     37  O   UNL     1      18.637   4.441  64.166  0.00  0.00    +0.000 OA
BRANCH  36  38
ATOM     38  O   UNL     1      20.713   4.726  64.983  0.00  0.00    +0.000 OA
ATOM     39  H   UNL     1      20.863   3.793  64.728  0.00  0.00    +0.000 HD
ENDBRANCH  36  38
ENDBRANCH  29  30
BRANCH  29  40
ATOM     40  O   UNL     1      16.825  11.577  63.293  0.00  0.00    +0.000 OA
ATOM     41  H   UNL     1      17.468  12.292  63.481  0.00  0.00    +0.000 HD
ENDBRANCH  29  40
ENDBRANCH  27  29
ENDBRANCH  25  27
ENDBRANCH   4  25
TORSDOF 12
ENDMDL
MODEL 9
REMARK VINA RESULT:      -2.4     14.182     17.119
REMARK  Name = Leptomycin.pdbqt.pdb
REMARK  12 active torsions:
REMARK  status: ('A' for Active; 'I' for Inactive)
REMARK    1  A    between atoms: C_2  and  C_4
REMARK    2  A    between atoms: C_5  and  C_6
REMARK    3  A    between atoms: C_6  and  C_7
REMARK    4  A    between atoms: C_10  and  C_11
REMARK    5  A    between atoms: C_10  and  C_21
REMARK    6  A    between atoms: C_12  and  C_13
REMARK    7  A    between atoms: C_23  and  C_25
REMARK    8  A    between atoms: C_25  and  C_27
REMARK    9  A    between atoms: C_27  and  C_29
REMARK   10  A    between atoms: C_29  and  O_30
REMARK   11  A    between atoms: C_29  and  C_32
REMARK   12  A    between atoms: C_38  and  O_40
REMARK                            x       y       z     vdW  Elec       q    Type
REMARK                         _______ _______ _______ _____ _____    ______ ____
ROOT
ATOM      1  C   UNL     1       4.678  11.497  59.133  0.00  0.00    +0.000 C 
ATOM      2  C   UNL     1       3.614  12.092  59.566  0.00  0.00    +0.000 C 
ATOM      3  C   UNL     1       2.611  12.592  58.567  0.00  0.00    +0.000 C 
ATOM      4  C   UNL     1       5.837  10.795  58.717  0.00  0.00    +0.000 C 
ATOM      5  C   UNL     1       6.991  11.669  58.253  0.00  0.00    +0.000 C 
ENDROOT
BRANCH   2   6
ATOM      6  C   UNL     1       3.180  11.836  60.890  0.00  0.00    +0.000 C 
ATOM      7  C   UNL     1       2.810  11.683  62.023  0.00  0.00    +0.000 C 
BRANCH   7   8
ATOM      8  C   UNL     1       2.341  11.614  63.479  0.00  0.00    +0.000 C 
BRANCH   8   9
ATOM      9  C   UNL     1       1.892  11.352  64.797  0.00  0.00    +0.000 C 
ATOM     10  C   UNL     1       0.557  10.706  65.007  0.00  0.00    +0.000 C 
ATOM     11  C   UNL     1       2.630  11.787  65.924  0.00  0.00    +0.000 C 
ATOM     12  C   UNL     1       3.426  12.272  66.827  0.00  0.00    +0.000 C 
BRANCH  12  13
ATOM     13  C   UNL     1       4.520  13.035  66.336  0.00  0.00    +0.000 C 
ATOM     14  C   UNL     1       5.479  13.569  65.849  0.00  0.00    +0.000 C 
BRANCH  14  15
ATOM     15  C   UNL     1       6.630  14.083  65.199  0.00  0.00    +0.000 A 
ATOM     16  O   UNL     1       7.792  14.343  66.043  0.00  0.00    +0.000 OA
ATOM     17  C   UNL     1       8.994  14.817  65.524  0.00  0.00    +0.000 A 
ATOM     18  O   UNL     1      10.005  15.016  66.180  0.00  0.00    +0.000 OA
ATOM     19  C   UNL     1       8.915  15.024  64.108  0.00  0.00    +0.000 A 
ATOM     20  C   UNL     1       7.990  14.834  63.377  0.00  0.00    +0.000 A 
ATOM     21  C   UNL     1       6.720  14.346  63.758  0.00  0.00    +0.000 A 
ATOM     22  C   UNL     1       5.650  14.101  62.743  0.00  0.00    +0.000 C 
ENDBRANCH  14  15
ENDBRANCH  12  13
BRANCH  12  23
ATOM     23  C   UNL     1       3.148  12.034  68.196  0.00  0.00    +0.000 C 
ATOM     24  C   UNL     1       2.842  11.782  69.677  0.00  0.00    +0.000 C 
ENDBRANCH  12  23
ENDBRANCH   8   9
ENDBRANCH   7   8
ENDBRANCH   2   6
BRANCH   4  25
ATOM     25  C   UNL     1       6.077   9.415  59.244  0.00  0.00    +0.000 C 
ATOM     26  O   UNL     1       5.440   8.435  58.842  0.00  0.00    +0.000 OA
BRANCH  25  27
ATOM     27  C   UNL     1       7.090   9.270  60.332  0.00  0.00    +0.000 C 
ATOM     28  C   UNL     1       8.137   8.162  60.244  0.00  0.00    +0.000 C 
BRANCH  27  29
ATOM     29  C   UNL     1       6.877   9.990  61.584  0.00  0.00    +0.000 C 
BRANCH  29  30
ATOM     30  C   UNL     1       6.012   9.637  62.695  0.00  0.00    +0.000 C 
ATOM     31  C   UNL     1       5.751  10.631  63.807  0.00  0.00    +0.000 C 
ATOM     32  C   UNL     1       5.231   8.459  62.740  0.00  0.00    +0.000 C 
ATOM     33  C   UNL     1       4.440   7.296  62.849  0.00  0.00    +0.000 C 
ATOM     34  C   UNL     1       5.021   5.986  62.416  0.00  0.00    +0.000 C 
ATOM     35  C   UNL     1       3.204   7.381  63.202  0.00  0.00    +0.000 C 
ATOM     36  C   UNL     1       1.838   7.499  63.579  0.00  0.00    +0.000 C 
ATOM     37  O   UNL     1       1.030   8.148  62.940  0.00  0.00    +0.000 OA
BRANCH  36  38
ATOM     38  O   UNL     1       1.523   6.849  64.710  0.00  0.00    +0.000 OA
ATOM     39  H   UNL     1       2.200   6.145  64.785  0.00  0.00    +0.000 HD
ENDBRANCH  36  38
ENDBRANCH  29  30
BRANCH  29  40
ATOM     40  O   UNL     1       7.633  11.153  61.749  0.00  0.00    +0.000 OA
ATOM     41  H   UNL     1       7.681  11.679  60.925  0.00  0.00    +0.000 HD
ENDBRANCH  29  40
ENDBRANCH  27  29
ENDBRANCH  25  27
ENDBRANCH   4  25
TORSDOF 12
ENDMDL
