MODEL 1
REMARK VINA RESULT:      -4.8      0.000      0.000
REMARK  Name = Lobelin.pdbqt.pdb
REMARK  3 active torsions:
REMARK  status: ('A' for Active; 'I' for Inactive)
REMARK    1  A    between atoms: C_9  and  O_10
REMARK    2  A    between atoms: C_9  and  C_12
REMARK    3  A    between atoms: C_19  and  C_21
REMARK                            x       y       z     vdW  Elec       q    Type
REMARK                         _______ _______ _______ _____ _____    ______ ____
ROOT
ATOM      1  N   UNL     1       6.331   8.773  59.902  0.00  0.00    +0.000 N 
ATOM      2  C   UNL     1       5.843   8.062  58.726  0.00  0.00    +0.000 C 
ATOM      3  C   UNL     1       5.416   9.580  60.703  0.00  0.00    +0.000 C 
ATOM      4  C   UNL     1       4.441   8.198  58.483  0.00  0.00    +0.000 C 
ATOM      5  C   UNL     1       4.058   9.563  60.259  0.00  0.00    +0.000 C 
ATOM      6  C   UNL     1       3.275   8.923  59.129  0.00  0.00    +0.000 C 
ATOM      7  C   UNL     1       7.746   8.784  60.205  0.00  0.00    +0.000 C 
ATOM      8  C   UNL     1       6.692   7.284  57.893  0.00  0.00    +0.000 C 
ATOM      9  C   UNL     1       7.542   6.489  57.082  0.00  0.00    +0.000 C 
ATOM     10  C   UNL     1       5.844  10.311  61.840  0.00  0.00    +0.000 C 
ATOM     11  C   UNL     1       6.274  11.027  63.013  0.00  0.00    +0.000 C 
ATOM     12  O   UNL     1       5.677  10.858  64.066  0.00  0.00    +0.000 OA
ENDROOT
BRANCH   9  13
ATOM     13  C   UNL     1       8.252   5.298  57.551  0.00  0.00    +0.000 A 
ATOM     14  C   UNL     1       9.551   5.393  58.058  0.00  0.00    +0.000 A 
ATOM     15  C   UNL     1      10.227   4.259  58.506  0.00  0.00    +0.000 A 
ATOM     16  C   UNL     1       9.608   3.014  58.452  0.00  0.00    +0.000 A 
ATOM     17  C   UNL     1       8.315   2.903  57.950  0.00  0.00    +0.000 A 
ATOM     18  C   UNL     1       7.644   4.040  57.502  0.00  0.00    +0.000 A 
ENDBRANCH   9  13
BRANCH  11  19
ATOM     19  C   UNL     1       7.417  11.949  62.895  0.00  0.00    +0.000 A 
ATOM     20  C   UNL     1       7.955  12.278  61.651  0.00  0.00    +0.000 A 
ATOM     21  C   UNL     1       9.031  13.159  61.572  0.00  0.00    +0.000 A 
ATOM     22  C   UNL     1       9.567  13.710  62.733  0.00  0.00    +0.000 A 
ATOM     23  C   UNL     1       9.026  13.384  63.976  0.00  0.00    +0.000 A 
ATOM     24  C   UNL     1       7.950  12.504  64.058  0.00  0.00    +0.000 A 
ENDBRANCH  11  19
BRANCH   9  25
ATOM     25  O   UNL     1       7.720   6.838  55.762  0.00  0.00    +0.000 OA
ATOM     26  H   UNL     1       7.064   6.414  55.183  0.00  0.00    +0.000 HD
ENDBRANCH   9  25
TORSDOF 3
ENDMDL
MODEL 2
REMARK VINA RESULT:      -4.7      6.663     10.261
REMARK  Name = Lobelin.pdbqt.pdb
REMARK  3 active torsions:
REMARK  status: ('A' for Active; 'I' for Inactive)
REMARK    1  A    between atoms: C_9  and  O_10
REMARK    2  A    between atoms: C_9  and  C_12
REMARK    3  A    between atoms: C_19  and  C_21
REMARK                            x       y       z     vdW  Elec       q    Type
REMARK                         _______ _______ _______ _____ _____    ______ ____
ROOT
ATOM      1  N   UNL     1      13.030  12.529  58.674  0.00  0.00    +0.000 N 
ATOM      2  C   UNL     1      11.574  12.550  58.769  0.00  0.00    +0.000 C 
ATOM      3  C   UNL     1      13.683  12.736  57.385  0.00  0.00    +0.000 C 
ATOM      4  C   UNL     1      10.898  12.824  57.540  0.00  0.00    +0.000 C 
ATOM      5  C   UNL     1      12.793  12.989  56.297  0.00  0.00    +0.000 C 
ATOM      6  C   UNL     1      11.293  13.093  56.100  0.00  0.00    +0.000 C 
ATOM      7  C   UNL     1      13.824  12.178  59.831  0.00  0.00    +0.000 C 
ATOM      8  C   UNL     1      10.883  12.328  59.991  0.00  0.00    +0.000 C 
ATOM      9  C   UNL     1      10.200  12.130  61.219  0.00  0.00    +0.000 C 
ATOM     10  C   UNL     1      15.093  12.699  57.234  0.00  0.00    +0.000 C 
ATOM     11  C   UNL     1      16.524  12.695  57.088  0.00  0.00    +0.000 C 
ATOM     12  O   UNL     1      17.071  13.643  56.544  0.00  0.00    +0.000 OA
ENDROOT
BRANCH   9  13
ATOM     13  C   UNL     1      10.325  13.012  62.381  0.00  0.00    +0.000 A 
ATOM     14  C   UNL     1       9.522  12.825  63.510  0.00  0.00    +0.000 A 
ATOM     15  C   UNL     1       9.640  13.664  64.617  0.00  0.00    +0.000 A 
ATOM     16  C   UNL     1      10.566  14.702  64.607  0.00  0.00    +0.000 A 
ATOM     17  C   UNL     1      11.373  14.901  63.490  0.00  0.00    +0.000 A 
ATOM     18  C   UNL     1      11.250  14.060  62.386  0.00  0.00    +0.000 A 
ENDBRANCH   9  13
BRANCH  11  19
ATOM     19  C   UNL     1      17.280  11.534  57.592  0.00  0.00    +0.000 A 
ATOM     20  C   UNL     1      17.961  10.682  56.723  0.00  0.00    +0.000 A 
ATOM     21  C   UNL     1      18.671   9.597  57.231  0.00  0.00    +0.000 A 
ATOM     22  C   UNL     1      18.702   9.366  58.604  0.00  0.00    +0.000 A 
ATOM     23  C   UNL     1      18.025  10.220  59.472  0.00  0.00    +0.000 A 
ATOM     24  C   UNL     1      17.314  11.306  58.968  0.00  0.00    +0.000 A 
ENDBRANCH  11  19
BRANCH   9  25
ATOM     25  O   UNL     1       9.357  11.050  61.346  0.00  0.00    +0.000 OA
ATOM     26  H   UNL     1       9.407  10.459  60.576  0.00  0.00    +0.000 HD
ENDBRANCH   9  25
TORSDOF 3
ENDMDL
MODEL 3
REMARK VINA RESULT:      -4.6      7.190     10.657
REMARK  Name = Lobelin.pdbqt.pdb
REMARK  3 active torsions:
REMARK  status: ('A' for Active; 'I' for Inactive)
REMARK    1  A    between atoms: C_9  and  O_10
REMARK    2  A    between atoms: C_9  and  C_12
REMARK    3  A    between atoms: C_19  and  C_21
REMARK                            x       y       z     vdW  Elec       q    Type
REMARK                         _______ _______ _______ _____ _____    ______ ____
ROOT
ATOM      1  N   UNL     1      14.134  12.400  59.692  0.00  0.00    +0.000 N 
ATOM      2  C   UNL     1      12.714  12.452  59.363  0.00  0.00    +0.000 C 
ATOM      3  C   UNL     1      15.136  12.540  58.639  0.00  0.00    +0.000 C 
ATOM      4  C   UNL     1      12.427  12.685  57.982  0.00  0.00    +0.000 C 
ATOM      5  C   UNL     1      14.604  12.762  57.332  0.00  0.00    +0.000 C 
ATOM      6  C   UNL     1      13.227  12.884  56.708  0.00  0.00    +0.000 C 
ATOM      7  C   UNL     1      14.553  12.086  61.040  0.00  0.00    +0.000 C 
ATOM      8  C   UNL     1      11.695  12.296  60.341  0.00  0.00    +0.000 C 
ATOM      9  C   UNL     1      10.683  12.164  61.327  0.00  0.00    +0.000 C 
ATOM     10  C   UNL     1      16.528  12.471  58.902  0.00  0.00    +0.000 C 
ATOM     11  C   UNL     1      17.940  12.434  59.175  0.00  0.00    +0.000 C 
ATOM     12  O   UNL     1      18.648  13.348  58.777  0.00  0.00    +0.000 OA
ENDROOT
BRANCH   9  13
ATOM     13  C   UNL     1      10.495  13.092  62.443  0.00  0.00    +0.000 A 
ATOM     14  C   UNL     1      11.359  14.175  62.626  0.00  0.00    +0.000 A 
ATOM     15  C   UNL     1      11.180  15.060  63.688  0.00  0.00    +0.000 A 
ATOM     16  C   UNL     1      10.131  14.870  64.581  0.00  0.00    +0.000 A 
ATOM     17  C   UNL     1       9.262  13.796  64.414  0.00  0.00    +0.000 A 
ATOM     18  C   UNL     1       9.447  12.914  63.350  0.00  0.00    +0.000 A 
ENDBRANCH   9  13
BRANCH  11  19
ATOM     19  C   UNL     1      18.484  11.284  59.916  0.00  0.00    +0.000 A 
ATOM     20  C   UNL     1      19.845  11.188  60.206  0.00  0.00    +0.000 A 
ATOM     21  C   UNL     1      20.328  10.091  60.915  0.00  0.00    +0.000 A 
ATOM     22  C   UNL     1      19.452   9.092  61.335  0.00  0.00    +0.000 A 
ATOM     23  C   UNL     1      18.092   9.190  61.048  0.00  0.00    +0.000 A 
ATOM     24  C   UNL     1      17.606  10.286  60.340  0.00  0.00    +0.000 A 
ENDBRANCH  11  19
BRANCH   9  25
ATOM     25  O   UNL     1       9.807  11.106  61.245  0.00  0.00    +0.000 OA
ATOM     26  H   UNL     1      10.058  10.481  60.544  0.00  0.00    +0.000 HD
ENDBRANCH   9  25
TORSDOF 3
ENDMDL
MODEL 4
REMARK VINA RESULT:      -4.6      2.791      3.639
REMARK  Name = Lobelin.pdbqt.pdb
REMARK  3 active torsions:
REMARK  status: ('A' for Active; 'I' for Inactive)
REMARK    1  A    between atoms: C_9  and  O_10
REMARK    2  A    between atoms: C_9  and  C_12
REMARK    3  A    between atoms: C_19  and  C_21
REMARK                            x       y       z     vdW  Elec       q    Type
REMARK                         _______ _______ _______ _____ _____    ______ ____
ROOT
ATOM      1  N   UNL     1       6.775   7.966  60.342  0.00  0.00    +0.000 N 
ATOM      2  C   UNL     1       5.883   6.861  60.676  0.00  0.00    +0.000 C 
ATOM      3  C   UNL     1       6.754   9.191  61.136  0.00  0.00    +0.000 C 
ATOM      4  C   UNL     1       5.064   7.079  61.826  0.00  0.00    +0.000 C 
ATOM      5  C   UNL     1       5.845   9.173  62.239  0.00  0.00    +0.000 C 
ATOM      6  C   UNL     1       4.845   8.198  62.829  0.00  0.00    +0.000 C 
ATOM      7  C   UNL     1       7.592   7.901  59.150  0.00  0.00    +0.000 C 
ATOM      8  C   UNL     1       5.841   5.656  59.923  0.00  0.00    +0.000 C 
ATOM      9  C   UNL     1       5.823   4.447  59.182  0.00  0.00    +0.000 C 
ATOM     10  C   UNL     1       7.581  10.303  60.838  0.00  0.00    +0.000 C 
ATOM     11  C   UNL     1       8.445  11.419  60.555  0.00  0.00    +0.000 C 
ATOM     12  O   UNL     1       9.141  11.876  61.450  0.00  0.00    +0.000 OA
ENDROOT
BRANCH   9  13
ATOM     13  C   UNL     1       6.963   3.537  59.062  0.00  0.00    +0.000 A 
ATOM     14  C   UNL     1       6.987   2.324  59.755  0.00  0.00    +0.000 A 
ATOM     15  C   UNL     1       8.072   1.457  59.641  0.00  0.00    +0.000 A 
ATOM     16  C   UNL     1       9.150   1.796  58.829  0.00  0.00    +0.000 A 
ATOM     17  C   UNL     1       9.142   3.001  58.133  0.00  0.00    +0.000 A 
ATOM     18  C   UNL     1       8.054   3.864  58.251  0.00  0.00    +0.000 A 
ENDBRANCH   9  13
BRANCH  11  19
ATOM     19  C   UNL     1       8.447  11.979  59.193  0.00  0.00    +0.000 A 
ATOM     20  C   UNL     1       7.310  11.926  58.387  0.00  0.00    +0.000 A 
ATOM     21  C   UNL     1       7.341  12.470  57.106  0.00  0.00    +0.000 A 
ATOM     22  C   UNL     1       8.507  13.067  56.631  0.00  0.00    +0.000 A 
ATOM     23  C   UNL     1       9.642  13.123  57.438  0.00  0.00    +0.000 A 
ATOM     24  C   UNL     1       9.613  12.580  58.720  0.00  0.00    +0.000 A 
ENDBRANCH  11  19
BRANCH   9  25
ATOM     25  O   UNL     1       4.666   4.082  58.530  0.00  0.00    +0.000 OA
ATOM     26  H   UNL     1       3.925   4.672  58.750  0.00  0.00    +0.000 HD
ENDBRANCH   9  25
TORSDOF 3
ENDMDL
MODEL 5
REMARK VINA RESULT:      -4.5      7.225     11.131
REMARK  Name = Lobelin.pdbqt.pdb
REMARK  3 active torsions:
REMARK  status: ('A' for Active; 'I' for Inactive)
REMARK    1  A    between atoms: C_9  and  O_10
REMARK    2  A    between atoms: C_9  and  C_12
REMARK    3  A    between atoms: C_19  and  C_21
REMARK                            x       y       z     vdW  Elec       q    Type
REMARK                         _______ _______ _______ _____ _____    ______ ____
ROOT
ATOM      1  N   UNL     1      13.509  12.554  57.541  0.00  0.00    +0.000 N 
ATOM      2  C   UNL     1      12.169  12.741  58.087  0.00  0.00    +0.000 C 
ATOM      3  C   UNL     1      13.724  12.592  56.098  0.00  0.00    +0.000 C 
ATOM      4  C   UNL     1      11.156  12.993  57.112  0.00  0.00    +0.000 C 
ATOM      5  C   UNL     1      12.553  12.858  55.325  0.00  0.00    +0.000 C 
ATOM      6  C   UNL     1      11.083  13.109  55.601  0.00  0.00    +0.000 C 
ATOM      7  C   UNL     1      14.605  12.207  58.419  0.00  0.00    +0.000 C 
ATOM      8  C   UNL     1      11.896  12.688  59.481  0.00  0.00    +0.000 C 
ATOM      9  C   UNL     1      11.635  12.658  60.875  0.00  0.00    +0.000 C 
ATOM     10  C   UNL     1      15.001  12.390  55.515  0.00  0.00    +0.000 C 
ATOM     11  C   UNL     1      16.303  12.219  54.927  0.00  0.00    +0.000 C 
ATOM     12  O   UNL     1      16.718  13.059  54.141  0.00  0.00    +0.000 OA
ENDROOT
BRANCH   9  13
ATOM     13  C   UNL     1      12.198  13.605  61.838  0.00  0.00    +0.000 A 
ATOM     14  C   UNL     1      11.365  14.389  62.642  0.00  0.00    +0.000 A 
ATOM     15  C   UNL     1      11.901  15.291  63.560  0.00  0.00    +0.000 A 
ATOM     16  C   UNL     1      13.281  15.419  63.684  0.00  0.00    +0.000 A 
ATOM     17  C   UNL     1      14.123  14.647  62.890  0.00  0.00    +0.000 A 
ATOM     18  C   UNL     1      13.582  13.747  61.973  0.00  0.00    +0.000 A 
ENDBRANCH   9  13
BRANCH  11  19
ATOM     19  C   UNL     1      17.087  11.025  55.287  0.00  0.00    +0.000 A 
ATOM     20  C   UNL     1      17.596  10.855  56.574  0.00  0.00    +0.000 A 
ATOM     21  C   UNL     1      18.327   9.712  56.886  0.00  0.00    +0.000 A 
ATOM     22  C   UNL     1      18.548   8.739  55.914  0.00  0.00    +0.000 A 
ATOM     23  C   UNL     1      18.036   8.908  54.628  0.00  0.00    +0.000 A 
ATOM     24  C   UNL     1      17.304  10.050  54.314  0.00  0.00    +0.000 A 
ENDBRANCH  11  19
BRANCH   9  25
ATOM     25  O   UNL     1      10.796  11.689  61.375  0.00  0.00    +0.000 OA
ATOM     26  H   UNL     1      11.247  11.111  62.013  0.00  0.00    +0.000 HD
ENDBRANCH   9  25
TORSDOF 3
ENDMDL
MODEL 6
REMARK VINA RESULT:      -4.5     13.487     15.073
REMARK  Name = Lobelin.pdbqt.pdb
REMARK  3 active torsions:
REMARK  status: ('A' for Active; 'I' for Inactive)
REMARK    1  A    between atoms: C_9  and  O_10
REMARK    2  A    between atoms: C_9  and  C_12
REMARK    3  A    between atoms: C_19  and  C_21
REMARK                            x       y       z     vdW  Elec       q    Type
REMARK                         _______ _______ _______ _____ _____    ______ ____
ROOT
ATOM      1  N   UNL     1      17.596   1.553  53.041  0.00  0.00    +0.000 N 
ATOM      2  C   UNL     1      16.876   0.508  53.761  0.00  0.00    +0.000 C 
ATOM      3  C   UNL     1      18.984   1.854  53.382  0.00  0.00    +0.000 C 
ATOM      4  C   UNL     1      17.647  -0.179  54.749  0.00  0.00    +0.000 C 
ATOM      5  C   UNL     1      19.540   1.032  54.409  0.00  0.00    +0.000 C 
ATOM      6  C   UNL     1      19.063  -0.107  55.290  0.00  0.00    +0.000 C 
ATOM      7  C   UNL     1      16.902   2.378  52.078  0.00  0.00    +0.000 C 
ATOM      8  C   UNL     1      15.518   0.190  53.492  0.00  0.00    +0.000 C 
ATOM      9  C   UNL     1      14.169  -0.139  53.200  0.00  0.00    +0.000 C 
ATOM     10  C   UNL     1      19.720   2.877  52.731  0.00  0.00    +0.000 C 
ATOM     11  C   UNL     1      20.477   3.892  52.048  0.00  0.00    +0.000 C 
ATOM     12  O   UNL     1      21.563   3.604  51.565  0.00  0.00    +0.000 OA
ENDROOT
BRANCH   9  13
ATOM     13  C   UNL     1      13.708  -0.659  51.912  0.00  0.00    +0.000 A 
ATOM     14  C   UNL     1      13.578   0.185  50.805  0.00  0.00    +0.000 A 
ATOM     15  C   UNL     1      13.140  -0.309  49.577  0.00  0.00    +0.000 A 
ATOM     16  C   UNL     1      12.827  -1.658  49.443  0.00  0.00    +0.000 A 
ATOM     17  C   UNL     1      12.950  -2.511  50.536  0.00  0.00    +0.000 A 
ATOM     18  C   UNL     1      13.388  -2.011  51.761  0.00  0.00    +0.000 A 
ENDBRANCH   9  13
BRANCH  11  19
ATOM     19  C   UNL     1      19.916   5.252  51.966  0.00  0.00    +0.000 A 
ATOM     20  C   UNL     1      20.606   6.351  52.478  0.00  0.00    +0.000 A 
ATOM     21  C   UNL     1      20.053   7.625  52.379  0.00  0.00    +0.000 A 
ATOM     22  C   UNL     1      18.813   7.801  51.769  0.00  0.00    +0.000 A 
ATOM     23  C   UNL     1      18.126   6.703  51.255  0.00  0.00    +0.000 A 
ATOM     24  C   UNL     1      18.677   5.428  51.352  0.00  0.00    +0.000 A 
ENDBRANCH  11  19
BRANCH   9  25
ATOM     25  O   UNL     1      13.216   0.027  54.179  0.00  0.00    +0.000 OA
ATOM     26  H   UNL     1      12.315  -0.079  53.831  0.00  0.00    +0.000 HD
ENDBRANCH   9  25
TORSDOF 3
ENDMDL
MODEL 7
REMARK VINA RESULT:      -4.4      9.045     10.965
REMARK  Name = Lobelin.pdbqt.pdb
REMARK  3 active torsions:
REMARK  status: ('A' for Active; 'I' for Inactive)
REMARK    1  A    between atoms: C_9  and  O_10
REMARK    2  A    between atoms: C_9  and  C_12
REMARK    3  A    between atoms: C_19  and  C_21
REMARK                            x       y       z     vdW  Elec       q    Type
REMARK                         _______ _______ _______ _____ _____    ______ ____
ROOT
ATOM      1  N   UNL     1      16.933  11.152  59.509  0.00  0.00    +0.000 N 
ATOM      2  C   UNL     1      17.830  10.163  58.922  0.00  0.00    +0.000 C 
ATOM      3  C   UNL     1      16.771  11.227  60.958  0.00  0.00    +0.000 C 
ATOM      4  C   UNL     1      18.527   9.350  59.869  0.00  0.00    +0.000 C 
ATOM      5  C   UNL     1      17.574  10.306  61.698  0.00  0.00    +0.000 C 
ATOM      6  C   UNL     1      18.580   9.216  61.380  0.00  0.00    +0.000 C 
ATOM      7  C   UNL     1      16.107  11.976  58.654  0.00  0.00    +0.000 C 
ATOM      8  C   UNL     1      18.007  10.025  57.519  0.00  0.00    +0.000 C 
ATOM      9  C   UNL     1      18.196   9.911  56.117  0.00  0.00    +0.000 C 
ATOM     10  C   UNL     1      15.893  12.153  61.577  0.00  0.00    +0.000 C 
ATOM     11  C   UNL     1      15.027  13.115  62.206  0.00  0.00    +0.000 C 
ATOM     12  O   UNL     1      15.476  13.836  63.084  0.00  0.00    +0.000 OA
ENDROOT
BRANCH   9  13
ATOM     13  C   UNL     1      18.753  10.969  55.273  0.00  0.00    +0.000 A 
ATOM     14  C   UNL     1      19.820  10.708  54.408  0.00  0.00    +0.000 A 
ATOM     15  C   UNL     1      20.351  11.715  53.603  0.00  0.00    +0.000 A 
ATOM     16  C   UNL     1      19.818  12.999  53.656  0.00  0.00    +0.000 A 
ATOM     17  C   UNL     1      18.757  13.276  54.513  0.00  0.00    +0.000 A 
ATOM     18  C   UNL     1      18.231  12.265  55.315  0.00  0.00    +0.000 A 
ENDBRANCH   9  13
BRANCH  11  19
ATOM     19  C   UNL     1      13.621  13.184  61.772  0.00  0.00    +0.000 A 
ATOM     20  C   UNL     1      13.135  12.359  60.758  0.00  0.00    +0.000 A 
ATOM     21  C   UNL     1      11.799  12.443  60.375  0.00  0.00    +0.000 A 
ATOM     22  C   UNL     1      10.950  13.351  61.004  0.00  0.00    +0.000 A 
ATOM     23  C   UNL     1      11.435  14.173  62.019  0.00  0.00    +0.000 A 
ATOM     24  C   UNL     1      12.770  14.091  62.405  0.00  0.00    +0.000 A 
ENDBRANCH  11  19
BRANCH   9  25
ATOM     25  O   UNL     1      17.847   8.736  55.491  0.00  0.00    +0.000 OA
ATOM     26  H   UNL     1      17.144   8.870  54.834  0.00  0.00    +0.000 HD
ENDBRANCH   9  25
TORSDOF 3
ENDMDL
MODEL 8
REMARK VINA RESULT:      -4.3     10.967     14.317
REMARK  Name = Lobelin.pdbqt.pdb
REMARK  3 active torsions:
REMARK  status: ('A' for Active; 'I' for Inactive)
REMARK    1  A    between atoms: C_9  and  O_10
REMARK    2  A    between atoms: C_9  and  C_12
REMARK    3  A    between atoms: C_19  and  C_21
REMARK                            x       y       z     vdW  Elec       q    Type
REMARK                         _______ _______ _______ _____ _____    ______ ____
ROOT
ATOM      1  N   UNL     1      13.945  -0.388  52.626  0.00  0.00    +0.000 N 
ATOM      2  C   UNL     1      14.838   0.200  51.634  0.00  0.00    +0.000 C 
ATOM      3  C   UNL     1      12.888  -1.305  52.208  0.00  0.00    +0.000 C 
ATOM      4  C   UNL     1      14.606  -0.228  50.291  0.00  0.00    +0.000 C 
ATOM      5  C   UNL     1      12.853  -1.580  50.807  0.00  0.00    +0.000 C 
ATOM      6  C   UNL     1      13.635  -1.153  49.579  0.00  0.00    +0.000 C 
ATOM      7  C   UNL     1      14.022   0.031  54.008  0.00  0.00    +0.000 C 
ATOM      8  C   UNL     1      15.866   1.119  51.978  0.00  0.00    +0.000 C 
ATOM      9  C   UNL     1      16.907   2.016  52.333  0.00  0.00    +0.000 C 
ATOM     10  C   UNL     1      11.978  -1.884  53.128  0.00  0.00    +0.000 C 
ATOM     11  C   UNL     1      11.075  -2.496  54.067  0.00  0.00    +0.000 C 
ATOM     12  O   UNL     1      10.944  -3.712  54.062  0.00  0.00    +0.000 OA
ENDROOT
BRANCH   9  13
ATOM     13  C   UNL     1      18.037   1.666  53.196  0.00  0.00    +0.000 A 
ATOM     14  C   UNL     1      19.275   2.295  53.042  0.00  0.00    +0.000 A 
ATOM     15  C   UNL     1      20.352   1.963  53.864  0.00  0.00    +0.000 A 
ATOM     16  C   UNL     1      20.199   0.995  54.851  0.00  0.00    +0.000 A 
ATOM     17  C   UNL     1      18.973   0.359  55.016  0.00  0.00    +0.000 A 
ATOM     18  C   UNL     1      17.900   0.694  54.191  0.00  0.00    +0.000 A 
ENDBRANCH   9  13
BRANCH  11  19
ATOM     19  C   UNL     1      10.330  -1.629  54.996  0.00  0.00    +0.000 A 
ATOM     20  C   UNL     1      10.381  -1.833  56.375  0.00  0.00    +0.000 A 
ATOM     21  C   UNL     1       9.671  -0.992  57.228  0.00  0.00    +0.000 A 
ATOM     22  C   UNL     1       8.914   0.053  56.704  0.00  0.00    +0.000 A 
ATOM     23  C   UNL     1       8.866   0.259  55.326  0.00  0.00    +0.000 A 
ATOM     24  C   UNL     1       9.575  -0.580  54.471  0.00  0.00    +0.000 A 
ENDBRANCH  11  19
BRANCH   9  25
ATOM     25  O   UNL     1      16.876   3.300  51.840  0.00  0.00    +0.000 OA
ATOM     26  H   UNL     1      16.628   3.323  50.901  0.00  0.00    +0.000 HD
ENDBRANCH   9  25
TORSDOF 3
ENDMDL
MODEL 9
REMARK VINA RESULT:      -4.2      8.419      9.922
REMARK  Name = Lobelin.pdbqt.pdb
REMARK  3 active torsions:
REMARK  status: ('A' for Active; 'I' for Inactive)
REMARK    1  A    between atoms: C_9  and  O_10
REMARK    2  A    between atoms: C_9  and  C_12
REMARK    3  A    between atoms: C_19  and  C_21
REMARK                            x       y       z     vdW  Elec       q    Type
REMARK                         _______ _______ _______ _____ _____    ______ ____
ROOT
ATOM      1  N   UNL     1       1.739   7.236  66.697  0.00  0.00    +0.000 N 
ATOM      2  C   UNL     1       2.110   6.792  65.357  0.00  0.00    +0.000 C 
ATOM      3  C   UNL     1       1.602   8.661  66.985  0.00  0.00    +0.000 C 
ATOM      4  C   UNL     1       2.273   7.842  64.402  0.00  0.00    +0.000 C 
ATOM      5  C   UNL     1       1.818   9.521  65.865  0.00  0.00    +0.000 C 
ATOM      6  C   UNL     1       2.179   9.357  64.401  0.00  0.00    +0.000 C 
ATOM      7  C   UNL     1       1.629   6.275  67.772  0.00  0.00    +0.000 C 
ATOM      8  C   UNL     1       2.284   5.421  65.026  0.00  0.00    +0.000 C 
ATOM      9  C   UNL     1       2.431   4.048  64.696  0.00  0.00    +0.000 C 
ATOM     10  C   UNL     1       1.269   9.146  68.275  0.00  0.00    +0.000 C 
ATOM     11  C   UNL     1       0.899   9.635  69.576  0.00  0.00    +0.000 C 
ATOM     12  O   UNL     1      -0.045  10.405  69.677  0.00  0.00    +0.000 OA
ENDROOT
BRANCH   9  13
ATOM     13  C   UNL     1       1.348   3.066  64.761  0.00  0.00    +0.000 A 
ATOM     14  C   UNL     1       1.612   1.700  64.622  0.00  0.00    +0.000 A 
ATOM     15  C   UNL     1       0.582   0.763  64.684  0.00  0.00    +0.000 A 
ATOM     16  C   UNL     1      -0.729   1.184  64.888  0.00  0.00    +0.000 A 
ATOM     17  C   UNL     1      -1.008   2.540  65.027  0.00  0.00    +0.000 A 
ATOM     18  C   UNL     1       0.026   3.473  64.964  0.00  0.00    +0.000 A 
ENDBRANCH   9  13
BRANCH  11  19
ATOM     19  C   UNL     1       1.684   9.197  70.743  0.00  0.00    +0.000 A 
ATOM     20  C   UNL     1       1.217   9.389  72.043  0.00  0.00    +0.000 A 
ATOM     21  C   UNL     1       1.979   8.957  73.125  0.00  0.00    +0.000 A 
ATOM     22  C   UNL     1       3.205   8.333  72.909  0.00  0.00    +0.000 A 
ATOM     23  C   UNL     1       3.670   8.138  71.609  0.00  0.00    +0.000 A 
ATOM     24  C   UNL     1       2.910   8.568  70.525  0.00  0.00    +0.000 A 
ENDBRANCH  11  19
BRANCH   9  25
ATOM     25  O   UNL     1       3.660   3.592  64.280  0.00  0.00    +0.000 OA
ATOM     26  H   UNL     1       4.168   4.283  63.822  0.00  0.00    +0.000 HD
ENDBRANCH   9  25
TORSDOF 3
ENDMDL
