REMARK  Name = Lobelin.pdbqt.pdb
REMARK  3 active torsions:
REMARK  status: ('A' for Active; 'I' for Inactive)
REMARK    1  A    between atoms: C_9  and  O_10
REMARK    2  A    between atoms: C_9  and  C_12
REMARK    3  A    between atoms: C_19  and  C_21
REMARK                            x       y       z     vdW  Elec       q    Type
REMARK                         _______ _______ _______ _____ _____    ______ ____
ROOT
ATOM      1  N   UNL     1       0.112  -0.889   0.096  0.00  0.00    +0.000 N 
ATOM      2  C   UNL     1       1.405  -1.386  -0.362  0.00  0.00    +0.000 C 
ATOM      3  C   UNL     1      -0.866  -1.810   0.668  0.00  0.00    +0.000 C 
ATOM      4  C   UNL     1       1.614  -2.785  -0.161  0.00  0.00    +0.000 C 
ATOM      5  C   UNL     1      -0.427  -3.166   0.763  0.00  0.00    +0.000 C 
ATOM      6  C   UNL     1       0.822  -3.949   0.406  0.00  0.00    +0.000 C 
ATOM      7  C   UNL     1      -0.253   0.492  -0.130  0.00  0.00    +0.000 C 
ATOM      8  C   UNL     1       2.385  -0.542  -0.951  0.00  0.00    +0.000 C 
ATOM      9  C   UNL     1       3.368   0.312  -1.515  0.00  0.00    +0.000 C 
ATOM     10  C   UNL     1      -2.146  -1.383   1.104  0.00  0.00    +0.000 C 
ATOM     11  C   UNL     1      -3.432  -0.943   1.577  0.00  0.00    +0.000 C 
ATOM     12  O   UNL     1      -3.780  -1.231   2.713  0.00  0.00    +0.000 OA
ENDROOT
BRANCH   9  13
ATOM     13  C   UNL     1       4.006   1.418  -0.800  0.00  0.00    +0.000 A 
ATOM     14  C   UNL     1       4.967   2.216  -1.427  0.00  0.00    +0.000 A 
ATOM     15  C   UNL     1       5.575   3.270  -0.747  0.00  0.00    +0.000 A 
ATOM     16  C   UNL     1       5.226   3.538   0.573  0.00  0.00    +0.000 A 
ATOM     17  C   UNL     1       4.272   2.752   1.212  0.00  0.00    +0.000 A 
ATOM     18  C   UNL     1       3.668   1.699   0.527  0.00  0.00    +0.000 A 
ENDBRANCH   9  13
BRANCH  11  19
ATOM     19  C   UNL     1      -4.290  -0.168   0.664  0.00  0.00    +0.000 A 
ATOM     20  C   UNL     1      -3.903   0.085  -0.652  0.00  0.00    +0.000 A 
ATOM     21  C   UNL     1      -4.739   0.815  -1.493  0.00  0.00    +0.000 A 
ATOM     22  C   UNL     1      -5.960   1.290  -1.020  0.00  0.00    +0.000 A 
ATOM     23  C   UNL     1      -6.348   1.034   0.294  0.00  0.00    +0.000 A 
ATOM     24  C   UNL     1      -5.514   0.304   1.137  0.00  0.00    +0.000 A 
ENDBRANCH  11  19
BRANCH   9  25
ATOM     25  O   UNL     1       3.767   0.100  -2.815  0.00  0.00    +0.000 OA
ATOM     26  H   UNL     1       3.283  -0.635  -3.228  0.00  0.00    +0.000 HD
ENDBRANCH   9  25
TORSDOF 3
