MODEL 1
REMARK VINA RESULT:      -4.3      0.000      0.000
REMARK  Name = LUCANTHONE.pdbqt.pdb
REMARK  5 active torsions:
REMARK  status: ('A' for Active; 'I' for Inactive)
REMARK    1  A    between atoms: C_3  and  N_17
REMARK    2  A    between atoms: N_17  and  C_19
REMARK    3  A    between atoms: C_20  and  N_21
REMARK    4  A    between atoms: N_21  and  C_22
REMARK    5  A    between atoms: N_21  and  C_24
REMARK                            x       y       z     vdW  Elec       q    Type
REMARK                         _______ _______ _______ _____ _____    ______ ____
ROOT
ATOM      1  S   UNL     1      16.544  -0.107  53.475  0.00  0.00    +0.000 S 
ATOM      2  O   UNL     1      18.642  -1.606  56.961  0.00  0.00    +0.000 OA
ATOM      3  C   UNL     1      15.868  -1.921  57.127  0.00  0.00    +0.000 A 
ATOM      4  C   UNL     1      16.504  -1.262  56.038  0.00  0.00    +0.000 A 
ATOM      5  C   UNL     1      15.770  -0.894  54.890  0.00  0.00    +0.000 A 
ATOM      6  C   UNL     1      14.387  -1.190  54.857  0.00  0.00    +0.000 A 
ATOM      7  C   UNL     1      17.967  -0.990  56.137  0.00  0.00    +0.000 A 
ATOM      8  C   UNL     1      14.492  -2.164  57.053  0.00  0.00    +0.000 A 
ATOM      9  C   UNL     1      18.634   0.017  55.300  0.00  0.00    +0.000 A 
ATOM     10  C   UNL     1      13.761  -1.818  55.929  0.00  0.00    +0.000 A 
ATOM     11  C   UNL     1      18.068   0.488  54.125  0.00  0.00    +0.000 A 
ATOM     12  C   UNL     1      13.486  -0.851  53.689  0.00  0.00    +0.000 C 
ATOM     13  C   UNL     1      19.882   0.489  55.721  0.00  0.00    +0.000 A 
ATOM     14  C   UNL     1      18.761   1.442  53.376  0.00  0.00    +0.000 A 
ATOM     15  C   UNL     1      20.562   1.444  54.972  0.00  0.00    +0.000 A 
ATOM     16  C   UNL     1      19.998   1.925  53.796  0.00  0.00    +0.000 A 
ENDROOT
BRANCH   3  17
ATOM     17  N   UNL     1      16.551  -2.188  58.343  0.00  0.00    +0.000 N 
ATOM     18  H   UNL     1      16.701  -3.200  58.473  0.00  0.00    +0.000 HD
BRANCH  17  19
ATOM     19  C   UNL     1      16.220  -1.424  59.533  0.00  0.00    +0.000 C 
ATOM     20  C   UNL     1      15.872  -0.619  60.789  0.00  0.00    +0.000 C 
BRANCH  20  21
ATOM     21  N   UNL     1      15.548   0.138  61.988  0.00  0.00    +0.000 N 
BRANCH  21  22
ATOM     22  C   UNL     1      16.757   0.220  62.787  0.00  0.00    +0.000 C 
ATOM     23  C   UNL     1      18.041   0.308  63.617  0.00  0.00    +0.000 C 
ENDBRANCH  21  22
BRANCH  21  24
ATOM     24  C   UNL     1      14.604  -0.656  62.751  0.00  0.00    +0.000 C 
ATOM     25  C   UNL     1      13.615  -1.487  63.575  0.00  0.00    +0.000 C 
ENDBRANCH  21  24
ENDBRANCH  20  21
ENDBRANCH  17  19
ENDBRANCH   3  17
TORSDOF 5
ENDMDL
MODEL 2
REMARK VINA RESULT:      -4.1      1.199      2.111
REMARK  Name = LUCANTHONE.pdbqt.pdb
REMARK  5 active torsions:
REMARK  status: ('A' for Active; 'I' for Inactive)
REMARK    1  A    between atoms: C_3  and  N_17
REMARK    2  A    between atoms: N_17  and  C_19
REMARK    3  A    between atoms: C_20  and  N_21
REMARK    4  A    between atoms: N_21  and  C_22
REMARK    5  A    between atoms: N_21  and  C_24
REMARK                            x       y       z     vdW  Elec       q    Type
REMARK                         _______ _______ _______ _____ _____    ______ ____
ROOT
ATOM      1  S   UNL     1      16.371  -0.431  53.962  0.00  0.00    +0.000 S 
ATOM      2  O   UNL     1      19.733  -0.985  56.643  0.00  0.00    +0.000 OA
ATOM      3  C   UNL     1      17.296  -1.794  57.752  0.00  0.00    +0.000 A 
ATOM      4  C   UNL     1      17.394  -1.190  56.467  0.00  0.00    +0.000 A 
ATOM      5  C   UNL     1      16.277  -1.139  55.608  0.00  0.00    +0.000 A 
ATOM      6  C   UNL     1      15.056  -1.694  56.062  0.00  0.00    +0.000 A 
ATOM      7  C   UNL     1      18.714  -0.634  56.050  0.00  0.00    +0.000 A 
ATOM      8  C   UNL     1      16.058  -2.303  58.161  0.00  0.00    +0.000 A 
ATOM      9  C   UNL     1      18.840   0.350  54.966  0.00  0.00    +0.000 A 
ATOM     10  C   UNL     1      14.955  -2.268  57.325  0.00  0.00    +0.000 A 
ATOM     11  C   UNL     1      17.845   0.530  54.017  0.00  0.00    +0.000 A 
ATOM     12  C   UNL     1      13.785  -1.704  55.242  0.00  0.00    +0.000 C 
ATOM     13  C   UNL     1      20.016   1.106  54.908  0.00  0.00    +0.000 A 
ATOM     14  C   UNL     1      18.035   1.480  53.011  0.00  0.00    +0.000 A 
ATOM     15  C   UNL     1      20.194   2.055  53.907  0.00  0.00    +0.000 A 
ATOM     16  C   UNL     1      19.198   2.246  52.955  0.00  0.00    +0.000 A 
ENDROOT
BRANCH   3  17
ATOM     17  N   UNL     1      18.365  -1.749  58.685  0.00  0.00    +0.000 N 
ATOM     18  H   UNL     1      19.033  -2.519  58.527  0.00  0.00    +0.000 HD
BRANCH  17  19
ATOM     19  C   UNL     1      18.094  -1.401  60.069  0.00  0.00    +0.000 C 
ATOM     20  C   UNL     1      17.810  -1.035  61.529  0.00  0.00    +0.000 C 
BRANCH  20  21
ATOM     21  N   UNL     1      17.546  -0.696  62.919  0.00  0.00    +0.000 N 
BRANCH  21  22
ATOM     22  C   UNL     1      16.105  -0.653  63.086  0.00  0.00    +0.000 C 
ATOM     23  C   UNL     1      14.583  -0.620  63.254  0.00  0.00    +0.000 C 
ENDBRANCH  21  22
BRANCH  21  24
ATOM     24  C   UNL     1      18.024   0.658  63.126  0.00  0.00    +0.000 C 
ATOM     25  C   UNL     1      18.529   2.084  63.366  0.00  0.00    +0.000 C 
ENDBRANCH  21  24
ENDBRANCH  20  21
ENDBRANCH  17  19
ENDBRANCH   3  17
TORSDOF 5
ENDMDL
MODEL 3
REMARK VINA RESULT:      -4.0     17.183     20.588
REMARK  Name = LUCANTHONE.pdbqt.pdb
REMARK  5 active torsions:
REMARK  status: ('A' for Active; 'I' for Inactive)
REMARK    1  A    between atoms: C_3  and  N_17
REMARK    2  A    between atoms: N_17  and  C_19
REMARK    3  A    between atoms: C_20  and  N_21
REMARK    4  A    between atoms: N_21  and  C_22
REMARK    5  A    between atoms: N_21  and  C_24
REMARK                            x       y       z     vdW  Elec       q    Type
REMARK                         _______ _______ _______ _____ _____    ______ ____
ROOT
ATOM      1  S   UNL     1      11.672   0.969  74.635  0.00  0.00    +0.000 S 
ATOM      2  O   UNL     1      11.767   4.918  76.423  0.00  0.00    +0.000 OA
ATOM      3  C   UNL     1       9.335   3.593  76.811  0.00  0.00    +0.000 A 
ATOM      4  C   UNL     1      10.395   3.045  76.035  0.00  0.00    +0.000 A 
ATOM      5  C   UNL     1      10.336   1.713  75.573  0.00  0.00    +0.000 A 
ATOM      6  C   UNL     1       9.193   0.943  75.893  0.00  0.00    +0.000 A 
ATOM      7  C   UNL     1      11.575   3.910  75.743  0.00  0.00    +0.000 A 
ATOM      8  C   UNL     1       8.216   2.796  77.074  0.00  0.00    +0.000 A 
ATOM      9  C   UNL     1      12.506   3.619  74.645  0.00  0.00    +0.000 A 
ATOM     10  C   UNL     1       8.148   1.484  76.635  0.00  0.00    +0.000 A 
ATOM     11  C   UNL     1      12.598   2.358  74.074  0.00  0.00    +0.000 A 
ATOM     12  C   UNL     1       9.004  -0.494  75.460  0.00  0.00    +0.000 C 
ATOM     13  C   UNL     1      13.322   4.660  74.191  0.00  0.00    +0.000 A 
ATOM     14  C   UNL     1      13.510   2.151  73.037  0.00  0.00    +0.000 A 
ATOM     15  C   UNL     1      14.224   4.447  73.153  0.00  0.00    +0.000 A 
ATOM     16  C   UNL     1      14.316   3.187  72.571  0.00  0.00    +0.000 A 
ENDROOT
BRANCH   3  17
ATOM     17  N   UNL     1       9.309   4.963  77.181  0.00  0.00    +0.000 N 
ATOM     18  H   UNL     1       9.896   5.138  78.011  0.00  0.00    +0.000 HD
BRANCH  17  19
ATOM     19  C   UNL     1       8.061   5.702  77.103  0.00  0.00    +0.000 C 
ATOM     20  C   UNL     1       6.743   6.480  77.021  0.00  0.00    +0.000 C 
BRANCH  20  21
ATOM     21  N   UNL     1       5.489   7.211  76.936  0.00  0.00    +0.000 N 
BRANCH  21  22
ATOM     22  C   UNL     1       4.641   6.503  75.994  0.00  0.00    +0.000 C 
ATOM     23  C   UNL     1       3.759   5.750  74.995  0.00  0.00    +0.000 C 
ENDBRANCH  21  22
BRANCH  21  24
ATOM     24  C   UNL     1       5.785   8.498  76.337  0.00  0.00    +0.000 C 
ATOM     25  C   UNL     1       6.097   9.866  75.724  0.00  0.00    +0.000 C 
ENDBRANCH  21  24
ENDBRANCH  20  21
ENDBRANCH  17  19
ENDBRANCH   3  17
TORSDOF 5
ENDMDL
MODEL 4
REMARK VINA RESULT:      -3.9      2.874      5.275
REMARK  Name = LUCANTHONE.pdbqt.pdb
REMARK  5 active torsions:
REMARK  status: ('A' for Active; 'I' for Inactive)
REMARK    1  A    between atoms: C_3  and  N_17
REMARK    2  A    between atoms: N_17  and  C_19
REMARK    3  A    between atoms: C_20  and  N_21
REMARK    4  A    between atoms: N_21  and  C_22
REMARK    5  A    between atoms: N_21  and  C_24
REMARK                            x       y       z     vdW  Elec       q    Type
REMARK                         _______ _______ _______ _____ _____    ______ ____
ROOT
ATOM      1  S   UNL     1      18.430   3.241  51.848  0.00  0.00    +0.000 S 
ATOM      2  O   UNL     1      15.389   0.618  53.482  0.00  0.00    +0.000 OA
ATOM      3  C   UNL     1      17.915   0.212  54.612  0.00  0.00    +0.000 A 
ATOM      4  C   UNL     1      17.685   1.135  53.553  0.00  0.00    +0.000 A 
ATOM      5  C   UNL     1      18.696   2.029  53.144  0.00  0.00    +0.000 A 
ATOM      6  C   UNL     1      19.945   1.977  53.808  0.00  0.00    +0.000 A 
ATOM      7  C   UNL     1      16.341   1.141  52.905  0.00  0.00    +0.000 A 
ATOM      8  C   UNL     1      19.178   0.184  55.215  0.00  0.00    +0.000 A 
ATOM      9  C   UNL     1      16.117   1.727  51.576  0.00  0.00    +0.000 A 
ATOM     10  C   UNL     1      20.177   1.063  54.830  0.00  0.00    +0.000 A 
ATOM     11  C   UNL     1      17.000   2.639  51.017  0.00  0.00    +0.000 A 
ATOM     12  C   UNL     1      21.111   2.879  53.468  0.00  0.00    +0.000 C 
ATOM     13  C   UNL     1      14.963   1.345  50.883  0.00  0.00    +0.000 A 
ATOM     14  C   UNL     1      16.720   3.160  49.751  0.00  0.00    +0.000 A 
ATOM     15  C   UNL     1      14.696   1.864  49.620  0.00  0.00    +0.000 A 
ATOM     16  C   UNL     1      15.579   2.773  49.050  0.00  0.00    +0.000 A 
ENDROOT
BRANCH   3  17
ATOM     17  N   UNL     1      16.963  -0.782  54.959  0.00  0.00    +0.000 N 
ATOM     18  H   UNL     1      16.066  -0.627  54.476  0.00  0.00    +0.000 HD
BRANCH  17  19
ATOM     19  C   UNL     1      16.886  -1.251  56.333  0.00  0.00    +0.000 C 
ATOM     20  C   UNL     1      16.802  -1.745  57.781  0.00  0.00    +0.000 C 
BRANCH  20  21
ATOM     21  N   UNL     1      16.717  -2.204  59.157  0.00  0.00    +0.000 N 
BRANCH  21  22
ATOM     22  C   UNL     1      15.889  -1.254  59.878  0.00  0.00    +0.000 C 
ATOM     23  C   UNL     1      15.015  -0.261  60.650  0.00  0.00    +0.000 C 
ENDBRANCH  21  22
BRANCH  21  24
ATOM     24  C   UNL     1      18.048  -2.103  59.725  0.00  0.00    +0.000 C 
ATOM     25  C   UNL     1      19.448  -2.010  60.339  0.00  0.00    +0.000 C 
ENDBRANCH  21  24
ENDBRANCH  20  21
ENDBRANCH  17  19
ENDBRANCH   3  17
TORSDOF 5
ENDMDL
MODEL 5
REMARK VINA RESULT:      -3.9      4.314      8.530
REMARK  Name = LUCANTHONE.pdbqt.pdb
REMARK  5 active torsions:
REMARK  status: ('A' for Active; 'I' for Inactive)
REMARK    1  A    between atoms: C_3  and  N_17
REMARK    2  A    between atoms: N_17  and  C_19
REMARK    3  A    between atoms: C_20  and  N_21
REMARK    4  A    between atoms: N_21  and  C_22
REMARK    5  A    between atoms: N_21  and  C_24
REMARK                            x       y       z     vdW  Elec       q    Type
REMARK                         _______ _______ _______ _____ _____    ______ ____
ROOT
ATOM      1  S   UNL     1      17.650  -1.330  56.154  0.00  0.00    +0.000 S 
ATOM      2  O   UNL     1      16.586   0.378  52.313  0.00  0.00    +0.000 OA
ATOM      3  C   UNL     1      18.892   1.510  53.420  0.00  0.00    +0.000 A 
ATOM      4  C   UNL     1      18.114   0.530  54.098  0.00  0.00    +0.000 A 
ATOM      5  C   UNL     1      18.577  -0.056  55.295  0.00  0.00    +0.000 A 
ATOM      6  C   UNL     1      19.828   0.364  55.806  0.00  0.00    +0.000 A 
ATOM      7  C   UNL     1      16.809   0.128  53.497  0.00  0.00    +0.000 A 
ATOM      8  C   UNL     1      20.109   1.908  53.984  0.00  0.00    +0.000 A 
ATOM      9  C   UNL     1      15.758  -0.536  54.281  0.00  0.00    +0.000 A 
ATOM     10  C   UNL     1      20.580   1.336  55.153  0.00  0.00    +0.000 A 
ATOM     11  C   UNL     1      16.031  -1.179  55.480  0.00  0.00    +0.000 A 
ATOM     12  C   UNL     1      20.439  -0.182  57.077  0.00  0.00    +0.000 C 
ATOM     13  C   UNL     1      14.455  -0.513  53.773  0.00  0.00    +0.000 A 
ATOM     14  C   UNL     1      14.983  -1.793  56.170  0.00  0.00    +0.000 A 
ATOM     15  C   UNL     1      13.417  -1.122  54.471  0.00  0.00    +0.000 A 
ATOM     16  C   UNL     1      13.681  -1.763  55.676  0.00  0.00    +0.000 A 
ENDROOT
BRANCH   3  17
ATOM     17  N   UNL     1      18.396   2.206  52.286  0.00  0.00    +0.000 N 
ATOM     18  H   UNL     1      18.248   1.567  51.490  0.00  0.00    +0.000 HD
BRANCH  17  19
ATOM     19  C   UNL     1      18.921   3.524  51.969  0.00  0.00    +0.000 C 
ATOM     20  C   UNL     1      19.472   4.914  51.636  0.00  0.00    +0.000 C 
BRANCH  20  21
ATOM     21  N   UNL     1      19.984   6.236  51.317  0.00  0.00    +0.000 N 
BRANCH  21  22
ATOM     22  C   UNL     1      21.303   6.344  51.913  0.00  0.00    +0.000 C 
ATOM     23  C   UNL     1      22.692   6.444  52.551  0.00  0.00    +0.000 C 
ENDBRANCH  21  22
BRANCH  21  24
ATOM     24  C   UNL     1      19.143   7.197  52.004  0.00  0.00    +0.000 C 
ATOM     25  C   UNL     1      18.258   8.226  52.714  0.00  0.00    +0.000 C 
ENDBRANCH  21  24
ENDBRANCH  20  21
ENDBRANCH  17  19
ENDBRANCH   3  17
TORSDOF 5
ENDMDL
MODEL 6
REMARK VINA RESULT:      -3.9     18.585     21.632
REMARK  Name = LUCANTHONE.pdbqt.pdb
REMARK  5 active torsions:
REMARK  status: ('A' for Active; 'I' for Inactive)
REMARK    1  A    between atoms: C_3  and  N_17
REMARK    2  A    between atoms: N_17  and  C_19
REMARK    3  A    between atoms: C_20  and  N_21
REMARK    4  A    between atoms: N_21  and  C_22
REMARK    5  A    between atoms: N_21  and  C_24
REMARK                            x       y       z     vdW  Elec       q    Type
REMARK                         _______ _______ _______ _____ _____    ______ ____
ROOT
ATOM      1  S   UNL     1      10.677   1.116  75.576  0.00  0.00    +0.000 S 
ATOM      2  O   UNL     1      10.210   5.074  77.281  0.00  0.00    +0.000 OA
ATOM      3  C   UNL     1       7.840   3.588  77.284  0.00  0.00    +0.000 A 
ATOM      4  C   UNL     1       9.049   3.109  76.706  0.00  0.00    +0.000 A 
ATOM      5  C   UNL     1       9.156   1.773  76.265  0.00  0.00    +0.000 A 
ATOM      6  C   UNL     1       8.029   0.929  76.405  0.00  0.00    +0.000 A 
ATOM      7  C   UNL     1      10.200   4.051  76.598  0.00  0.00    +0.000 A 
ATOM      8  C   UNL     1       6.748   2.718  77.373  0.00  0.00    +0.000 A 
ATOM      9  C   UNL     1      11.320   3.816  75.676  0.00  0.00    +0.000 A 
ATOM     10  C   UNL     1       6.842   1.402  76.953  0.00  0.00    +0.000 A 
ATOM     11  C   UNL     1      11.589   2.561  75.151  0.00  0.00    +0.000 A 
ATOM     12  C   UNL     1       8.011  -0.521  75.973  0.00  0.00    +0.000 C 
ATOM     13  C   UNL     1      12.129   4.908  75.344  0.00  0.00    +0.000 A 
ATOM     14  C   UNL     1      12.673   2.409  74.284  0.00  0.00    +0.000 A 
ATOM     15  C   UNL     1      13.204   4.749  74.475  0.00  0.00    +0.000 A 
ATOM     16  C   UNL     1      13.476   3.495  73.940  0.00  0.00    +0.000 A 
ENDROOT
BRANCH   3  17
ATOM     17  N   UNL     1       7.662   4.956  77.620  0.00  0.00    +0.000 N 
ATOM     18  H   UNL     1       7.844   5.123  78.621  0.00  0.00    +0.000 HD
BRANCH  17  19
ATOM     19  C   UNL     1       6.563   5.701  77.029  0.00  0.00    +0.000 C 
ATOM     20  C   UNL     1       5.404   6.485  76.405  0.00  0.00    +0.000 C 
BRANCH  20  21
ATOM     21  N   UNL     1       4.305   7.223  75.803  0.00  0.00    +0.000 N 
BRANCH  21  22
ATOM     22  C   UNL     1       4.084   8.406  76.615  0.00  0.00    +0.000 C 
ATOM     23  C   UNL     1       3.857   9.647  77.483  0.00  0.00    +0.000 C 
ENDBRANCH  21  22
BRANCH  21  24
ATOM     24  C   UNL     1       3.116   6.403  75.939  0.00  0.00    +0.000 C 
ATOM     25  C   UNL     1       1.868   5.529  76.100  0.00  0.00    +0.000 C 
ENDBRANCH  21  24
ENDBRANCH  20  21
ENDBRANCH  17  19
ENDBRANCH   3  17
TORSDOF 5
ENDMDL
MODEL 7
REMARK VINA RESULT:      -3.9     12.998     14.423
REMARK  Name = LUCANTHONE.pdbqt.pdb
REMARK  5 active torsions:
REMARK  status: ('A' for Active; 'I' for Inactive)
REMARK    1  A    between atoms: C_3  and  N_17
REMARK    2  A    between atoms: N_17  and  C_19
REMARK    3  A    between atoms: C_20  and  N_21
REMARK    4  A    between atoms: N_21  and  C_22
REMARK    5  A    between atoms: N_21  and  C_24
REMARK                            x       y       z     vdW  Elec       q    Type
REMARK                         _______ _______ _______ _____ _____    ______ ____
ROOT
ATOM      1  S   UNL     1      10.007  13.588  57.431  0.00  0.00    +0.000 S 
ATOM      2  O   UNL     1      11.909  12.041  61.007  0.00  0.00    +0.000 OA
ATOM      3  C   UNL     1      13.701  12.458  58.900  0.00  0.00    +0.000 A 
ATOM      4  C   UNL     1      12.298  12.662  58.769  0.00  0.00    +0.000 A 
ATOM      5  C   UNL     1      11.763  13.267  57.613  0.00  0.00    +0.000 A 
ATOM      6  C   UNL     1      12.655  13.654  56.585  0.00  0.00    +0.000 A 
ATOM      7  C   UNL     1      11.417  12.238  59.896  0.00  0.00    +0.000 A 
ATOM      8  C   UNL     1      14.535  12.834  57.841  0.00  0.00    +0.000 A 
ATOM      9  C   UNL     1       9.975  12.016  59.720  0.00  0.00    +0.000 A 
ATOM     10  C   UNL     1      14.024  13.437  56.704  0.00  0.00    +0.000 A 
ATOM     11  C   UNL     1       9.275  12.548  58.647  0.00  0.00    +0.000 A 
ATOM     12  C   UNL     1      12.213  14.311  55.296  0.00  0.00    +0.000 C 
ATOM     13  C   UNL     1       9.313  11.252  60.687  0.00  0.00    +0.000 A 
ATOM     14  C   UNL     1       7.904  12.300  58.547  0.00  0.00    +0.000 A 
ATOM     15  C   UNL     1       7.948  11.005  60.575  0.00  0.00    +0.000 A 
ATOM     16  C   UNL     1       7.241  11.529  59.499  0.00  0.00    +0.000 A 
ENDROOT
BRANCH   3  17
ATOM     17  N   UNL     1      14.254  11.740  59.993  0.00  0.00    +0.000 N 
ATOM     18  H   UNL     1      13.875  12.075  60.891  0.00  0.00    +0.000 HD
BRANCH  17  19
ATOM     19  C   UNL     1      15.663  11.386  59.976  0.00  0.00    +0.000 C 
ATOM     20  C   UNL     1      17.149  11.011  59.958  0.00  0.00    +0.000 C 
BRANCH  20  21
ATOM     21  N   UNL     1      18.556  10.644  59.939  0.00  0.00    +0.000 N 
BRANCH  21  22
ATOM     22  C   UNL     1      18.805   9.954  58.687  0.00  0.00    +0.000 C 
ATOM     23  C   UNL     1      19.072   9.214  57.373  0.00  0.00    +0.000 C 
ENDBRANCH  21  22
BRANCH  21  24
ATOM     24  C   UNL     1      18.756   9.668  60.993  0.00  0.00    +0.000 C 
ATOM     25  C   UNL     1      18.984   8.648  62.113  0.00  0.00    +0.000 C 
ENDBRANCH  21  24
ENDBRANCH  20  21
ENDBRANCH  17  19
ENDBRANCH   3  17
TORSDOF 5
ENDMDL
MODEL 8
REMARK VINA RESULT:      -3.9      3.539      5.277
REMARK  Name = LUCANTHONE.pdbqt.pdb
REMARK  5 active torsions:
REMARK  status: ('A' for Active; 'I' for Inactive)
REMARK    1  A    between atoms: C_3  and  N_17
REMARK    2  A    between atoms: N_17  and  C_19
REMARK    3  A    between atoms: C_20  and  N_21
REMARK    4  A    between atoms: N_21  and  C_22
REMARK    5  A    between atoms: N_21  and  C_24
REMARK                            x       y       z     vdW  Elec       q    Type
REMARK                         _______ _______ _______ _____ _____    ______ ____
ROOT
ATOM      1  S   UNL     1      17.253   0.244  53.740  0.00  0.00    +0.000 S 
ATOM      2  O   UNL     1      21.398   1.385  54.295  0.00  0.00    +0.000 OA
ATOM      3  C   UNL     1      20.337  -0.004  56.479  0.00  0.00    +0.000 A 
ATOM      4  C   UNL     1      19.559   0.354  55.342  0.00  0.00    +0.000 A 
ATOM      5  C   UNL     1      18.248  -0.142  55.182  0.00  0.00    +0.000 A 
ATOM      6  C   UNL     1      17.727  -0.994  56.184  0.00  0.00    +0.000 A 
ATOM      7  C   UNL     1      20.176   1.248  54.320  0.00  0.00    +0.000 A 
ATOM      8  C   UNL     1      19.762  -0.827  57.453  0.00  0.00    +0.000 A 
ATOM      9  C   UNL     1      19.368   2.001  53.350  0.00  0.00    +0.000 A 
ATOM     10  C   UNL     1      18.480  -1.329  57.305  0.00  0.00    +0.000 A 
ATOM     11  C   UNL     1      18.060   1.649  53.053  0.00  0.00    +0.000 A 
ATOM     12  C   UNL     1      16.338  -1.593  56.135  0.00  0.00    +0.000 C 
ATOM     13  C   UNL     1      19.967   3.094  52.715  0.00  0.00    +0.000 A 
ATOM     14  C   UNL     1      17.353   2.408  52.117  0.00  0.00    +0.000 A 
ATOM     15  C   UNL     1      19.253   3.848  51.789  0.00  0.00    +0.000 A 
ATOM     16  C   UNL     1      17.940   3.505  51.490  0.00  0.00    +0.000 A 
ENDROOT
BRANCH   3  17
ATOM     17  N   UNL     1      21.608   0.578  56.729  0.00  0.00    +0.000 N 
ATOM     18  H   UNL     1      22.371  -0.031  56.397  0.00  0.00    +0.000 HD
BRANCH  17  19
ATOM     19  C   UNL     1      21.839   1.282  57.979  0.00  0.00    +0.000 C 
ATOM     20  C   UNL     1      22.085   2.025  59.296  0.00  0.00    +0.000 C 
BRANCH  20  21
ATOM     21  N   UNL     1      22.329   2.725  60.547  0.00  0.00    +0.000 N 
BRANCH  21  22
ATOM     22  C   UNL     1      21.178   2.495  61.401  0.00  0.00    +0.000 C 
ATOM     23  C   UNL     1      19.963   2.237  62.297  0.00  0.00    +0.000 C 
ENDBRANCH  21  22
BRANCH  21  24
ATOM     24  C   UNL     1      22.341   4.144  60.248  0.00  0.00    +0.000 C 
ATOM     25  C   UNL     1      22.337   5.640  59.919  0.00  0.00    +0.000 C 
ENDBRANCH  21  24
ENDBRANCH  20  21
ENDBRANCH  17  19
ENDBRANCH   3  17
TORSDOF 5
ENDMDL
MODEL 9
REMARK VINA RESULT:      -3.7     12.889     16.598
REMARK  Name = LUCANTHONE.pdbqt.pdb
REMARK  5 active torsions:
REMARK  status: ('A' for Active; 'I' for Inactive)
REMARK    1  A    between atoms: C_3  and  N_17
REMARK    2  A    between atoms: N_17  and  C_19
REMARK    3  A    between atoms: C_20  and  N_21
REMARK    4  A    between atoms: N_21  and  C_22
REMARK    5  A    between atoms: N_21  and  C_24
REMARK                            x       y       z     vdW  Elec       q    Type
REMARK                         _______ _______ _______ _____ _____    ______ ____
ROOT
ATOM      1  S   UNL     1       7.117  -1.096  68.094  0.00  0.00    +0.000 S 
ATOM      2  O   UNL     1       7.995  -1.124  72.339  0.00  0.00    +0.000 OA
ATOM      3  C   UNL     1      10.290  -1.120  70.741  0.00  0.00    +0.000 A 
ATOM      4  C   UNL     1       8.975  -1.186  70.200  0.00  0.00    +0.000 A 
ATOM      5  C   UNL     1       8.761  -1.067  68.811  0.00  0.00    +0.000 A 
ATOM      6  C   UNL     1       9.887  -0.890  67.972  0.00  0.00    +0.000 A 
ATOM      7  C   UNL     1       7.834  -1.365  71.144  0.00  0.00    +0.000 A 
ATOM      8  C   UNL     1      11.370  -0.970  69.864  0.00  0.00    +0.000 A 
ATOM      9  C   UNL     1       6.521  -1.852  70.699  0.00  0.00    +0.000 A 
ATOM     10  C   UNL     1      11.174  -0.843  68.499  0.00  0.00    +0.000 A 
ATOM     11  C   UNL     1       6.129  -1.801  69.369  0.00  0.00    +0.000 A 
ATOM     12  C   UNL     1       9.797  -0.749  66.469  0.00  0.00    +0.000 C 
ATOM     13  C   UNL     1       5.655  -2.366  71.671  0.00  0.00    +0.000 A 
ATOM     14  C   UNL     1       4.864  -2.277  69.019  0.00  0.00    +0.000 A 
ATOM     15  C   UNL     1       4.399  -2.845  71.312  0.00  0.00    +0.000 A 
ATOM     16  C   UNL     1       4.002  -2.802  69.980  0.00  0.00    +0.000 A 
ENDROOT
BRANCH   3  17
ATOM     17  N   UNL     1      10.547  -1.362  72.116  0.00  0.00    +0.000 N 
ATOM     18  H   UNL     1       9.752  -1.838  72.568  0.00  0.00    +0.000 HD
BRANCH  17  19
ATOM     19  C   UNL     1      11.229  -0.351  72.906  0.00  0.00    +0.000 C 
ATOM     20  C   UNL     1      11.946   0.717  73.740  0.00  0.00    +0.000 C 
BRANCH  20  21
ATOM     21  N   UNL     1      12.621   1.738  74.524  0.00  0.00    +0.000 N 
BRANCH  21  22
ATOM     22  C   UNL     1      11.604   2.438  75.287  0.00  0.00    +0.000 C 
ATOM     23  C   UNL     1      10.522   3.178  76.080  0.00  0.00    +0.000 C 
ENDBRANCH  21  22
BRANCH  21  24
ATOM     24  C   UNL     1      13.170   2.701  73.590  0.00  0.00    +0.000 C 
ATOM     25  C   UNL     1      13.730   3.722  72.594  0.00  0.00    +0.000 C 
ENDBRANCH  21  24
ENDBRANCH  20  21
ENDBRANCH  17  19
ENDBRANCH   3  17
TORSDOF 5
ENDMDL
