REMARK  Name = MeIQx.pdbqt.pdb
REMARK  0 active torsions:
REMARK  status: ('A' for Active; 'I' for Inactive)
REMARK                            x       y       z     vdW  Elec       q    Type
REMARK                         _______ _______ _______ _____ _____    ______ ____
ROOT
ATOM      1  N   UNL     1      -2.694  -0.216   0.039  0.00  0.00    +0.000 N 
ATOM      2  N   UNL     1      -1.302   1.506   0.050  0.00  0.00    +0.000 NA
ATOM      3  N   UNL     1       1.617   1.189   0.016  0.00  0.00    +0.000 NA
ATOM      4  N   UNL     1       2.628  -1.471  -0.032  0.00  0.00    +0.000 NA
ATOM      5  C   UNL     1      -1.446  -0.779   0.019  0.00  0.00    +0.000 A 
ATOM      6  C   UNL     1      -0.586   0.319   0.027  0.00  0.00    +0.000 A 
ATOM      7  C   UNL     1       0.813   0.092   0.009  0.00  0.00    +0.000 A 
ATOM      8  C   UNL     1       1.302  -1.237  -0.015  0.00  0.00    +0.000 A 
ATOM      9  C   UNL     1      -2.571   1.164   0.062  0.00  0.00    +0.000 A 
ATOM     10  C   UNL     1      -0.993  -2.100  -0.007  0.00  0.00    +0.000 A 
ATOM     11  C   UNL     1       0.393  -2.286  -0.022  0.00  0.00    +0.000 A 
ATOM     12  C   UNL     1      -3.927  -0.948   0.000  0.00  0.00    +0.000 C 
ATOM     13  C   UNL     1       2.941   0.933  -0.001  0.00  0.00    +0.000 A 
ATOM     14  C   UNL     1       3.432  -0.369  -0.024  0.00  0.00    +0.000 A 
ATOM     15  C   UNL     1       3.897   2.092   0.002  0.00  0.00    +0.000 C 
ATOM     16  N   UNL     1      -3.615   2.022   0.091  0.00  0.00    +0.000 N 
ATOM     17  H   UNL     1      -3.435   3.004  -0.096  0.00  0.00    +0.000 HD
ATOM     18  H   UNL     1      -4.558   1.704  -0.121  0.00  0.00    +0.000 HD
ENDROOT
TORSDOF 0
