MODEL 1
REMARK VINA RESULT:      -3.8      0.000      0.000
REMARK  Name = MeIQx.pdbqt.pdb
REMARK  0 active torsions:
REMARK  status: ('A' for Active; 'I' for Inactive)
REMARK                            x       y       z     vdW  Elec       q    Type
REMARK                         _______ _______ _______ _____ _____    ______ ____
ROOT
ATOM      1  N   UNL     1       6.768  10.712  61.936  0.00  0.00    +0.000 N 
ATOM      2  N   UNL     1       5.858   9.267  63.346  0.00  0.00    +0.000 NA
ATOM      3  N   UNL     1       5.227   6.499  62.597  0.00  0.00    +0.000 NA
ATOM      4  N   UNL     1       5.836   5.710  59.931  0.00  0.00    +0.000 NA
ATOM      5  C   UNL     1       6.636   9.557  61.212  0.00  0.00    +0.000 A 
ATOM      6  C   UNL     1       6.063   8.662  62.115  0.00  0.00    +0.000 A 
ATOM      7  C   UNL     1       5.785   7.341  61.686  0.00  0.00    +0.000 A 
ATOM      8  C   UNL     1       6.094   6.962  60.356  0.00  0.00    +0.000 A 
ATOM      9  C   UNL     1       6.285  10.504  63.218  0.00  0.00    +0.000 A 
ATOM     10  C   UNL     1       6.954   9.211  59.896  0.00  0.00    +0.000 A 
ATOM     11  C   UNL     1       6.664   7.900  59.507  0.00  0.00    +0.000 A 
ATOM     12  C   UNL     1       7.353  11.927  61.446  0.00  0.00    +0.000 C 
ATOM     13  C   UNL     1       4.977   5.251  62.152  0.00  0.00    +0.000 A 
ATOM     14  C   UNL     1       5.276   4.869  60.847  0.00  0.00    +0.000 A 
ATOM     15  C   UNL     1       4.364   4.259  63.099  0.00  0.00    +0.000 C 
ATOM     16  N   UNL     1       6.263  11.446  64.186  0.00  0.00    +0.000 N 
ATOM     17  H   UNL     1       6.081  11.150  65.141  0.00  0.00    +0.000 HD
ATOM     18  H   UNL     1       6.802  12.304  64.092  0.00  0.00    +0.000 HD
ENDROOT
TORSDOF 0
ENDMDL
MODEL 2
REMARK VINA RESULT:      -3.7     15.545     16.323
REMARK  Name = MeIQx.pdbqt.pdb
REMARK  0 active torsions:
REMARK  status: ('A' for Active; 'I' for Inactive)
REMARK                            x       y       z     vdW  Elec       q    Type
REMARK                         _______ _______ _______ _____ _____    ______ ____
ROOT
ATOM      1  N   UNL     1      17.217   2.722  51.482  0.00  0.00    +0.000 N 
ATOM      2  N   UNL     1      16.166   1.197  52.697  0.00  0.00    +0.000 NA
ATOM      3  N   UNL     1      17.438  -0.191  54.950  0.00  0.00    +0.000 NA
ATOM      4  N   UNL     1      20.135   0.503  55.539  0.00  0.00    +0.000 NA
ATOM      5  C   UNL     1      18.139   2.325  52.413  0.00  0.00    +0.000 A 
ATOM      6  C   UNL     1      17.460   1.367  53.165  0.00  0.00    +0.000 A 
ATOM      7  C   UNL     1      18.136   0.736  54.240  0.00  0.00    +0.000 A 
ATOM      8  C   UNL     1      19.478   1.091  54.522  0.00  0.00    +0.000 A 
ATOM      9  C   UNL     1      16.039   2.018  51.678  0.00  0.00    +0.000 A 
ATOM     10  C   UNL     1      19.461   2.697  52.669  0.00  0.00    +0.000 A 
ATOM     11  C   UNL     1      20.096   2.053  53.735  0.00  0.00    +0.000 A 
ATOM     12  C   UNL     1      17.433   3.736  50.491  0.00  0.00    +0.000 C 
ATOM     13  C   UNL     1      18.114  -0.768  55.964  0.00  0.00    +0.000 A 
ATOM     14  C   UNL     1      19.433  -0.427  56.249  0.00  0.00    +0.000 A 
ATOM     15  C   UNL     1      17.413  -1.802  56.799  0.00  0.00    +0.000 C 
ATOM     16  N   UNL     1      14.927   2.167  50.924  0.00  0.00    +0.000 N 
ATOM     17  H   UNL     1      14.059   1.763  51.263  0.00  0.00    +0.000 HD
ATOM     18  H   UNL     1      14.822   2.965  50.301  0.00  0.00    +0.000 HD
ENDROOT
TORSDOF 0
ENDMDL
MODEL 3
REMARK VINA RESULT:      -3.6     14.766     16.778
REMARK  Name = MeIQx.pdbqt.pdb
REMARK  0 active torsions:
REMARK  status: ('A' for Active; 'I' for Inactive)
REMARK                            x       y       z     vdW  Elec       q    Type
REMARK                         _______ _______ _______ _____ _____    ______ ____
ROOT
ATOM      1  N   UNL     1      16.951   0.855  53.585  0.00  0.00    +0.000 N 
ATOM      2  N   UNL     1      15.961   2.401  52.346  0.00  0.00    +0.000 NA
ATOM      3  N   UNL     1      17.439   4.579  51.045  0.00  0.00    +0.000 NA
ATOM      4  N   UNL     1      20.257   4.644  51.438  0.00  0.00    +0.000 NA
ATOM      5  C   UNL     1      17.969   1.671  53.171  0.00  0.00    +0.000 A 
ATOM      6  C   UNL     1      17.327   2.636  52.395  0.00  0.00    +0.000 A 
ATOM      7  C   UNL     1      18.103   3.659  51.796  0.00  0.00    +0.000 A 
ATOM      8  C   UNL     1      19.505   3.679  51.999  0.00  0.00    +0.000 A 
ATOM      9  C   UNL     1      15.752   1.326  53.074  0.00  0.00    +0.000 A 
ATOM     10  C   UNL     1      19.349   1.664  53.387  0.00  0.00    +0.000 A 
ATOM     11  C   UNL     1      20.083   2.690  52.783  0.00  0.00    +0.000 A 
ATOM     12  C   UNL     1      17.115  -0.323  54.388  0.00  0.00    +0.000 C 
ATOM     13  C   UNL     1      18.211   5.537  50.492  0.00  0.00    +0.000 A 
ATOM     14  C   UNL     1      19.589   5.566  50.687  0.00  0.00    +0.000 A 
ATOM     15  C   UNL     1      17.554   6.590  49.646  0.00  0.00    +0.000 C 
ATOM     16  N   UNL     1      14.549   0.752  53.298  0.00  0.00    +0.000 N 
ATOM     17  H   UNL     1      13.763   1.044  52.725  0.00  0.00    +0.000 HD
ATOM     18  H   UNL     1      14.483  -0.188  53.681  0.00  0.00    +0.000 HD
ENDROOT
TORSDOF 0
ENDMDL
MODEL 4
REMARK VINA RESULT:      -3.6      1.122      4.893
REMARK  Name = MeIQx.pdbqt.pdb
REMARK  0 active torsions:
REMARK  status: ('A' for Active; 'I' for Inactive)
REMARK                            x       y       z     vdW  Elec       q    Type
REMARK                         _______ _______ _______ _____ _____    ______ ____
ROOT
ATOM      1  N   UNL     1       5.161   5.104  61.549  0.00  0.00    +0.000 N 
ATOM      2  N   UNL     1       4.987   6.573  63.198  0.00  0.00    +0.000 NA
ATOM      3  N   UNL     1       5.909   9.350  62.955  0.00  0.00    +0.000 NA
ATOM      4  N   UNL     1       7.065  10.116  60.470  0.00  0.00    +0.000 NA
ATOM      5  C   UNL     1       5.696   6.259  61.043  0.00  0.00    +0.000 A 
ATOM      6  C   UNL     1       5.578   7.168  62.094  0.00  0.00    +0.000 A 
ATOM      7  C   UNL     1       6.044   8.494  61.907  0.00  0.00    +0.000 A 
ATOM      8  C   UNL     1       6.617   8.861  60.665  0.00  0.00    +0.000 A 
ATOM      9  C   UNL     1       4.747   5.327  62.853  0.00  0.00    +0.000 A 
ATOM     10  C   UNL     1       6.254   6.593  59.807  0.00  0.00    +0.000 A 
ATOM     11  C   UNL     1       6.705   7.908  59.659  0.00  0.00    +0.000 A 
ATOM     12  C   UNL     1       5.019   3.876  60.822  0.00  0.00    +0.000 C 
ATOM     13  C   UNL     1       6.364  10.601  62.740  0.00  0.00    +0.000 A 
ATOM     14  C   UNL     1       6.929  10.972  61.523  0.00  0.00    +0.000 A 
ATOM     15  C   UNL     1       6.248  11.609  63.848  0.00  0.00    +0.000 C 
ATOM     16  N   UNL     1       4.178   4.389  63.643  0.00  0.00    +0.000 N 
ATOM     17  H   UNL     1       3.728   4.693  64.501  0.00  0.00    +0.000 HD
ATOM     18  H   UNL     1       3.824   3.520  63.249  0.00  0.00    +0.000 HD
ENDROOT
TORSDOF 0
ENDMDL
MODEL 5
REMARK VINA RESULT:      -3.6     12.353     13.581
REMARK  Name = MeIQx.pdbqt.pdb
REMARK  0 active torsions:
REMARK  status: ('A' for Active; 'I' for Inactive)
REMARK                            x       y       z     vdW  Elec       q    Type
REMARK                         _______ _______ _______ _____ _____    ______ ____
ROOT
ATOM      1  N   UNL     1      16.445   2.452  67.956  0.00  0.00    +0.000 N 
ATOM      2  N   UNL     1      16.245   4.384  66.892  0.00  0.00    +0.000 NA
ATOM      3  N   UNL     1      15.514   6.880  68.255  0.00  0.00    +0.000 NA
ATOM      4  N   UNL     1      15.057   6.735  71.061  0.00  0.00    +0.000 NA
ATOM      5  C   UNL     1      16.098   3.350  68.930  0.00  0.00    +0.000 A 
ATOM      6  C   UNL     1      15.976   4.557  68.241  0.00  0.00    +0.000 A 
ATOM      7  C   UNL     1      15.620   5.723  68.963  0.00  0.00    +0.000 A 
ATOM      8  C   UNL     1      15.396   5.636  70.359  0.00  0.00    +0.000 A 
ATOM      9  C   UNL     1      16.521   3.108  66.738  0.00  0.00    +0.000 A 
ATOM     10  C   UNL     1      15.886   3.234  70.305  0.00  0.00    +0.000 A 
ATOM     11  C   UNL     1      15.534   4.405  70.985  0.00  0.00    +0.000 A 
ATOM     12  C   UNL     1      16.724   1.063  68.180  0.00  0.00    +0.000 C 
ATOM     13  C   UNL     1      15.173   7.967  68.976  0.00  0.00    +0.000 A 
ATOM     14  C   UNL     1      14.950   7.893  70.348  0.00  0.00    +0.000 A 
ATOM     15  C   UNL     1      15.038   9.285  68.268  0.00  0.00    +0.000 C 
ATOM     16  N   UNL     1      16.835   2.509  65.568  0.00  0.00    +0.000 N 
ATOM     17  H   UNL     1      17.062   3.098  64.772  0.00  0.00    +0.000 HD
ATOM     18  H   UNL     1      17.247   1.579  65.552  0.00  0.00    +0.000 HD
ENDROOT
TORSDOF 0
ENDMDL
MODEL 6
REMARK VINA RESULT:      -3.6     12.671     14.493
REMARK  Name = MeIQx.pdbqt.pdb
REMARK  0 active torsions:
REMARK  status: ('A' for Active; 'I' for Inactive)
REMARK                            x       y       z     vdW  Elec       q    Type
REMARK                         _______ _______ _______ _____ _____    ______ ____
ROOT
ATOM      1  N   UNL     1       4.001   6.042  77.484  0.00  0.00    +0.000 N 
ATOM      2  N   UNL     1       4.907   6.072  75.464  0.00  0.00    +0.000 NA
ATOM      3  N   UNL     1       3.746   7.574  73.224  0.00  0.00    +0.000 NA
ATOM      4  N   UNL     1       1.354   9.027  73.744  0.00  0.00    +0.000 NA
ATOM      5  C   UNL     1       3.171   6.840  76.744  0.00  0.00    +0.000 A 
ATOM      6  C   UNL     1       3.757   6.845  75.478  0.00  0.00    +0.000 A 
ATOM      7  C   UNL     1       3.142   7.593  74.443  0.00  0.00    +0.000 A 
ATOM      8  C   UNL     1       1.952   8.312  74.716  0.00  0.00    +0.000 A 
ATOM      9  C   UNL     1       5.036   5.591  76.681  0.00  0.00    +0.000 A 
ATOM     10  C   UNL     1       2.000   7.540  77.043  0.00  0.00    +0.000 A 
ATOM     11  C   UNL     1       1.420   8.265  75.997  0.00  0.00    +0.000 A 
ATOM     12  C   UNL     1       3.838   5.757  78.881  0.00  0.00    +0.000 C 
ATOM     13  C   UNL     1       3.131   8.296  72.265  0.00  0.00    +0.000 A 
ATOM     14  C   UNL     1       1.962   9.005  72.523  0.00  0.00    +0.000 A 
ATOM     15  C   UNL     1       3.737   8.329  70.891  0.00  0.00    +0.000 C 
ATOM     16  N   UNL     1       6.029   4.777  77.102  0.00  0.00    +0.000 N 
ATOM     17  H   UNL     1       6.844   4.664  76.505  0.00  0.00    +0.000 HD
ATOM     18  H   UNL     1       6.191   4.621  78.094  0.00  0.00    +0.000 HD
ENDROOT
TORSDOF 0
ENDMDL
MODEL 7
REMARK VINA RESULT:      -3.2      8.747     10.881
REMARK  Name = MeIQx.pdbqt.pdb
REMARK  0 active torsions:
REMARK  status: ('A' for Active; 'I' for Inactive)
REMARK                            x       y       z     vdW  Elec       q    Type
REMARK                         _______ _______ _______ _____ _____    ______ ____
ROOT
ATOM      1  N   UNL     1      17.615  10.677  59.280  0.00  0.00    +0.000 N 
ATOM      2  N   UNL     1      16.002  10.387  60.769  0.00  0.00    +0.000 NA
ATOM      3  N   UNL     1      13.544  11.992  60.782  0.00  0.00    +0.000 NA
ATOM      4  N   UNL     1      13.292  13.987  58.767  0.00  0.00    +0.000 NA
ATOM      5  C   UNL     1      16.665  11.605  58.948  0.00  0.00    +0.000 A 
ATOM      6  C   UNL     1      15.660  11.407  59.895  0.00  0.00    +0.000 A 
ATOM      7  C   UNL     1      14.500  12.219  59.841  0.00  0.00    +0.000 A 
ATOM      8  C   UNL     1      14.388  13.207  58.833  0.00  0.00    +0.000 A 
ATOM      9  C   UNL     1      17.185   9.962  60.387  0.00  0.00    +0.000 A 
ATOM     10  C   UNL     1      16.581  12.570  57.941  0.00  0.00    +0.000 A 
ATOM     11  C   UNL     1      15.423  13.354  57.920  0.00  0.00    +0.000 A 
ATOM     12  C   UNL     1      18.839  10.460  58.565  0.00  0.00    +0.000 C 
ATOM     13  C   UNL     1      12.455  12.784  60.698  0.00  0.00    +0.000 A 
ATOM     14  C   UNL     1      12.336  13.759  59.712  0.00  0.00    +0.000 A 
ATOM     15  C   UNL     1      11.351  12.595  61.700  0.00  0.00    +0.000 C 
ATOM     16  N   UNL     1      17.892   8.971  60.976  0.00  0.00    +0.000 N 
ATOM     17  H   UNL     1      17.416   8.375  61.647  0.00  0.00    +0.000 HD
ATOM     18  H   UNL     1      18.689   8.548  60.505  0.00  0.00    +0.000 HD
ENDROOT
TORSDOF 0
ENDMDL
MODEL 8
REMARK VINA RESULT:      -3.2     15.692     17.208
REMARK  Name = MeIQx.pdbqt.pdb
REMARK  0 active torsions:
REMARK  status: ('A' for Active; 'I' for Inactive)
REMARK                            x       y       z     vdW  Elec       q    Type
REMARK                         _______ _______ _______ _____ _____    ______ ____
ROOT
ATOM      1  N   UNL     1      21.479  -0.031  57.455  0.00  0.00    +0.000 N 
ATOM      2  N   UNL     1      19.434  -0.756  57.010  0.00  0.00    +0.000 NA
ATOM      3  N   UNL     1      17.873   0.204  54.717  0.00  0.00    +0.000 NA
ATOM      4  N   UNL     1      19.101   2.148  53.039  0.00  0.00    +0.000 NA
ATOM      5  C   UNL     1      21.107   0.650  56.327  0.00  0.00    +0.000 A 
ATOM      6  C   UNL     1      19.820   0.181  56.064  0.00  0.00    +0.000 A 
ATOM      7  C   UNL     1      19.124   0.688  54.939  0.00  0.00    +0.000 A 
ATOM      8  C   UNL     1      19.748   1.655  54.112  0.00  0.00    +0.000 A 
ATOM      9  C   UNL     1      20.445  -0.867  57.844  0.00  0.00    +0.000 A 
ATOM     10  C   UNL     1      21.748   1.601  55.529  0.00  0.00    +0.000 A 
ATOM     11  C   UNL     1      21.031   2.080  54.428  0.00  0.00    +0.000 A 
ATOM     12  C   UNL     1      22.755   0.081  58.101  0.00  0.00    +0.000 C 
ATOM     13  C   UNL     1      17.242   0.711  53.637  0.00  0.00    +0.000 A 
ATOM     14  C   UNL     1      17.845   1.661  52.819  0.00  0.00    +0.000 A 
ATOM     15  C   UNL     1      15.856   0.225  53.321  0.00  0.00    +0.000 C 
ATOM     16  N   UNL     1      20.484  -1.676  58.926  0.00  0.00    +0.000 N 
ATOM     17  H   UNL     1      19.770  -2.393  59.016  0.00  0.00    +0.000 HD
ATOM     18  H   UNL     1      21.364  -1.877  59.396  0.00  0.00    +0.000 HD
ENDROOT
TORSDOF 0
ENDMDL
MODEL 9
REMARK VINA RESULT:      -3.1     10.007     12.143
REMARK  Name = MeIQx.pdbqt.pdb
REMARK  0 active torsions:
REMARK  status: ('A' for Active; 'I' for Inactive)
REMARK                            x       y       z     vdW  Elec       q    Type
REMARK                         _______ _______ _______ _____ _____    ______ ____
ROOT
ATOM      1  N   UNL     1      18.883   9.638  60.541  0.00  0.00    +0.000 N 
ATOM      2  N   UNL     1      17.566  10.222  58.859  0.00  0.00    +0.000 NA
ATOM      3  N   UNL     1      15.223  11.958  59.205  0.00  0.00    +0.000 NA
ATOM      4  N   UNL     1      14.682  12.890  61.839  0.00  0.00    +0.000 NA
ATOM      5  C   UNL     1      17.926  10.435  61.111  0.00  0.00    +0.000 A 
ATOM      6  C   UNL     1      17.109  10.791  60.038  0.00  0.00    +0.000 A 
ATOM      7  C   UNL     1      15.994  11.633  60.278  0.00  0.00    +0.000 A 
ATOM      8  C   UNL     1      15.737  12.089  61.594  0.00  0.00    +0.000 A 
ATOM      9  C   UNL     1      18.634   9.527  59.183  0.00  0.00    +0.000 A 
ATOM     10  C   UNL     1      17.698  10.871  62.418  0.00  0.00    +0.000 A 
ATOM     11  C   UNL     1      16.589  11.699  62.617  0.00  0.00    +0.000 A 
ATOM     12  C   UNL     1      19.987   9.050  61.243  0.00  0.00    +0.000 C 
ATOM     13  C   UNL     1      14.172  12.760  59.473  0.00  0.00    +0.000 A 
ATOM     14  C   UNL     1      13.910  13.213  60.762  0.00  0.00    +0.000 A 
ATOM     15  C   UNL     1      13.273  13.168  58.340  0.00  0.00    +0.000 C 
ATOM     16  N   UNL     1      19.389   8.804  58.326  0.00  0.00    +0.000 N 
ATOM     17  H   UNL     1      19.251   8.943  57.329  0.00  0.00    +0.000 HD
ATOM     18  H   UNL     1      20.313   8.474  58.596  0.00  0.00    +0.000 HD
ENDROOT
TORSDOF 0
ENDMDL
