MODEL 1
REMARK VINA RESULT:      -4.7      0.000      0.000
REMARK  Name = Methotrexate.pdbqt.pdb
REMARK  9 active torsions:
REMARK  status: ('A' for Active; 'I' for Inactive)
REMARK    1  A    between atoms: C_1  and  N_22
REMARK    2  A    between atoms: C_2  and  C_9
REMARK    3  A    between atoms: CA_11  and  C_13
REMARK    4  A    between atoms: CA_11  and  CB_16
REMARK    5  A    between atoms: C_13  and  O_14
REMARK    6  A    between atoms: CG_17  and  CD_19
REMARK    7  A    between atoms: CD_19  and  OE1_20
REMARK    8  A    between atoms: N_22  and  C_24
REMARK    9  A    between atoms: C_24  and  C_31
REMARK                            x       y       z     vdW  Elec       q    Type
REMARK                         _______ _______ _______ _____ _____    ______ ____
ROOT
ATOM      1  C   UNL     1       4.860   4.846  61.012  0.00  0.00    +0.000 A 
ATOM      2  C   UNL     1       6.239   7.315  60.964  0.00  0.00    +0.000 A 
ATOM      3  C   UNL     1       4.945   5.657  62.152  0.00  0.00    +0.000 A 
ATOM      4  C   UNL     1       5.494   5.305  59.849  0.00  0.00    +0.000 A 
ATOM      5  C   UNL     1       5.622   6.877  62.133  0.00  0.00    +0.000 A 
ATOM      6  C   UNL     1       6.173   6.523  59.819  0.00  0.00    +0.000 A 
ENDROOT
BRANCH   2   9
ATOM      7  O   UNL     1       8.127   8.597  60.486  0.00  0.00    +0.000 OA
ATOM      8  N   UNL     1       6.275   9.725  61.300  0.00  0.00    +0.000 N 
ATOM      9  C   ACE A   0       6.972   8.604  60.893  0.00  0.00    +0.000 C 
ATOM     10  H   UNL     1       5.316   9.630  61.624  0.00  0.00    +0.000 HD
ATOM     11  CA  UNL     1       6.738  11.029  61.330  0.00  0.00    +0.000 C 
BRANCH  11  13
ATOM     12  OXT UNL     1       6.038  12.884  62.662  0.00  0.00    +0.000 OA
ATOM     13  C   UNL     1       5.771  12.044  61.816  0.00  0.00    +0.000 C 
BRANCH  13  14
ATOM     14  O   UNL     1       4.559  11.967  61.247  0.00  0.00    +0.000 OA
ATOM     15  H   UNL     1       4.529  12.711  60.610  0.00  0.00    +0.000 HD
ENDBRANCH  13  14
ENDBRANCH  11  13
BRANCH  11  16
ATOM     16  CB  UNL     1       8.054  11.376  60.926  0.00  0.00    +0.000 C 
ATOM     17  CG  UNL     1       9.480  11.743  60.499  0.00  0.00    +0.000 C 
BRANCH  17  19
ATOM     18  OE2 UNL     1      11.775  11.995  60.868  0.00  0.00    +0.000 OA
ATOM     19  CD  UNL     1      10.818  12.075  60.116  0.00  0.00    +0.000 C 
BRANCH  19  20
ATOM     20  OE1 UNL     1      10.935  12.506  58.847  0.00  0.00    +0.000 OA
ATOM     21  HE1 UNL     1      10.751  11.705  58.317  0.00  0.00    +0.000 HD
ENDBRANCH  19  20
ENDBRANCH  17  19
ENDBRANCH  11  16
ENDBRANCH   2   9
BRANCH   1  22
ATOM     22  N   UNL     1       4.187   3.601  61.054  0.00  0.00    +0.000 N 
ATOM     23  C   UNL     1       3.280   3.197  59.995  0.00  0.00    +0.000 C 
BRANCH  22  24
ATOM     24  C   UNL     1       4.033   2.894  62.308  0.00  0.00    +0.000 C 
BRANCH  24  31
ATOM     25  N   UNL     1       3.470   2.908  64.554  0.00  0.00    +0.000 NA
ATOM     26  N   UNL     1       4.117   0.019  64.928  0.00  0.00    +0.000 NA
ATOM     27  N   UNL     1       3.560   0.206  67.167  0.00  0.00    +0.000 NA
ATOM     28  N   UNL     1       2.739   2.222  68.102  0.00  0.00    +0.000 NA
ATOM     29  N   UNL     1       2.410   4.176  66.950  0.00  0.00    +0.000 N 
ATOM     30  N   UNL     1       3.034   0.325  69.373  0.00  0.00    +0.000 N 
ATOM     31  C   UNL     1       3.881   2.202  63.539  0.00  0.00    +0.000 C 
ATOM     32  C   UNL     1       4.146   0.837  63.867  0.00  0.00    +0.000 C 
ATOM     33  C   UNL     1       3.331   2.202  65.767  0.00  0.00    +0.000 C 
ATOM     34  C   UNL     1       3.689   0.744  65.928  0.00  0.00    +0.000 C 
ATOM     35  C   UNL     1       2.813   2.866  66.979  0.00  0.00    +0.000 C 
ATOM     36  C   UNL     1       3.133   0.918  68.159  0.00  0.00    +0.000 C 
ATOM     37  H   UNL     1       2.386   4.624  67.859  0.00  0.00    +0.000 HD
ATOM     38  H   UNL     1       2.789   4.741  66.198  0.00  0.00    +0.000 HD
ATOM     39  H   UNL     1       2.330   0.748  69.964  0.00  0.00    +0.000 HD
ATOM     40  H   UNL     1       2.984  -0.684  69.312  0.00  0.00    +0.000 HD
ENDBRANCH  24  31
ENDBRANCH  22  24
ENDBRANCH   1  22
TORSDOF 9
ENDMDL
MODEL 2
REMARK VINA RESULT:      -4.6      2.170      3.498
REMARK  Name = Methotrexate.pdbqt.pdb
REMARK  9 active torsions:
REMARK  status: ('A' for Active; 'I' for Inactive)
REMARK    1  A    between atoms: C_1  and  N_22
REMARK    2  A    between atoms: C_2  and  C_9
REMARK    3  A    between atoms: CA_11  and  C_13
REMARK    4  A    between atoms: CA_11  and  CB_16
REMARK    5  A    between atoms: C_13  and  O_14
REMARK    6  A    between atoms: CG_17  and  CD_19
REMARK    7  A    between atoms: CD_19  and  OE1_20
REMARK    8  A    between atoms: N_22  and  C_24
REMARK    9  A    between atoms: C_24  and  C_31
REMARK                            x       y       z     vdW  Elec       q    Type
REMARK                         _______ _______ _______ _____ _____    ______ ____
ROOT
ATOM      1  C   UNL     1       3.386   4.521  63.565  0.00  0.00    +0.000 A 
ATOM      2  C   UNL     1       4.990   6.484  62.311  0.00  0.00    +0.000 A 
ATOM      3  C   UNL     1       3.276   5.877  63.901  0.00  0.00    +0.000 A 
ATOM      4  C   UNL     1       4.331   4.176  62.587  0.00  0.00    +0.000 A 
ATOM      5  C   UNL     1       4.063   6.850  63.283  0.00  0.00    +0.000 A 
ATOM      6  C   UNL     1       5.123   5.142  61.964  0.00  0.00    +0.000 A 
ENDROOT
BRANCH   2   9
ATOM      7  O   UNL     1       6.384   8.355  62.302  0.00  0.00    +0.000 OA
ATOM      8  N   UNL     1       5.984   7.337  60.259  0.00  0.00    +0.000 N 
ATOM      9  C   ACE A   0       5.852   7.481  61.628  0.00  0.00    +0.000 C 
ATOM     10  H   UNL     1       5.501   6.578  59.786  0.00  0.00    +0.000 HD
ATOM     11  CA  UNL     1       6.724   8.135  59.405  0.00  0.00    +0.000 C 
BRANCH  11  13
ATOM     12  OXT UNL     1       6.945   6.627  57.566  0.00  0.00    +0.000 OA
ATOM     13  C   UNL     1       6.688   7.750  57.973  0.00  0.00    +0.000 C 
BRANCH  13  14
ATOM     14  O   UNL     1       6.348   8.747  57.142  0.00  0.00    +0.000 OA
ATOM     15  H   UNL     1       6.523   8.401  56.243  0.00  0.00    +0.000 HD
ENDBRANCH  13  14
ENDBRANCH  11  13
BRANCH  11  16
ATOM     16  CB  UNL     1       7.467   9.254  59.865  0.00  0.00    +0.000 C 
ATOM     17  CG  UNL     1       8.259  10.471  60.355  0.00  0.00    +0.000 C 
BRANCH  17  19
ATOM     18  OE2 UNL     1       8.567  12.760  60.719  0.00  0.00    +0.000 OA
ATOM     19  CD  UNL     1       8.988  11.619  60.804  0.00  0.00    +0.000 C 
BRANCH  19  20
ATOM     20  OE1 UNL     1      10.198  11.334  61.318  0.00  0.00    +0.000 OA
ATOM     21  HE1 UNL     1      10.807  11.872  60.774  0.00  0.00    +0.000 HD
ENDBRANCH  19  20
ENDBRANCH  17  19
ENDBRANCH  11  16
ENDBRANCH   2   9
BRANCH   1  22
ATOM     22  N   UNL     1       2.595   3.544  64.215  0.00  0.00    +0.000 N 
ATOM     23  C   UNL     1       1.222   3.818  64.599  0.00  0.00    +0.000 C 
BRANCH  22  24
ATOM     24  C   UNL     1       3.220   2.429  64.896  0.00  0.00    +0.000 C 
BRANCH  24  31
ATOM     25  N   UNL     1       3.430   1.096  66.777  0.00  0.00    +0.000 NA
ATOM     26  N   UNL     1       5.594  -0.575  65.582  0.00  0.00    +0.000 NA
ATOM     27  N   UNL     1       5.717  -1.787  67.549  0.00  0.00    +0.000 NA
ATOM     28  N   UNL     1       4.267  -1.379  69.378  0.00  0.00    +0.000 NA
ATOM     29  N   UNL     1       2.624   0.217  69.432  0.00  0.00    +0.000 N 
ATOM     30  N   UNL     1       5.889  -3.011  69.454  0.00  0.00    +0.000 N 
ATOM     31  C   UNL     1       3.832   1.335  65.560  0.00  0.00    +0.000 C 
ATOM     32  C   UNL     1       4.867   0.453  65.122  0.00  0.00    +0.000 C 
ATOM     33  C   UNL     1       4.056   0.008  67.420  0.00  0.00    +0.000 C 
ATOM     34  C   UNL     1       5.165  -0.803  66.794  0.00  0.00    +0.000 C 
ATOM     35  C   UNL     1       3.650  -0.410  68.776  0.00  0.00    +0.000 C 
ATOM     36  C   UNL     1       5.293  -2.021  68.749  0.00  0.00    +0.000 C 
ATOM     37  H   UNL     1       2.634   0.093  70.437  0.00  0.00    +0.000 HD
ATOM     38  H   UNL     1       2.400   1.154  69.114  0.00  0.00    +0.000 HD
ATOM     39  H   UNL     1       5.281  -3.425  70.149  0.00  0.00    +0.000 HD
ATOM     40  H   UNL     1       6.370  -3.677  68.863  0.00  0.00    +0.000 HD
ENDBRANCH  24  31
ENDBRANCH  22  24
ENDBRANCH   1  22
TORSDOF 9
ENDMDL
MODEL 3
REMARK VINA RESULT:      -4.6      7.338     11.297
REMARK  Name = Methotrexate.pdbqt.pdb
REMARK  9 active torsions:
REMARK  status: ('A' for Active; 'I' for Inactive)
REMARK    1  A    between atoms: C_1  and  N_22
REMARK    2  A    between atoms: C_2  and  C_9
REMARK    3  A    between atoms: CA_11  and  C_13
REMARK    4  A    between atoms: CA_11  and  CB_16
REMARK    5  A    between atoms: C_13  and  O_14
REMARK    6  A    between atoms: CG_17  and  CD_19
REMARK    7  A    between atoms: CD_19  and  OE1_20
REMARK    8  A    between atoms: N_22  and  C_24
REMARK    9  A    between atoms: C_24  and  C_31
REMARK                            x       y       z     vdW  Elec       q    Type
REMARK                         _______ _______ _______ _____ _____    ______ ____
ROOT
ATOM      1  C   UNL     1      12.104  13.352  60.259  0.00  0.00    +0.000 A 
ATOM      2  C   UNL     1      14.460  11.821  60.583  0.00  0.00    +0.000 A 
ATOM      3  C   UNL     1      12.729  13.229  61.508  0.00  0.00    +0.000 A 
ATOM      4  C   UNL     1      12.691  12.678  59.178  0.00  0.00    +0.000 A 
ATOM      5  C   UNL     1      13.892  12.477  61.672  0.00  0.00    +0.000 A 
ATOM      6  C   UNL     1      13.854  11.924  59.333  0.00  0.00    +0.000 A 
ENDROOT
BRANCH   2   9
ATOM      7  O   UNL     1      16.007  10.584  61.814  0.00  0.00    +0.000 OA
ATOM      8  N   UNL     1      16.404  10.793  59.540  0.00  0.00    +0.000 N 
ATOM      9  C   ACE A   0      15.695  11.008  60.707  0.00  0.00    +0.000 C 
ATOM     10  H   UNL     1      16.065  11.188  58.667  0.00  0.00    +0.000 HD
ATOM     11  CA  UNL     1      17.579  10.076  59.399  0.00  0.00    +0.000 C 
BRANCH  11  13
ATOM     12  OXT UNL     1      19.297   9.756  57.772  0.00  0.00    +0.000 OA
ATOM     13  C   UNL     1      18.128  10.005  58.023  0.00  0.00    +0.000 C 
BRANCH  13  14
ATOM     14  O   UNL     1      17.227  10.241  57.058  0.00  0.00    +0.000 OA
ATOM     15  H   UNL     1      16.527   9.569  57.193  0.00  0.00    +0.000 HD
ENDBRANCH  13  14
ENDBRANCH  11  13
BRANCH  11  16
ATOM     16  CB  UNL     1      18.223   9.450  60.499  0.00  0.00    +0.000 C 
ATOM     17  CG  UNL     1      18.926   8.767  61.678  0.00  0.00    +0.000 C 
BRANCH  17  19
ATOM     18  OE2 UNL     1      19.993   8.705  63.757  0.00  0.00    +0.000 OA
ATOM     19  CD  UNL     1      19.592   8.118  62.766  0.00  0.00    +0.000 C 
BRANCH  19  20
ATOM     20  OE1 UNL     1      19.757   6.793  62.597  0.00  0.00    +0.000 OA
ATOM     21  HE1 UNL     1      19.206   6.404  63.306  0.00  0.00    +0.000 HD
ENDBRANCH  19  20
ENDBRANCH  17  19
ENDBRANCH  11  16
ENDBRANCH   2   9
BRANCH   1  22
ATOM     22  N   UNL     1      10.913  14.102  60.113  0.00  0.00    +0.000 N 
ATOM     23  C   UNL     1      10.944  15.502  59.731  0.00  0.00    +0.000 C 
BRANCH  22  24
ATOM     24  C   UNL     1       9.684  13.655  60.736  0.00  0.00    +0.000 C 
BRANCH  24  31
ATOM     25  N   UNL     1       8.179  11.957  61.197  0.00  0.00    +0.000 NA
ATOM     26  N   UNL     1       6.325  13.753  62.695  0.00  0.00    +0.000 NA
ATOM     27  N   UNL     1       4.898  11.962  63.034  0.00  0.00    +0.000 NA
ATOM     28  N   UNL     1       5.418   9.773  62.292  0.00  0.00    +0.000 NA
ATOM     29  N   UNL     1       7.328   9.174  61.177  0.00  0.00    +0.000 N 
ATOM     30  N   UNL     1       3.454  10.247  63.397  0.00  0.00    +0.000 N 
ATOM     31  C   UNL     1       8.482  13.216  61.349  0.00  0.00    +0.000 C 
ATOM     32  C   UNL     1       7.505  13.949  62.090  0.00  0.00    +0.000 C 
ATOM     33  C   UNL     1       6.978  11.545  61.811  0.00  0.00    +0.000 C 
ATOM     34  C   UNL     1       6.050  12.485  62.542  0.00  0.00    +0.000 C 
ATOM     35  C   UNL     1       6.550  10.133  61.771  0.00  0.00    +0.000 C 
ATOM     36  C   UNL     1       4.623  10.707  62.890  0.00  0.00    +0.000 C 
ATOM     37  H   UNL     1       6.826   8.334  60.914  0.00  0.00    +0.000 HD
ATOM     38  H   UNL     1       8.002   9.508  60.496  0.00  0.00    +0.000 HD
ATOM     39  H   UNL     1       3.487   9.266  63.641  0.00  0.00    +0.000 HD
ATOM     40  H   UNL     1       3.078  10.850  64.117  0.00  0.00    +0.000 HD
ENDBRANCH  24  31
ENDBRANCH  22  24
ENDBRANCH   1  22
TORSDOF 9
ENDMDL
MODEL 4
REMARK VINA RESULT:      -4.6     11.112     12.752
REMARK  Name = Methotrexate.pdbqt.pdb
REMARK  9 active torsions:
REMARK  status: ('A' for Active; 'I' for Inactive)
REMARK    1  A    between atoms: C_1  and  N_22
REMARK    2  A    between atoms: C_2  and  C_9
REMARK    3  A    between atoms: CA_11  and  C_13
REMARK    4  A    between atoms: CA_11  and  CB_16
REMARK    5  A    between atoms: C_13  and  O_14
REMARK    6  A    between atoms: CG_17  and  CD_19
REMARK    7  A    between atoms: CD_19  and  OE1_20
REMARK    8  A    between atoms: N_22  and  C_24
REMARK    9  A    between atoms: C_24  and  C_31
REMARK                            x       y       z     vdW  Elec       q    Type
REMARK                         _______ _______ _______ _____ _____    ______ ____
ROOT
ATOM      1  C   UNL     1      12.787   5.987  74.774  0.00  0.00    +0.000 A 
ATOM      2  C   UNL     1      12.892   7.956  72.747  0.00  0.00    +0.000 A 
ATOM      3  C   UNL     1      12.257   7.269  74.974  0.00  0.00    +0.000 A 
ATOM      4  C   UNL     1      13.378   5.723  73.530  0.00  0.00    +0.000 A 
ATOM      5  C   UNL     1      12.305   8.244  73.976  0.00  0.00    +0.000 A 
ATOM      6  C   UNL     1      13.430   6.691  72.526  0.00  0.00    +0.000 A 
ENDROOT
BRANCH   2   9
ATOM      7  O   UNL     1      12.488  10.070  71.846  0.00  0.00    +0.000 OA
ATOM      8  N   UNL     1      13.590   8.547  70.491  0.00  0.00    +0.000 N 
ATOM      9  C   ACE A   0      12.969   8.959  71.655  0.00  0.00    +0.000 C 
ATOM     10  H   UNL     1      13.958   7.602  70.427  0.00  0.00    +0.000 HD
ATOM     11  CA  UNL     1      13.781   9.291  69.340  0.00  0.00    +0.000 C 
BRANCH  11  13
ATOM     12  OXT UNL     1      14.336   7.410  67.978  0.00  0.00    +0.000 OA
ATOM     13  C   UNL     1      14.482   8.596  68.233  0.00  0.00    +0.000 C 
BRANCH  13  14
ATOM     14  O   UNL     1      15.304   9.382  67.522  0.00  0.00    +0.000 OA
ATOM     15  H   UNL     1      15.650   8.808  66.807  0.00  0.00    +0.000 HD
ENDBRANCH  13  14
ENDBRANCH  11  13
BRANCH  11  16
ATOM     16  CB  UNL     1      13.333  10.633  69.221  0.00  0.00    +0.000 C 
ATOM     17  CG  UNL     1      12.850  12.084  69.107  0.00  0.00    +0.000 C 
BRANCH  17  19
ATOM     18  OE2 UNL     1      12.420  14.219  69.956  0.00  0.00    +0.000 OA
ATOM     19  CD  UNL     1      12.399  13.440  69.018  0.00  0.00    +0.000 C 
BRANCH  19  20
ATOM     20  OE1 UNL     1      11.927  13.783  67.806  0.00  0.00    +0.000 OA
ATOM     21  HE1 UNL     1      12.265  13.075  67.223  0.00  0.00    +0.000 HD
ENDBRANCH  19  20
ENDBRANCH  17  19
ENDBRANCH  11  16
ENDBRANCH   2   9
BRANCH   1  22
ATOM     22  N   UNL     1      12.749   5.016  75.803  0.00  0.00    +0.000 N 
ATOM     23  C   UNL     1      13.957   4.355  76.263  0.00  0.00    +0.000 C 
BRANCH  22  24
ATOM     24  C   UNL     1      11.509   4.342  76.129  0.00  0.00    +0.000 C 
BRANCH  24  31
ATOM     25  N   UNL     1      10.221   2.418  76.127  0.00  0.00    +0.000 NA
ATOM     26  N   UNL     1       7.869   3.766  77.373  0.00  0.00    +0.000 NA
ATOM     27  N   UNL     1       6.694   1.775  77.260  0.00  0.00    +0.000 NA
ATOM     28  N   UNL     1       7.670  -0.225  76.447  0.00  0.00    +0.000 NA
ATOM     29  N   UNL     1       9.823  -0.432  75.690  0.00  0.00    +0.000 N 
ATOM     30  N   UNL     1       5.486  -0.146  77.172  0.00  0.00    +0.000 N 
ATOM     31  C   UNL     1      10.295   3.679  76.446  0.00  0.00    +0.000 C 
ATOM     32  C   UNL     1       9.097   4.186  77.038  0.00  0.00    +0.000 C 
ATOM     33  C   UNL     1       9.004   1.781  76.447  0.00  0.00    +0.000 C 
ATOM     34  C   UNL     1       7.824   2.499  77.057  0.00  0.00    +0.000 C 
ATOM     35  C   UNL     1       8.810   0.340  76.198  0.00  0.00    +0.000 C 
ATOM     36  C   UNL     1       6.645   0.520  76.953  0.00  0.00    +0.000 C 
ATOM     37  H   UNL     1       9.513  -1.295  75.258  0.00  0.00    +0.000 HD
ATOM     38  H   UNL     1      10.552   0.065  75.190  0.00  0.00    +0.000 HD
ATOM     39  H   UNL     1       5.622  -1.136  77.331  0.00  0.00    +0.000 HD
ATOM     40  H   UNL     1       4.895   0.314  77.852  0.00  0.00    +0.000 HD
ENDBRANCH  24  31
ENDBRANCH  22  24
ENDBRANCH   1  22
TORSDOF 9
ENDMDL
MODEL 5
REMARK VINA RESULT:      -4.5      2.320      4.195
REMARK  Name = Methotrexate.pdbqt.pdb
REMARK  9 active torsions:
REMARK  status: ('A' for Active; 'I' for Inactive)
REMARK    1  A    between atoms: C_1  and  N_22
REMARK    2  A    between atoms: C_2  and  C_9
REMARK    3  A    between atoms: CA_11  and  C_13
REMARK    4  A    between atoms: CA_11  and  CB_16
REMARK    5  A    between atoms: C_13  and  O_14
REMARK    6  A    between atoms: CG_17  and  CD_19
REMARK    7  A    between atoms: CD_19  and  OE1_20
REMARK    8  A    between atoms: N_22  and  C_24
REMARK    9  A    between atoms: C_24  and  C_31
REMARK                            x       y       z     vdW  Elec       q    Type
REMARK                         _______ _______ _______ _____ _____    ______ ____
ROOT
ATOM      1  C   UNL     1       3.047   4.476  64.007  0.00  0.00    +0.000 A 
ATOM      2  C   UNL     1       4.792   6.155  62.547  0.00  0.00    +0.000 A 
ATOM      3  C   UNL     1       3.969   3.951  63.090  0.00  0.00    +0.000 A 
ATOM      4  C   UNL     1       3.021   5.869  64.164  0.00  0.00    +0.000 A 
ATOM      5  C   UNL     1       4.834   4.775  62.369  0.00  0.00    +0.000 A 
ATOM      6  C   UNL     1       3.881   6.702  63.448  0.00  0.00    +0.000 A 
ENDROOT
BRANCH   2   9
ATOM      7  O   UNL     1       6.043   8.114  62.345  0.00  0.00    +0.000 OA
ATOM      8  N   UNL     1       6.060   6.670  60.533  0.00  0.00    +0.000 N 
ATOM      9  C   ACE A   0       5.690   7.074  61.802  0.00  0.00    +0.000 C 
ATOM     10  H   UNL     1       5.714   5.787  60.167  0.00  0.00    +0.000 HD
ATOM     11  CA  UNL     1       6.879   7.348  59.648  0.00  0.00    +0.000 C 
BRANCH  11  13
ATOM     12  OXT UNL     1       7.085   7.262  57.270  0.00  0.00    +0.000 OA
ATOM     13  C   UNL     1       7.111   6.680  58.344  0.00  0.00    +0.000 C 
BRANCH  13  14
ATOM     14  O   UNL     1       7.353   5.364  58.435  0.00  0.00    +0.000 OA
ATOM     15  H   UNL     1       6.919   5.082  59.267  0.00  0.00    +0.000 HD
ENDBRANCH  13  14
ENDBRANCH  11  13
BRANCH  11  16
ATOM     16  CB  UNL     1       7.460   8.605  59.963  0.00  0.00    +0.000 C 
ATOM     17  CG  UNL     1       8.096   9.956  60.311  0.00  0.00    +0.000 C 
BRANCH  17  19
ATOM     18  OE2 UNL     1       8.151  12.286  60.494  0.00  0.00    +0.000 OA
ATOM     19  CD  UNL     1       8.702  11.208  60.647  0.00  0.00    +0.000 C 
BRANCH  19  20
ATOM     20  OE1 UNL     1       9.951  11.101  61.135  0.00  0.00    +0.000 OA
ATOM     21  HE1 UNL     1      10.511  11.146  60.335  0.00  0.00    +0.000 HD
ENDBRANCH  19  20
ENDBRANCH  17  19
ENDBRANCH  11  16
ENDBRANCH   2   9
BRANCH   1  22
ATOM     22  N   UNL     1       2.163   3.628  64.715  0.00  0.00    +0.000 N 
ATOM     23  C   UNL     1       0.772   3.990  64.922  0.00  0.00    +0.000 C 
BRANCH  22  24
ATOM     24  C   UNL     1       2.680   2.613  65.609  0.00  0.00    +0.000 C 
BRANCH  24  31
ATOM     25  N   UNL     1       4.182   0.904  66.038  0.00  0.00    +0.000 NA
ATOM     26  N   UNL     1       3.043   0.326  68.735  0.00  0.00    +0.000 NA
ATOM     27  N   UNL     1       4.581  -1.384  68.996  0.00  0.00    +0.000 NA
ATOM     28  N   UNL     1       6.234  -1.856  67.365  0.00  0.00    +0.000 NA
ATOM     29  N   UNL     1       6.504  -0.726  65.390  0.00  0.00    +0.000 N 
ATOM     30  N   UNL     1       6.061  -3.077  69.310  0.00  0.00    +0.000 N 
ATOM     31  C   UNL     1       3.186   1.617  66.484  0.00  0.00    +0.000 C 
ATOM     32  C   UNL     1       2.751   1.230  67.789  0.00  0.00    +0.000 C 
ATOM     33  C   UNL     1       4.665  -0.082  66.922  0.00  0.00    +0.000 C 
ATOM     34  C   UNL     1       4.050  -0.365  68.272  0.00  0.00    +0.000 C 
ATOM     35  C   UNL     1       5.830  -0.917  66.568  0.00  0.00    +0.000 C 
ATOM     36  C   UNL     1       5.582  -2.068  68.544  0.00  0.00    +0.000 C 
ATOM     37  H   UNL     1       7.055  -1.523  65.092  0.00  0.00    +0.000 HD
ATOM     38  H   UNL     1       5.989  -0.255  64.655  0.00  0.00    +0.000 HD
ATOM     39  H   UNL     1       7.040  -3.271  69.142  0.00  0.00    +0.000 HD
ATOM     40  H   UNL     1       5.811  -2.979  70.285  0.00  0.00    +0.000 HD
ENDBRANCH  24  31
ENDBRANCH  22  24
ENDBRANCH   1  22
TORSDOF 9
ENDMDL
MODEL 6
REMARK VINA RESULT:      -4.5     13.470     15.433
REMARK  Name = Methotrexate.pdbqt.pdb
REMARK  9 active torsions:
REMARK  status: ('A' for Active; 'I' for Inactive)
REMARK    1  A    between atoms: C_1  and  N_22
REMARK    2  A    between atoms: C_2  and  C_9
REMARK    3  A    between atoms: CA_11  and  C_13
REMARK    4  A    between atoms: CA_11  and  CB_16
REMARK    5  A    between atoms: C_13  and  O_14
REMARK    6  A    between atoms: CG_17  and  CD_19
REMARK    7  A    between atoms: CD_19  and  OE1_20
REMARK    8  A    between atoms: N_22  and  C_24
REMARK    9  A    between atoms: C_24  and  C_31
REMARK                            x       y       z     vdW  Elec       q    Type
REMARK                         _______ _______ _______ _____ _____    ______ ____
ROOT
ATOM      1  C   UNL     1      17.603   2.533  66.539  0.00  0.00    +0.000 A 
ATOM      2  C   UNL     1      16.474   4.710  67.948  0.00  0.00    +0.000 A 
ATOM      3  C   UNL     1      18.022   3.850  66.305  0.00  0.00    +0.000 A 
ATOM      4  C   UNL     1      16.595   2.340  67.495  0.00  0.00    +0.000 A 
ATOM      5  C   UNL     1      17.470   4.927  67.000  0.00  0.00    +0.000 A 
ATOM      6  C   UNL     1      16.037   3.410  68.194  0.00  0.00    +0.000 A 
ENDROOT
BRANCH   2   9
ATOM      7  O   UNL     1      15.215   5.554  69.721  0.00  0.00    +0.000 OA
ATOM      8  N   UNL     1      16.056   7.094  68.208  0.00  0.00    +0.000 N 
ATOM      9  C   ACE A   0      15.855   5.822  68.711  0.00  0.00    +0.000 C 
ATOM     10  H   UNL     1      16.602   7.217  67.360  0.00  0.00    +0.000 HD
ATOM     11  CA  UNL     1      15.581   8.282  68.733  0.00  0.00    +0.000 C 
BRANCH  11  13
ATOM     12  OXT UNL     1      15.810  10.640  68.425  0.00  0.00    +0.000 OA
ATOM     13  C   UNL     1      15.950   9.509  67.984  0.00  0.00    +0.000 C 
BRANCH  13  14
ATOM     14  O   UNL     1      16.455   9.278  66.764  0.00  0.00    +0.000 OA
ATOM     15  H   UNL     1      17.166   9.942  66.652  0.00  0.00    +0.000 HD
ENDBRANCH  13  14
ENDBRANCH  11  13
BRANCH  11  16
ATOM     16  CB  UNL     1      14.789   8.329  69.911  0.00  0.00    +0.000 C 
ATOM     17  CG  UNL     1      13.927   8.391  71.177  0.00  0.00    +0.000 C 
BRANCH  17  19
ATOM     18  OE2 UNL     1      13.293   9.270  73.248  0.00  0.00    +0.000 OA
ATOM     19  CD  UNL     1      13.113   8.463  72.352  0.00  0.00    +0.000 C 
BRANCH  19  20
ATOM     20  OE1 UNL     1      12.131   7.544  72.397  0.00  0.00    +0.000 OA
ATOM     21  HE1 UNL     1      11.445   7.972  72.946  0.00  0.00    +0.000 HD
ENDBRANCH  19  20
ENDBRANCH  17  19
ENDBRANCH  11  16
ENDBRANCH   2   9
BRANCH   1  22
ATOM     22  N   UNL     1      18.159   1.453  65.812  0.00  0.00    +0.000 N 
ATOM     23  C   UNL     1      18.452   0.183  66.451  0.00  0.00    +0.000 C 
BRANCH  22  24
ATOM     24  C   UNL     1      18.842   1.690  64.557  0.00  0.00    +0.000 C 
BRANCH  24  31
ATOM     25  N   UNL     1      19.591   0.908  62.510  0.00  0.00    +0.000 NA
ATOM     26  N   UNL     1      20.859   3.506  61.770  0.00  0.00    +0.000 NA
ATOM     27  N   UNL     1      21.577   2.566  59.781  0.00  0.00    +0.000 NA
ATOM     28  N   UNL     1      21.035   0.343  59.166  0.00  0.00    +0.000 NA
ATOM     29  N   UNL     1      19.782  -1.108  60.420  0.00  0.00    +0.000 N 
ATOM     30  N   UNL     1      22.315   1.700  57.816  0.00  0.00    +0.000 N 
ATOM     31  C   UNL     1      19.511   1.921  63.326  0.00  0.00    +0.000 C 
ATOM     32  C   UNL     1      20.157   3.097  62.837  0.00  0.00    +0.000 C 
ATOM     33  C   UNL     1      20.263   1.160  61.296  0.00  0.00    +0.000 C 
ATOM     34  C   UNL     1      20.914   2.481  60.962  0.00  0.00    +0.000 C 
ATOM     35  C   UNL     1      20.370   0.119  60.256  0.00  0.00    +0.000 C 
ATOM     36  C   UNL     1      21.631   1.555  58.976  0.00  0.00    +0.000 C 
ATOM     37  H   UNL     1      20.170  -1.838  59.834  0.00  0.00    +0.000 HD
ATOM     38  H   UNL     1      19.581  -1.380  61.377  0.00  0.00    +0.000 HD
ATOM     39  H   UNL     1      21.979   1.094  57.079  0.00  0.00    +0.000 HD
ATOM     40  H   UNL     1      22.428   2.669  57.548  0.00  0.00    +0.000 HD
ENDBRANCH  24  31
ENDBRANCH  22  24
ENDBRANCH   1  22
TORSDOF 9
ENDMDL
MODEL 7
REMARK VINA RESULT:      -4.5     11.081     12.840
REMARK  Name = Methotrexate.pdbqt.pdb
REMARK  9 active torsions:
REMARK  status: ('A' for Active; 'I' for Inactive)
REMARK    1  A    between atoms: C_1  and  N_22
REMARK    2  A    between atoms: C_2  and  C_9
REMARK    3  A    between atoms: CA_11  and  C_13
REMARK    4  A    between atoms: CA_11  and  CB_16
REMARK    5  A    between atoms: C_13  and  O_14
REMARK    6  A    between atoms: CG_17  and  CD_19
REMARK    7  A    between atoms: CD_19  and  OE1_20
REMARK    8  A    between atoms: N_22  and  C_24
REMARK    9  A    between atoms: C_24  and  C_31
REMARK                            x       y       z     vdW  Elec       q    Type
REMARK                         _______ _______ _______ _____ _____    ______ ____
ROOT
ATOM      1  C   UNL     1       9.272  10.341  74.791  0.00  0.00    +0.000 A 
ATOM      2  C   UNL     1      11.210   9.758  72.816  0.00  0.00    +0.000 A 
ATOM      3  C   UNL     1      10.429   9.611  75.096  0.00  0.00    +0.000 A 
ATOM      4  C   UNL     1       9.111  10.764  73.464  0.00  0.00    +0.000 A 
ATOM      5  C   UNL     1      11.389   9.323  74.126  0.00  0.00    +0.000 A 
ATOM      6  C   UNL     1      10.065  10.481  72.486  0.00  0.00    +0.000 A 
ENDROOT
BRANCH   2   9
ATOM      7  O   UNL     1      12.716   8.364  71.707  0.00  0.00    +0.000 OA
ATOM      8  N   UNL     1      12.463  10.510  70.869  0.00  0.00    +0.000 N 
ATOM      9  C   ACE A   0      12.201   9.475  71.747  0.00  0.00    +0.000 C 
ATOM     10  H   UNL     1      11.984  11.399  70.984  0.00  0.00    +0.000 HD
ATOM     11  CA  UNL     1      13.343  10.493  69.801  0.00  0.00    +0.000 C 
BRANCH  11  13
ATOM     12  OXT UNL     1      14.463  12.385  68.867  0.00  0.00    +0.000 OA
ATOM     13  C   UNL     1      13.429  11.751  69.020  0.00  0.00    +0.000 C 
BRANCH  13  14
ATOM     14  O   UNL     1      12.265  12.149  68.484  0.00  0.00    +0.000 OA
ATOM     15  H   UNL     1      11.637  12.178  69.235  0.00  0.00    +0.000 HD
ENDBRANCH  13  14
ENDBRANCH  11  13
BRANCH  11  16
ATOM     16  CB  UNL     1      14.117   9.349  69.473  0.00  0.00    +0.000 C 
ATOM     17  CG  UNL     1      14.952   8.117  69.105  0.00  0.00    +0.000 C 
BRANCH  17  19
ATOM     18  OE2 UNL     1      15.342   6.111  67.970  0.00  0.00    +0.000 OA
ATOM     19  CD  UNL     1      15.729   6.971  68.744  0.00  0.00    +0.000 C 
BRANCH  19  20
ATOM     20  OE1 UNL     1      16.929   6.907  69.349  0.00  0.00    +0.000 OA
ATOM     21  HE1 UNL     1      17.521   7.372  68.726  0.00  0.00    +0.000 HD
ENDBRANCH  19  20
ENDBRANCH  17  19
ENDBRANCH  11  16
ENDBRANCH   2   9
BRANCH   1  22
ATOM     22  N   UNL     1       8.298  10.608  75.783  0.00  0.00    +0.000 N 
ATOM     23  C   UNL     1       8.360  11.807  76.599  0.00  0.00    +0.000 C 
BRANCH  22  24
ATOM     24  C   UNL     1       7.479   9.537  76.312  0.00  0.00    +0.000 C 
BRANCH  24  31
ATOM     25  N   UNL     1       5.715   8.058  76.062  0.00  0.00    +0.000 NA
ATOM     26  N   UNL     1       6.056   6.898  78.790  0.00  0.00    +0.000 NA
ATOM     27  N   UNL     1       4.242   5.513  78.406  0.00  0.00    +0.000 NA
ATOM     28  N   UNL     1       3.094   5.480  76.334  0.00  0.00    +0.000 NA
ATOM     29  N   UNL     1       3.610   6.775  74.515  0.00  0.00    +0.000 N 
ATOM     30  N   UNL     1       2.468   4.131  78.092  0.00  0.00    +0.000 N 
ATOM     31  C   UNL     1       6.674   8.490  76.832  0.00  0.00    +0.000 C 
ATOM     32  C   UNL     1       6.718   7.839  78.103  0.00  0.00    +0.000 C 
ATOM     33  C   UNL     1       4.926   7.020  76.601  0.00  0.00    +0.000 C 
ATOM     34  C   UNL     1       5.111   6.472  77.995  0.00  0.00    +0.000 C 
ATOM     35  C   UNL     1       3.847   6.396  75.811  0.00  0.00    +0.000 C 
ATOM     36  C   UNL     1       3.308   5.084  77.621  0.00  0.00    +0.000 C 
ATOM     37  H   UNL     1       2.683   6.544  74.177  0.00  0.00    +0.000 HD
ATOM     38  H   UNL     1       3.952   7.692  74.251  0.00  0.00    +0.000 HD
ATOM     39  H   UNL     1       2.077   3.552  77.361  0.00  0.00    +0.000 HD
ATOM     40  H   UNL     1       2.856   3.620  78.874  0.00  0.00    +0.000 HD
ENDBRANCH  24  31
ENDBRANCH  22  24
ENDBRANCH   1  22
TORSDOF 9
ENDMDL
MODEL 8
REMARK VINA RESULT:      -4.5     14.934     16.756
REMARK  Name = Methotrexate.pdbqt.pdb
REMARK  9 active torsions:
REMARK  status: ('A' for Active; 'I' for Inactive)
REMARK    1  A    between atoms: C_1  and  N_22
REMARK    2  A    between atoms: C_2  and  C_9
REMARK    3  A    between atoms: CA_11  and  C_13
REMARK    4  A    between atoms: CA_11  and  CB_16
REMARK    5  A    between atoms: C_13  and  O_14
REMARK    6  A    between atoms: CG_17  and  CD_19
REMARK    7  A    between atoms: CD_19  and  OE1_20
REMARK    8  A    between atoms: N_22  and  C_24
REMARK    9  A    between atoms: C_24  and  C_31
REMARK                            x       y       z     vdW  Elec       q    Type
REMARK                         _______ _______ _______ _____ _____    ______ ____
ROOT
ATOM      1  C   UNL     1      20.339  -0.082  56.519  0.00  0.00    +0.000 A 
ATOM      2  C   UNL     1      18.633   0.799  54.444  0.00  0.00    +0.000 A 
ATOM      3  C   UNL     1      20.722   0.946  55.647  0.00  0.00    +0.000 A 
ATOM      4  C   UNL     1      19.078  -0.661  56.316  0.00  0.00    +0.000 A 
ATOM      5  C   UNL     1      19.883   1.386  54.623  0.00  0.00    +0.000 A 
ATOM      6  C   UNL     1      18.232  -0.228  55.295  0.00  0.00    +0.000 A 
ENDROOT
BRANCH   2   9
ATOM      7  O   UNL     1      16.716   0.545  53.140  0.00  0.00    +0.000 OA
ATOM      8  N   UNL     1      18.042   2.394  52.702  0.00  0.00    +0.000 N 
ATOM      9  C   ACE A   0      17.705   1.231  53.368  0.00  0.00    +0.000 C 
ATOM     10  H   UNL     1      18.887   2.895  52.964  0.00  0.00    +0.000 HD
ATOM     11  CA  UNL     1      17.345   2.994  51.668  0.00  0.00    +0.000 C 
BRANCH  11  13
ATOM     12  OXT UNL     1      17.916   5.313  51.725  0.00  0.00    +0.000 OA
ATOM     13  C   UNL     1      17.938   4.244  51.133  0.00  0.00    +0.000 C 
BRANCH  13  14
ATOM     14  O   UNL     1      18.510   4.111  49.927  0.00  0.00    +0.000 OA
ATOM     15  H   UNL     1      17.854   4.467  49.293  0.00  0.00    +0.000 HD
ENDBRANCH  13  14
ENDBRANCH  11  13
BRANCH  11  16
ATOM     16  CB  UNL     1      16.142   2.449  51.147  0.00  0.00    +0.000 C 
ATOM     17  CG  UNL     1      14.850   1.849  50.581  0.00  0.00    +0.000 C 
BRANCH  17  19
ATOM     18  OE2 UNL     1      13.292   1.420  48.892  0.00  0.00    +0.000 OA
ATOM     19  CD  UNL     1      13.653   1.273  50.047  0.00  0.00    +0.000 C 
BRANCH  19  20
ATOM     20  OE1 UNL     1      12.939   0.564  50.940  0.00  0.00    +0.000 OA
ATOM     21  HE1 UNL     1      13.463  -0.255  51.049  0.00  0.00    +0.000 HD
ENDBRANCH  19  20
ENDBRANCH  17  19
ENDBRANCH  11  16
ENDBRANCH   2   9
BRANCH   1  22
ATOM     22  N   UNL     1      21.210  -0.531  57.541  0.00  0.00    +0.000 N 
ATOM     23  C   UNL     1      21.890  -1.811  57.446  0.00  0.00    +0.000 C 
BRANCH  22  24
ATOM     24  C   UNL     1      21.130   0.033  58.872  0.00  0.00    +0.000 C 
BRANCH  24  31
ATOM     25  N   UNL     1      19.854   0.857  60.619  0.00  0.00    +0.000 NA
ATOM     26  N   UNL     1      22.232   1.491  62.306  0.00  0.00    +0.000 NA
ATOM     27  N   UNL     1      20.823   2.323  63.943  0.00  0.00    +0.000 NA
ATOM     28  N   UNL     1      18.464   2.261  63.732  0.00  0.00    +0.000 NA
ATOM     29  N   UNL     1      17.319   1.407  61.940  0.00  0.00    +0.000 N 
ATOM     30  N   UNL     1      19.495   3.158  65.585  0.00  0.00    +0.000 N 
ATOM     31  C   UNL     1      21.049   0.586  60.177  0.00  0.00    +0.000 C 
ATOM     32  C   UNL     1      22.087   0.939  61.093  0.00  0.00    +0.000 C 
ATOM     33  C   UNL     1      19.798   1.410  61.915  0.00  0.00    +0.000 C 
ATOM     34  C   UNL     1      21.023   1.740  62.734  0.00  0.00    +0.000 C 
ATOM     35  C   UNL     1      18.504   1.704  62.561  0.00  0.00    +0.000 C 
ATOM     36  C   UNL     1      19.628   2.568  64.373  0.00  0.00    +0.000 C 
ATOM     37  H   UNL     1      16.522   1.924  62.293  0.00  0.00    +0.000 HD
ATOM     38  H   UNL     1      17.359   1.308  60.931  0.00  0.00    +0.000 HD
ATOM     39  H   UNL     1      18.620   2.936  66.040  0.00  0.00    +0.000 HD
ATOM     40  H   UNL     1      20.315   3.045  66.166  0.00  0.00    +0.000 HD
ENDBRANCH  24  31
ENDBRANCH  22  24
ENDBRANCH   1  22
TORSDOF 9
ENDMDL
MODEL 9
REMARK VINA RESULT:      -4.4     11.964     13.606
REMARK  Name = Methotrexate.pdbqt.pdb
REMARK  9 active torsions:
REMARK  status: ('A' for Active; 'I' for Inactive)
REMARK    1  A    between atoms: C_1  and  N_22
REMARK    2  A    between atoms: C_2  and  C_9
REMARK    3  A    between atoms: CA_11  and  C_13
REMARK    4  A    between atoms: CA_11  and  CB_16
REMARK    5  A    between atoms: C_13  and  O_14
REMARK    6  A    between atoms: CG_17  and  CD_19
REMARK    7  A    between atoms: CD_19  and  OE1_20
REMARK    8  A    between atoms: N_22  and  C_24
REMARK    9  A    between atoms: C_24  and  C_31
REMARK                            x       y       z     vdW  Elec       q    Type
REMARK                         _______ _______ _______ _____ _____    ______ ____
ROOT
ATOM      1  C   UNL     1      13.353   3.511  74.837  0.00  0.00    +0.000 A 
ATOM      2  C   UNL     1      14.378   3.731  72.211  0.00  0.00    +0.000 A 
ATOM      3  C   UNL     1      13.974   2.426  74.202  0.00  0.00    +0.000 A 
ATOM      4  C   UNL     1      13.255   4.708  74.114  0.00  0.00    +0.000 A 
ATOM      5  C   UNL     1      14.483   2.530  72.907  0.00  0.00    +0.000 A 
ATOM      6  C   UNL     1      13.761   4.822  72.818  0.00  0.00    +0.000 A 
ENDROOT
BRANCH   2   9
ATOM      7  O   UNL     1      15.262   2.892  70.222  0.00  0.00    +0.000 OA
ATOM      8  N   UNL     1      14.939   5.183  70.339  0.00  0.00    +0.000 N 
ATOM      9  C   ACE A   0      14.902   3.892  70.831  0.00  0.00    +0.000 C 
ATOM     10  H   UNL     1      14.617   5.951  70.922  0.00  0.00    +0.000 HD
ATOM     11  CA  UNL     1      15.384   5.587  69.093  0.00  0.00    +0.000 C 
BRANCH  11  13
ATOM     12  OXT UNL     1      16.147   7.847  69.213  0.00  0.00    +0.000 OA
ATOM     13  C   UNL     1      15.312   7.045  68.825  0.00  0.00    +0.000 C 
BRANCH  13  14
ATOM     14  O   UNL     1      14.239   7.422  68.114  0.00  0.00    +0.000 OA
ATOM     15  H   UNL     1      13.507   7.472  68.763  0.00  0.00    +0.000 HD
ENDBRANCH  13  14
ENDBRANCH  11  13
BRANCH  11  16
ATOM     16  CB  UNL     1      15.882   4.670  68.130  0.00  0.00    +0.000 C 
ATOM     17  CG  UNL     1      16.431   3.677  67.099  0.00  0.00    +0.000 C 
BRANCH  17  19
ATOM     18  OE2 UNL     1      16.953   1.540  66.309  0.00  0.00    +0.000 OA
ATOM     19  CD  UNL     1      16.959   2.748  66.147  0.00  0.00    +0.000 C 
BRANCH  19  20
ATOM     20  OE1 UNL     1      17.488   3.325  65.052  0.00  0.00    +0.000 OA
ATOM     21  HE1 UNL     1      17.685   4.236  65.349  0.00  0.00    +0.000 HD
ENDBRANCH  19  20
ENDBRANCH  17  19
ENDBRANCH  11  16
ENDBRANCH   2   9
BRANCH   1  22
ATOM     22  N   UNL     1      12.824   3.383  76.144  0.00  0.00    +0.000 N 
ATOM     23  C   UNL     1      13.625   2.857  77.235  0.00  0.00    +0.000 C 
BRANCH  22  24
ATOM     24  C   UNL     1      11.392   3.353  76.354  0.00  0.00    +0.000 C 
BRANCH  24  31
ATOM     25  N   UNL     1       9.409   4.467  76.792  0.00  0.00    +0.000 NA
ATOM     26  N   UNL     1       7.787   1.963  76.807  0.00  0.00    +0.000 NA
ATOM     27  N   UNL     1       5.900   3.213  77.289  0.00  0.00    +0.000 NA
ATOM     28  N   UNL     1       5.955   5.576  77.448  0.00  0.00    +0.000 NA
ATOM     29  N   UNL     1       7.820   6.877  77.162  0.00  0.00    +0.000 N 
ATOM     30  N   UNL     1       4.012   4.382  77.767  0.00  0.00    +0.000 N 
ATOM     31  C   UNL     1       9.988   3.322  76.560  0.00  0.00    +0.000 C 
ATOM     32  C   UNL     1       9.086   2.214  76.594  0.00  0.00    +0.000 C 
ATOM     33  C   UNL     1       8.015   4.412  76.998  0.00  0.00    +0.000 C 
ATOM     34  C   UNL     1       7.227   3.124  77.022  0.00  0.00    +0.000 C 
ATOM     35  C   UNL     1       7.228   5.642  77.207  0.00  0.00    +0.000 C 
ATOM     36  C   UNL     1       5.340   4.360  77.498  0.00  0.00    +0.000 C 
ATOM     37  H   UNL     1       7.294   7.608  77.625  0.00  0.00    +0.000 HD
ATOM     38  H   UNL     1       8.821   6.895  77.321  0.00  0.00    +0.000 HD
ATOM     39  H   UNL     1       3.568   5.250  77.498  0.00  0.00    +0.000 HD
ATOM     40  H   UNL     1       3.537   3.547  77.452  0.00  0.00    +0.000 HD
ENDBRANCH  24  31
ENDBRANCH  22  24
ENDBRANCH   1  22
TORSDOF 9
ENDMDL
