MODEL 1
REMARK VINA RESULT:      -4.3      0.000      0.000
REMARK  Name = Monobenzone.pdbqt.pdb
REMARK  4 active torsions:
REMARK  status: ('A' for Active; 'I' for Inactive)
REMARK    1  A    between atoms: C_1  and  O_7
REMARK    2  A    between atoms: C_6  and  O_15
REMARK    3  A    between atoms: O_7  and  C_8
REMARK    4  A    between atoms: C_8  and  C_9
REMARK                            x       y       z     vdW  Elec       q    Type
REMARK                         _______ _______ _______ _____ _____    ______ ____
ROOT
ATOM      1  C   UNL     1       7.691   4.035  58.616  0.00  0.00    +0.000 A 
ATOM      2  C   UNL     1       8.818   3.211  58.686  0.00  0.00    +0.000 A 
ATOM      3  C   UNL     1       7.834   5.370  58.235  0.00  0.00    +0.000 A 
ATOM      4  C   UNL     1      10.078   3.718  58.378  0.00  0.00    +0.000 A 
ATOM      5  C   UNL     1       9.091   5.882  57.926  0.00  0.00    +0.000 A 
ATOM      6  C   UNL     1      10.204   5.050  58.000  0.00  0.00    +0.000 A 
ENDROOT
BRANCH   6   7
ATOM      7  O   UNL     1      11.426   5.573  57.692  0.00  0.00    +0.000 OA
ATOM      8  H   UNL     1      11.299   6.279  57.034  0.00  0.00    +0.000 HD
ENDBRANCH   6   7
BRANCH   1   9
ATOM      9  O   UNL     1       6.412   3.627  58.900  0.00  0.00    +0.000 OA
BRANCH   9  10
ATOM     10  C   UNL     1       5.861   4.212  59.961  0.00  0.00    +0.000 C 
BRANCH  10  11
ATOM     11  C   UNL     1       5.274   4.827  61.106  0.00  0.00    +0.000 A 
ATOM     12  C   UNL     1       5.478   6.184  61.346  0.00  0.00    +0.000 A 
ATOM     13  C   UNL     1       4.909   6.783  62.468  0.00  0.00    +0.000 A 
ATOM     14  C   UNL     1       4.138   6.025  63.346  0.00  0.00    +0.000 A 
ATOM     15  C   UNL     1       3.935   4.668  63.103  0.00  0.00    +0.000 A 
ATOM     16  C   UNL     1       4.503   4.067  61.983  0.00  0.00    +0.000 A 
ENDBRANCH  10  11
ENDBRANCH   9  10
ENDBRANCH   1   9
TORSDOF 4
ENDMDL
MODEL 2
REMARK VINA RESULT:      -3.9     15.870     17.365
REMARK  Name = Monobenzone.pdbqt.pdb
REMARK  4 active torsions:
REMARK  status: ('A' for Active; 'I' for Inactive)
REMARK    1  A    between atoms: C_1  and  O_7
REMARK    2  A    between atoms: C_6  and  O_15
REMARK    3  A    between atoms: O_7  and  C_8
REMARK    4  A    between atoms: C_8  and  C_9
REMARK                            x       y       z     vdW  Elec       q    Type
REMARK                         _______ _______ _______ _____ _____    ______ ____
ROOT
ATOM      1  C   UNL     1       7.937   4.808  77.125  0.00  0.00    +0.000 A 
ATOM      2  C   UNL     1       7.230   5.971  76.808  0.00  0.00    +0.000 A 
ATOM      3  C   UNL     1       7.305   3.567  77.028  0.00  0.00    +0.000 A 
ATOM      4  C   UNL     1       5.902   5.895  76.396  0.00  0.00    +0.000 A 
ATOM      5  C   UNL     1       5.977   3.485  76.618  0.00  0.00    +0.000 A 
ATOM      6  C   UNL     1       5.286   4.651  76.304  0.00  0.00    +0.000 A 
ENDROOT
BRANCH   6   7
ATOM      7  O   UNL     1       3.986   4.547  75.904  0.00  0.00    +0.000 OA
ATOM      8  H   UNL     1       3.441   5.105  76.486  0.00  0.00    +0.000 HD
ENDBRANCH   6   7
BRANCH   1   9
ATOM      9  O   UNL     1       9.245   4.783  77.538  0.00  0.00    +0.000 OA
BRANCH   9  10
ATOM     10  C   UNL     1      10.076   4.135  76.725  0.00  0.00    +0.000 C 
BRANCH  10  11
ATOM     11  C   UNL     1      10.954   3.434  75.846  0.00  0.00    +0.000 A 
ATOM     12  C   UNL     1      10.694   2.105  75.522  0.00  0.00    +0.000 A 
ATOM     13  C   UNL     1      11.554   1.419  74.667  0.00  0.00    +0.000 A 
ATOM     14  C   UNL     1      12.671   2.062  74.140  0.00  0.00    +0.000 A 
ATOM     15  C   UNL     1      12.929   3.392  74.466  0.00  0.00    +0.000 A 
ATOM     16  C   UNL     1      12.070   4.080  75.319  0.00  0.00    +0.000 A 
ENDBRANCH  10  11
ENDBRANCH   9  10
ENDBRANCH   1   9
TORSDOF 4
ENDMDL
MODEL 3
REMARK VINA RESULT:      -3.9      2.252      3.047
REMARK  Name = Monobenzone.pdbqt.pdb
REMARK  4 active torsions:
REMARK  status: ('A' for Active; 'I' for Inactive)
REMARK    1  A    between atoms: C_1  and  O_7
REMARK    2  A    between atoms: C_6  and  O_15
REMARK    3  A    between atoms: O_7  and  C_8
REMARK    4  A    between atoms: C_8  and  C_9
REMARK                            x       y       z     vdW  Elec       q    Type
REMARK                         _______ _______ _______ _____ _____    ______ ____
ROOT
ATOM      1  C   UNL     1       8.205   5.510  58.038  0.00  0.00    +0.000 A 
ATOM      2  C   UNL     1       7.445   4.338  58.020  0.00  0.00    +0.000 A 
ATOM      3  C   UNL     1       9.587   5.435  58.219  0.00  0.00    +0.000 A 
ATOM      4  C   UNL     1       8.060   3.100  58.181  0.00  0.00    +0.000 A 
ATOM      5  C   UNL     1      10.208   4.199  58.382  0.00  0.00    +0.000 A 
ATOM      6  C   UNL     1       9.439   3.040  58.361  0.00  0.00    +0.000 A 
ENDROOT
BRANCH   6   7
ATOM      7  O   UNL     1      10.068   1.841  58.522  0.00  0.00    +0.000 OA
ATOM      8  H   UNL     1       9.394   1.139  58.521  0.00  0.00    +0.000 HD
ENDBRANCH   6   7
BRANCH   1   9
ATOM      9  O   UNL     1       7.690   6.773  57.887  0.00  0.00    +0.000 OA
BRANCH   9  10
ATOM     10  C   UNL     1       7.235   7.329  59.007  0.00  0.00    +0.000 C 
BRANCH  10  11
ATOM     11  C   UNL     1       6.746   7.909  60.215  0.00  0.00    +0.000 A 
ATOM     12  C   UNL     1       6.996   9.252  60.489  0.00  0.00    +0.000 A 
ATOM     13  C   UNL     1       6.523   9.818  61.671  0.00  0.00    +0.000 A 
ATOM     14  C   UNL     1       5.802   9.041  62.575  0.00  0.00    +0.000 A 
ATOM     15  C   UNL     1       5.554   7.698  62.298  0.00  0.00    +0.000 A 
ATOM     16  C   UNL     1       6.025   7.131  61.118  0.00  0.00    +0.000 A 
ENDBRANCH  10  11
ENDBRANCH   9  10
ENDBRANCH   1   9
TORSDOF 4
ENDMDL
MODEL 4
REMARK VINA RESULT:      -3.7     10.052     13.513
REMARK  Name = Monobenzone.pdbqt.pdb
REMARK  4 active torsions:
REMARK  status: ('A' for Active; 'I' for Inactive)
REMARK    1  A    between atoms: C_1  and  O_7
REMARK    2  A    between atoms: C_6  and  O_15
REMARK    3  A    between atoms: O_7  and  C_8
REMARK    4  A    between atoms: C_8  and  C_9
REMARK                            x       y       z     vdW  Elec       q    Type
REMARK                         _______ _______ _______ _____ _____    ______ ____
ROOT
ATOM      1  C   UNL     1      16.664  -1.623  57.302  0.00  0.00    +0.000 A 
ATOM      2  C   UNL     1      15.727  -1.688  56.268  0.00  0.00    +0.000 A 
ATOM      3  C   UNL     1      16.230  -1.471  58.620  0.00  0.00    +0.000 A 
ATOM      4  C   UNL     1      14.366  -1.602  56.548  0.00  0.00    +0.000 A 
ATOM      5  C   UNL     1      14.870  -1.383  58.905  0.00  0.00    +0.000 A 
ATOM      6  C   UNL     1      13.948  -1.451  57.866  0.00  0.00    +0.000 A 
ENDROOT
BRANCH   6   7
ATOM      7  O   UNL     1      12.621  -1.364  58.169  0.00  0.00    +0.000 OA
ATOM      8  H   UNL     1      12.261  -0.567  57.741  0.00  0.00    +0.000 HD
ENDBRANCH   6   7
BRANCH   1   9
ATOM      9  O   UNL     1      18.023  -1.699  57.125  0.00  0.00    +0.000 OA
BRANCH   9  10
ATOM     10  C   UNL     1      18.534  -0.777  56.313  0.00  0.00    +0.000 C 
BRANCH  10  11
ATOM     11  C   UNL     1      19.092   0.201  55.438  0.00  0.00    +0.000 A 
ATOM     12  C   UNL     1      20.366   0.707  55.687  0.00  0.00    +0.000 A 
ATOM     13  C   UNL     1      20.909   1.667  54.835  0.00  0.00    +0.000 A 
ATOM     14  C   UNL     1      20.178   2.117  53.738  0.00  0.00    +0.000 A 
ATOM     15  C   UNL     1      18.904   1.609  53.491  0.00  0.00    +0.000 A 
ATOM     16  C   UNL     1      18.360   0.650  54.341  0.00  0.00    +0.000 A 
ENDBRANCH  10  11
ENDBRANCH   9  10
ENDBRANCH   1   9
TORSDOF 4
ENDMDL
MODEL 5
REMARK VINA RESULT:      -3.6      8.553     10.797
REMARK  Name = Monobenzone.pdbqt.pdb
REMARK  4 active torsions:
REMARK  status: ('A' for Active; 'I' for Inactive)
REMARK    1  A    between atoms: C_1  and  O_7
REMARK    2  A    between atoms: C_6  and  O_15
REMARK    3  A    between atoms: O_7  and  C_8
REMARK    4  A    between atoms: C_8  and  C_9
REMARK                            x       y       z     vdW  Elec       q    Type
REMARK                         _______ _______ _______ _____ _____    ______ ____
ROOT
ATOM      1  C   UNL     1       4.638  -0.369  67.070  0.00  0.00    +0.000 A 
ATOM      2  C   UNL     1       3.980  -0.622  68.277  0.00  0.00    +0.000 A 
ATOM      3  C   UNL     1       4.395   0.824  66.388  0.00  0.00    +0.000 A 
ATOM      4  C   UNL     1       3.087   0.310  68.798  0.00  0.00    +0.000 A 
ATOM      5  C   UNL     1       3.502   1.759  66.904  0.00  0.00    +0.000 A 
ATOM      6  C   UNL     1       2.856   1.495  68.107  0.00  0.00    +0.000 A 
ENDROOT
BRANCH   6   7
ATOM      7  O   UNL     1       1.986   2.426  68.594  0.00  0.00    +0.000 OA
ATOM      8  H   UNL     1       1.602   2.083  69.420  0.00  0.00    +0.000 HD
ENDBRANCH   6   7
BRANCH   1   9
ATOM      9  O   UNL     1       5.533  -1.226  66.480  0.00  0.00    +0.000 OA
BRANCH   9  10
ATOM     10  C   UNL     1       6.788  -1.104  66.906  0.00  0.00    +0.000 C 
BRANCH  10  11
ATOM     11  C   UNL     1       8.132  -0.959  67.361  0.00  0.00    +0.000 A 
ATOM     12  C   UNL     1       9.176  -0.930  66.440  0.00  0.00    +0.000 A 
ATOM     13  C   UNL     1      10.489  -0.793  66.885  0.00  0.00    +0.000 A 
ATOM     14  C   UNL     1      10.755  -0.685  68.248  0.00  0.00    +0.000 A 
ATOM     15  C   UNL     1       9.708  -0.713  69.167  0.00  0.00    +0.000 A 
ATOM     16  C   UNL     1       8.395  -0.850  68.724  0.00  0.00    +0.000 A 
ENDBRANCH  10  11
ENDBRANCH   9  10
ENDBRANCH   1   9
TORSDOF 4
ENDMDL
MODEL 6
REMARK VINA RESULT:      -3.5      8.956     10.428
REMARK  Name = Monobenzone.pdbqt.pdb
REMARK  4 active torsions:
REMARK  status: ('A' for Active; 'I' for Inactive)
REMARK    1  A    between atoms: C_1  and  O_7
REMARK    2  A    between atoms: C_6  and  O_15
REMARK    3  A    between atoms: O_7  and  C_8
REMARK    4  A    between atoms: C_8  and  C_9
REMARK                            x       y       z     vdW  Elec       q    Type
REMARK                         _______ _______ _______ _____ _____    ______ ____
ROOT
ATOM      1  C   UNL     1      15.791  11.583  60.802  0.00  0.00    +0.000 A 
ATOM      2  C   UNL     1      15.786  10.220  61.106  0.00  0.00    +0.000 A 
ATOM      3  C   UNL     1      16.765  12.097  59.945  0.00  0.00    +0.000 A 
ATOM      4  C   UNL     1      16.747   9.375  60.556  0.00  0.00    +0.000 A 
ATOM      5  C   UNL     1      17.729  11.258  59.393  0.00  0.00    +0.000 A 
ATOM      6  C   UNL     1      17.712   9.902  59.703  0.00  0.00    +0.000 A 
ENDROOT
BRANCH   6   7
ATOM      7  O   UNL     1      18.665   9.098  59.151  0.00  0.00    +0.000 OA
ATOM      8  H   UNL     1      18.219   8.370  58.685  0.00  0.00    +0.000 HD
ENDBRANCH   6   7
BRANCH   1   9
ATOM      9  O   UNL     1      14.887  12.492  61.294  0.00  0.00    +0.000 OA
BRANCH   9  10
ATOM     10  C   UNL     1      13.725  12.531  60.646  0.00  0.00    +0.000 C 
BRANCH  10  11
ATOM     11  C   UNL     1      12.478  12.558  59.954  0.00  0.00    +0.000 A 
ATOM     12  C   UNL     1      11.298  12.284  60.641  0.00  0.00    +0.000 A 
ATOM     13  C   UNL     1      10.081  12.305  59.964  0.00  0.00    +0.000 A 
ATOM     14  C   UNL     1      10.046  12.599  58.603  0.00  0.00    +0.000 A 
ATOM     15  C   UNL     1      11.228  12.873  57.918  0.00  0.00    +0.000 A 
ATOM     16  C   UNL     1      12.446  12.853  58.593  0.00  0.00    +0.000 A 
ENDBRANCH  10  11
ENDBRANCH   9  10
ENDBRANCH   1   9
TORSDOF 4
ENDMDL
MODEL 7
REMARK VINA RESULT:      -3.4     11.129     12.615
REMARK  Name = Monobenzone.pdbqt.pdb
REMARK  4 active torsions:
REMARK  status: ('A' for Active; 'I' for Inactive)
REMARK    1  A    between atoms: C_1  and  O_7
REMARK    2  A    between atoms: C_6  and  O_15
REMARK    3  A    between atoms: O_7  and  C_8
REMARK    4  A    between atoms: C_8  and  C_9
REMARK                            x       y       z     vdW  Elec       q    Type
REMARK                         _______ _______ _______ _____ _____    ______ ____
ROOT
ATOM      1  C   UNL     1      19.554   8.941  56.598  0.00  0.00    +0.000 A 
ATOM      2  C   UNL     1      18.332   9.123  55.945  0.00  0.00    +0.000 A 
ATOM      3  C   UNL     1      20.668   8.514  55.874  0.00  0.00    +0.000 A 
ATOM      4  C   UNL     1      18.225   8.880  54.578  0.00  0.00    +0.000 A 
ATOM      5  C   UNL     1      20.566   8.269  54.508  0.00  0.00    +0.000 A 
ATOM      6  C   UNL     1      19.344   8.454  53.870  0.00  0.00    +0.000 A 
ENDROOT
BRANCH   6   7
ATOM      7  O   UNL     1      19.268   8.209  52.530  0.00  0.00    +0.000 OA
ATOM      8  H   UNL     1      20.113   7.823  52.241  0.00  0.00    +0.000 HD
ENDBRANCH   6   7
BRANCH   1   9
ATOM      9  O   UNL     1      19.757   9.155  57.939  0.00  0.00    +0.000 OA
BRANCH   9  10
ATOM     10  C   UNL     1      18.706   9.646  58.592  0.00  0.00    +0.000 C 
BRANCH  10  11
ATOM     11  C   UNL     1      17.590  10.180  59.301  0.00  0.00    +0.000 A 
ATOM     12  C   UNL     1      17.069  11.420  58.940  0.00  0.00    +0.000 A 
ATOM     13  C   UNL     1      15.982  11.945  59.637  0.00  0.00    +0.000 A 
ATOM     14  C   UNL     1      15.420  11.229  60.691  0.00  0.00    +0.000 A 
ATOM     15  C   UNL     1      15.943   9.988  61.049  0.00  0.00    +0.000 A 
ATOM     16  C   UNL     1      17.029   9.463  60.355  0.00  0.00    +0.000 A 
ENDBRANCH  10  11
ENDBRANCH   9  10
ENDBRANCH   1   9
TORSDOF 4
ENDMDL
MODEL 8
REMARK VINA RESULT:      -3.4      9.729     11.828
REMARK  Name = Monobenzone.pdbqt.pdb
REMARK  4 active torsions:
REMARK  status: ('A' for Active; 'I' for Inactive)
REMARK    1  A    between atoms: C_1  and  O_7
REMARK    2  A    between atoms: C_6  and  O_15
REMARK    3  A    between atoms: O_7  and  C_8
REMARK    4  A    between atoms: C_8  and  C_9
REMARK                            x       y       z     vdW  Elec       q    Type
REMARK                         _______ _______ _______ _____ _____    ______ ____
ROOT
ATOM      1  C   UNL     1      17.725  -0.931  55.506  0.00  0.00    +0.000 A 
ATOM      2  C   UNL     1      17.321  -0.151  54.420  0.00  0.00    +0.000 A 
ATOM      3  C   UNL     1      18.950  -0.674  56.125  0.00  0.00    +0.000 A 
ATOM      4  C   UNL     1      18.134   0.879  53.954  0.00  0.00    +0.000 A 
ATOM      5  C   UNL     1      19.767   0.354  55.663  0.00  0.00    +0.000 A 
ATOM      6  C   UNL     1      19.352   1.123  54.581  0.00  0.00    +0.000 A 
ENDROOT
BRANCH   6   7
ATOM      7  O   UNL     1      20.169   2.126  54.146  0.00  0.00    +0.000 OA
ATOM      8  H   UNL     1      20.743   1.770  53.446  0.00  0.00    +0.000 HD
ENDBRANCH   6   7
BRANCH   1   9
ATOM      9  O   UNL     1      16.993  -1.965  56.035  0.00  0.00    +0.000 OA
BRANCH   9  10
ATOM     10  C   UNL     1      16.347  -1.674  57.161  0.00  0.00    +0.000 C 
BRANCH  10  11
ATOM     11  C   UNL     1      15.665  -1.351  58.372  0.00  0.00    +0.000 A 
ATOM     12  C   UNL     1      16.379  -1.252  59.563  0.00  0.00    +0.000 A 
ATOM     13  C   UNL     1      15.712  -0.942  60.747  0.00  0.00    +0.000 A 
ATOM     14  C   UNL     1      14.335  -0.732  60.736  0.00  0.00    +0.000 A 
ATOM     15  C   UNL     1      13.623  -0.831  59.542  0.00  0.00    +0.000 A 
ATOM     16  C   UNL     1      14.288  -1.141  58.358  0.00  0.00    +0.000 A 
ENDBRANCH  10  11
ENDBRANCH   9  10
ENDBRANCH   1   9
TORSDOF 4
ENDMDL
MODEL 9
REMARK VINA RESULT:      -3.4      8.400     11.627
REMARK  Name = Monobenzone.pdbqt.pdb
REMARK  4 active torsions:
REMARK  status: ('A' for Active; 'I' for Inactive)
REMARK    1  A    between atoms: C_1  and  O_7
REMARK    2  A    between atoms: C_6  and  O_15
REMARK    3  A    between atoms: O_7  and  C_8
REMARK    4  A    between atoms: C_8  and  C_9
REMARK                            x       y       z     vdW  Elec       q    Type
REMARK                         _______ _______ _______ _____ _____    ______ ____
ROOT
ATOM      1  C   UNL     1       1.624   8.367  67.853  0.00  0.00    +0.000 A 
ATOM      2  C   UNL     1       1.964   7.101  68.336  0.00  0.00    +0.000 A 
ATOM      3  C   UNL     1       1.572   8.591  66.476  0.00  0.00    +0.000 A 
ATOM      4  C   UNL     1       2.249   6.066  67.450  0.00  0.00    +0.000 A 
ATOM      5  C   UNL     1       1.857   7.558  65.586  0.00  0.00    +0.000 A 
ATOM      6  C   UNL     1       2.193   6.303  66.081  0.00  0.00    +0.000 A 
ENDROOT
BRANCH   6   7
ATOM      7  O   UNL     1       2.468   5.306  65.191  0.00  0.00    +0.000 OA
ATOM      8  H   UNL     1       2.022   5.515  64.352  0.00  0.00    +0.000 HD
ENDBRANCH   6   7
BRANCH   1   9
ATOM      9  O   UNL     1       1.327   9.448  68.646  0.00  0.00    +0.000 OA
BRANCH   9  10
ATOM     10  C   UNL     1       1.576   9.275  69.941  0.00  0.00    +0.000 C 
BRANCH  10  11
ATOM     11  C   UNL     1       1.832   9.078  71.331  0.00  0.00    +0.000 A 
ATOM     12  C   UNL     1       2.977   8.394  71.734  0.00  0.00    +0.000 A 
ATOM     13  C   UNL     1       3.225   8.197  73.091  0.00  0.00    +0.000 A 
ATOM     14  C   UNL     1       2.329   8.684  74.040  0.00  0.00    +0.000 A 
ATOM     15  C   UNL     1       1.185   9.368  73.634  0.00  0.00    +0.000 A 
ATOM     16  C   UNL     1       0.936   9.566  72.278  0.00  0.00    +0.000 A 
ENDBRANCH  10  11
ENDBRANCH   9  10
ENDBRANCH   1   9
TORSDOF 4
ENDMDL
