MODEL 1
REMARK VINA RESULT:      -4.0      0.000      0.000
REMARK  Name = 
REMARK  5 active torsions:
REMARK  status: ('A' for Active; 'I' for Inactive)
REMARK    1  A    between atoms: O_4  and  C_15
REMARK    2  A    between atoms: C_6  and  C_13
REMARK    3  A    between atoms: C_7  and  C_12
REMARK    4  A    between atoms: C_8  and  C_14
REMARK    5  A    between atoms: C_12  and  C_15
REMARK                            x       y       z     vdW  Elec       q    Type
REMARK                         _______ _______ _______ _____ _____    ______ ____
ROOT
ATOM      1  C   UNL     1      19.604   0.925  54.795  0.00  0.00    +0.000 A 
ATOM      2  C   UNL     1      18.295   1.788  52.912  0.00  0.00    +0.000 A 
ATOM      3  C   UNL     1      20.662   1.796  54.454  0.00  0.00    +0.000 A 
ATOM      4  C   UNL     1      18.431   0.935  54.014  0.00  0.00    +0.000 A 
ATOM      5  C   UNL     1      19.355   2.636  52.579  0.00  0.00    +0.000 A 
ATOM      6  C   UNL     1      20.523   2.641  53.343  0.00  0.00    +0.000 A 
ATOM      7  C   UNL     1      21.941   1.828  55.246  0.00  0.00    +0.000 C 
ENDROOT
BRANCH   1  11
ATOM      8  F   UNL     1      18.486  -0.475  56.386  0.00  0.00    +0.000 F 
ATOM      9  F   UNL     1      20.446  -1.131  55.727  0.00  0.00    +0.000 F 
ATOM     10  F   UNL     1      20.270   0.564  57.072  0.00  0.00    +0.000 F 
ATOM     11  C   UNL     1      19.702  -0.015  55.977  0.00  0.00    +0.000 C 
ENDBRANCH   1  11
BRANCH   2  12
ATOM     12  C   UNL     1      17.037   1.770  52.076  0.00  0.00    +0.000 C 
BRANCH  12  14
ATOM     13  O   UNL     1      15.169   0.509  53.061  0.00  0.00    +0.000 OA
ATOM     14  C   UNL     1      15.775   1.550  52.874  0.00  0.00    +0.000 C 
BRANCH  14  15
ATOM     15  O   UNL     1      15.333   2.696  53.436  0.00  0.00    +0.000 OA
ATOM     16  H   UNL     1      15.041   2.418  54.332  0.00  0.00    +0.000 HD
ENDBRANCH  14  15
ENDBRANCH  12  14
ENDBRANCH   2  12
TORSDOF 4
ENDMDL
MODEL 2
REMARK VINA RESULT:      -3.8     21.512     22.870
REMARK  Name = 
REMARK  5 active torsions:
REMARK  status: ('A' for Active; 'I' for Inactive)
REMARK    1  A    between atoms: O_4  and  C_15
REMARK    2  A    between atoms: C_6  and  C_13
REMARK    3  A    between atoms: C_7  and  C_12
REMARK    4  A    between atoms: C_8  and  C_14
REMARK    5  A    between atoms: C_12  and  C_15
REMARK                            x       y       z     vdW  Elec       q    Type
REMARK                         _______ _______ _______ _____ _____    ______ ____
ROOT
ATOM      1  C   UNL     1      10.523   3.743  76.214  0.00  0.00    +0.000 A 
ATOM      2  C   UNL     1      12.461   3.229  74.804  0.00  0.00    +0.000 A 
ATOM      3  C   UNL     1      10.053   2.423  76.042  0.00  0.00    +0.000 A 
ATOM      4  C   UNL     1      11.726   4.127  75.588  0.00  0.00    +0.000 A 
ATOM      5  C   UNL     1      11.977   1.928  74.634  0.00  0.00    +0.000 A 
ATOM      6  C   UNL     1      10.789   1.530  75.248  0.00  0.00    +0.000 A 
ATOM      7  C   UNL     1       8.773   1.954  76.679  0.00  0.00    +0.000 C 
ENDROOT
BRANCH   1  11
ATOM      8  F   UNL     1      10.327   5.992  77.016  0.00  0.00    +0.000 F 
ATOM      9  F   UNL     1       8.472   4.927  76.657  0.00  0.00    +0.000 F 
ATOM     10  F   UNL     1       9.702   4.406  78.369  0.00  0.00    +0.000 F 
ATOM     11  C   UNL     1       9.765   4.750  77.052  0.00  0.00    +0.000 C 
ENDBRANCH   1  11
BRANCH   2  12
ATOM     12  C   UNL     1      13.739   3.666  74.127  0.00  0.00    +0.000 C 
BRANCH  12  14
ATOM     13  O   UNL     1      13.569   3.224  71.713  0.00  0.00    +0.000 OA
ATOM     14  C   UNL     1      13.575   3.990  72.663  0.00  0.00    +0.000 C 
BRANCH  14  15
ATOM     15  O   UNL     1      13.400   5.314  72.460  0.00  0.00    +0.000 OA
ATOM     16  H   UNL     1      12.729   5.565  73.131  0.00  0.00    +0.000 HD
ENDBRANCH  14  15
ENDBRANCH  12  14
ENDBRANCH   2  12
TORSDOF 4
ENDMDL
MODEL 3
REMARK VINA RESULT:      -3.8     22.906     24.138
REMARK  Name = 
REMARK  5 active torsions:
REMARK  status: ('A' for Active; 'I' for Inactive)
REMARK    1  A    between atoms: O_4  and  C_15
REMARK    2  A    between atoms: C_6  and  C_13
REMARK    3  A    between atoms: C_7  and  C_12
REMARK    4  A    between atoms: C_8  and  C_14
REMARK    5  A    between atoms: C_12  and  C_15
REMARK                            x       y       z     vdW  Elec       q    Type
REMARK                         _______ _______ _______ _____ _____    ______ ____
ROOT
ATOM      1  C   UNL     1      10.773   3.712  76.054  0.00  0.00    +0.000 A 
ATOM      2  C   UNL     1       8.517   3.535  76.994  0.00  0.00    +0.000 A 
ATOM      3  C   UNL     1      10.725   2.348  75.693  0.00  0.00    +0.000 A 
ATOM      4  C   UNL     1       9.662   4.287  76.703  0.00  0.00    +0.000 A 
ATOM      5  C   UNL     1       8.489   2.183  76.642  0.00  0.00    +0.000 A 
ATOM      6  C   UNL     1       9.579   1.597  75.997  0.00  0.00    +0.000 A 
ATOM      7  C   UNL     1      11.882   1.675  75.004  0.00  0.00    +0.000 C 
ENDROOT
BRANCH   1  11
ATOM      8  F   UNL     1      11.801   5.876  76.091  0.00  0.00    +0.000 F 
ATOM      9  F   UNL     1      13.106   4.178  76.436  0.00  0.00    +0.000 F 
ATOM     10  F   UNL     1      12.336   4.560  74.443  0.00  0.00    +0.000 F 
ATOM     11  C   UNL     1      11.987   4.567  75.760  0.00  0.00    +0.000 C 
ENDBRANCH   1  11
BRANCH   2  12
ATOM     12  C   UNL     1       7.343   4.166  77.707  0.00  0.00    +0.000 C 
BRANCH  12  14
ATOM     13  O   UNL     1       6.359   5.786  76.139  0.00  0.00    +0.000 OA
ATOM     14  C   UNL     1       6.306   4.749  76.779  0.00  0.00    +0.000 C 
BRANCH  14  15
ATOM     15  O   UNL     1       5.217   3.955  76.684  0.00  0.00    +0.000 OA
ATOM     16  H   UNL     1       5.443   3.338  75.954  0.00  0.00    +0.000 HD
ENDBRANCH  14  15
ENDBRANCH  12  14
ENDBRANCH   2  12
TORSDOF 4
ENDMDL
MODEL 4
REMARK VINA RESULT:      -3.7     23.848     24.982
REMARK  Name = 
REMARK  5 active torsions:
REMARK  status: ('A' for Active; 'I' for Inactive)
REMARK    1  A    between atoms: O_4  and  C_15
REMARK    2  A    between atoms: C_6  and  C_13
REMARK    3  A    between atoms: C_7  and  C_12
REMARK    4  A    between atoms: C_8  and  C_14
REMARK    5  A    between atoms: C_12  and  C_15
REMARK                            x       y       z     vdW  Elec       q    Type
REMARK                         _______ _______ _______ _____ _____    ______ ____
ROOT
ATOM      1  C   UNL     1       8.403   2.018  76.538  0.00  0.00    +0.000 A 
ATOM      2  C   UNL     1       7.084   3.996  77.133  0.00  0.00    +0.000 A 
ATOM      3  C   UNL     1       9.575   2.804  76.537  0.00  0.00    +0.000 A 
ATOM      4  C   UNL     1       7.169   2.629  76.836  0.00  0.00    +0.000 A 
ATOM      5  C   UNL     1       8.252   4.764  77.117  0.00  0.00    +0.000 A 
ATOM      6  C   UNL     1       9.483   4.174  76.825  0.00  0.00    +0.000 A 
ATOM      7  C   UNL     1      10.922   2.210  76.220  0.00  0.00    +0.000 C 
ENDROOT
BRANCH   1  11
ATOM      8  F   UNL     1       9.001   0.271  75.010  0.00  0.00    +0.000 F 
ATOM      9  F   UNL     1       9.166  -0.192  77.122  0.00  0.00    +0.000 F 
ATOM     10  F   UNL     1       7.206  -0.035  76.202  0.00  0.00    +0.000 F 
ATOM     11  C   UNL     1       8.442   0.537  76.225  0.00  0.00    +0.000 C 
ENDBRANCH   1  11
BRANCH   2  12
ATOM     12  C   UNL     1       5.750   4.636  77.433  0.00  0.00    +0.000 C 
BRANCH  12  14
ATOM     13  O   UNL     1       5.204   6.365  75.770  0.00  0.00    +0.000 OA
ATOM     14  C   UNL     1       5.076   5.241  76.225  0.00  0.00    +0.000 C 
BRANCH  14  15
ATOM     15  O   UNL     1       4.258   4.357  75.614  0.00  0.00    +0.000 OA
ATOM     16  H   UNL     1       3.360   4.713  75.789  0.00  0.00    +0.000 HD
ENDBRANCH  14  15
ENDBRANCH  12  14
ENDBRANCH   2  12
TORSDOF 4
ENDMDL
MODEL 5
REMARK VINA RESULT:      -3.3     18.151     19.140
REMARK  Name = 
REMARK  5 active torsions:
REMARK  status: ('A' for Active; 'I' for Inactive)
REMARK    1  A    between atoms: O_4  and  C_15
REMARK    2  A    between atoms: C_6  and  C_13
REMARK    3  A    between atoms: C_7  and  C_12
REMARK    4  A    between atoms: C_8  and  C_14
REMARK    5  A    between atoms: C_12  and  C_15
REMARK                            x       y       z     vdW  Elec       q    Type
REMARK                         _______ _______ _______ _____ _____    ______ ____
ROOT
ATOM      1  C   UNL     1      13.735   7.523  72.526  0.00  0.00    +0.000 A 
ATOM      2  C   UNL     1      14.356   8.548  70.388  0.00  0.00    +0.000 A 
ATOM      3  C   UNL     1      14.838   6.648  72.423  0.00  0.00    +0.000 A 
ATOM      4  C   UNL     1      13.510   8.464  71.502  0.00  0.00    +0.000 A 
ATOM      5  C   UNL     1      15.437   7.667  70.294  0.00  0.00    +0.000 A 
ATOM      6  C   UNL     1      15.676   6.730  71.300  0.00  0.00    +0.000 A 
ATOM      7  C   UNL     1      15.128   5.618  73.481  0.00  0.00    +0.000 C 
ENDROOT
BRANCH   1  11
ATOM      8  F   UNL     1      11.710   8.287  73.555  0.00  0.00    +0.000 F 
ATOM      9  F   UNL     1      12.280   6.231  73.948  0.00  0.00    +0.000 F 
ATOM     10  F   UNL     1      13.384   7.854  74.877  0.00  0.00    +0.000 F 
ATOM     11  C   UNL     1      12.792   7.473  73.710  0.00  0.00    +0.000 C 
ENDBRANCH   1  11
BRANCH   2  12
ATOM     12  C   UNL     1      14.086   9.551  69.291  0.00  0.00    +0.000 C 
BRANCH  12  14
ATOM     13  O   UNL     1      13.462   8.291  67.273  0.00  0.00    +0.000 OA
ATOM     14  C   UNL     1      14.241   8.990  67.899  0.00  0.00    +0.000 C 
BRANCH  14  15
ATOM     15  O   UNL     1      15.407   9.371  67.333  0.00  0.00    +0.000 OA
ATOM     16  H   UNL     1      15.301  10.339  67.213  0.00  0.00    +0.000 HD
ENDBRANCH  14  15
ENDBRANCH  12  14
ENDBRANCH   2  12
TORSDOF 4
ENDMDL
MODEL 6
REMARK VINA RESULT:      -3.3     22.785     24.006
REMARK  Name = 
REMARK  5 active torsions:
REMARK  status: ('A' for Active; 'I' for Inactive)
REMARK    1  A    between atoms: O_4  and  C_15
REMARK    2  A    between atoms: C_6  and  C_13
REMARK    3  A    between atoms: C_7  and  C_12
REMARK    4  A    between atoms: C_8  and  C_14
REMARK    5  A    between atoms: C_12  and  C_15
REMARK                            x       y       z     vdW  Elec       q    Type
REMARK                         _______ _______ _______ _____ _____    ______ ____
ROOT
ATOM      1  C   UNL     1       9.128   2.058  76.309  0.00  0.00    +0.000 A 
ATOM      2  C   UNL     1      11.317   2.491  75.296  0.00  0.00    +0.000 A 
ATOM      3  C   UNL     1       9.174   0.730  75.832  0.00  0.00    +0.000 A 
ATOM      4  C   UNL     1      10.205   2.923  76.032  0.00  0.00    +0.000 A 
ATOM      5  C   UNL     1      11.343   1.177  74.820  0.00  0.00    +0.000 A 
ATOM      6  C   UNL     1      10.285   0.307  75.087  0.00  0.00    +0.000 A 
ATOM      7  C   UNL     1       8.052  -0.239  76.090  0.00  0.00    +0.000 C 
ENDROOT
BRANCH   1  11
ATOM      8  F   UNL     1       6.767   2.450  76.441  0.00  0.00    +0.000 F 
ATOM      9  F   UNL     1       7.765   1.916  78.291  0.00  0.00    +0.000 F 
ATOM     10  F   UNL     1       8.062   3.889  77.436  0.00  0.00    +0.000 F 
ATOM     11  C   UNL     1       7.949   2.571  77.109  0.00  0.00    +0.000 C 
ENDBRANCH   1  11
BRANCH   2  12
ATOM     12  C   UNL     1      12.453   3.439  74.994  0.00  0.00    +0.000 C 
BRANCH  12  14
ATOM     13  O   UNL     1      13.021   4.576  77.100  0.00  0.00    +0.000 OA
ATOM     14  C   UNL     1      12.569   4.586  75.967  0.00  0.00    +0.000 C 
BRANCH  14  15
ATOM     15  O   UNL     1      12.109   5.740  75.437  0.00  0.00    +0.000 OA
ATOM     16  H   UNL     1      12.921   6.184  75.107  0.00  0.00    +0.000 HD
ENDBRANCH  14  15
ENDBRANCH  12  14
ENDBRANCH   2  12
TORSDOF 4
ENDMDL
MODEL 7
REMARK VINA RESULT:      -3.3     22.985     23.920
REMARK  Name = 
REMARK  5 active torsions:
REMARK  status: ('A' for Active; 'I' for Inactive)
REMARK    1  A    between atoms: O_4  and  C_15
REMARK    2  A    between atoms: C_6  and  C_13
REMARK    3  A    between atoms: C_7  and  C_12
REMARK    4  A    between atoms: C_8  and  C_14
REMARK    5  A    between atoms: C_12  and  C_15
REMARK                            x       y       z     vdW  Elec       q    Type
REMARK                         _______ _______ _______ _____ _____    ______ ____
ROOT
ATOM      1  C   UNL     1       9.059   2.520  76.565  0.00  0.00    +0.000 A 
ATOM      2  C   UNL     1       9.124   0.264  75.610  0.00  0.00    +0.000 A 
ATOM      3  C   UNL     1      10.330   2.788  76.012  0.00  0.00    +0.000 A 
ATOM      4  C   UNL     1       8.473   1.256  76.356  0.00  0.00    +0.000 A 
ATOM      5  C   UNL     1      10.387   0.539  75.078  0.00  0.00    +0.000 A 
ATOM      6  C   UNL     1      10.981   1.787  75.275  0.00  0.00    +0.000 A 
ATOM      7  C   UNL     1      11.010   4.116  76.206  0.00  0.00    +0.000 C 
ENDROOT
BRANCH   1  11
ATOM      8  F   UNL     1       8.952   3.873  78.541  0.00  0.00    +0.000 F 
ATOM      9  F   UNL     1       8.147   4.745  76.725  0.00  0.00    +0.000 F 
ATOM     10  F   UNL     1       7.062   3.158  77.734  0.00  0.00    +0.000 F 
ATOM     11  C   UNL     1       8.314   3.559  77.378  0.00  0.00    +0.000 C 
ENDBRANCH   1  11
BRANCH   2  12
ATOM     12  C   UNL     1       8.487  -1.091  75.412  0.00  0.00    +0.000 C 
BRANCH  12  14
ATOM     13  O   UNL     1       9.348  -2.500  73.588  0.00  0.00    +0.000 OA
ATOM     14  C   UNL     1       8.609  -1.624  74.005  0.00  0.00    +0.000 C 
BRANCH  14  15
ATOM     15  O   UNL     1       7.745  -1.016  73.164  0.00  0.00    +0.000 OA
ATOM     16  H   UNL     1       7.395  -1.754  72.618  0.00  0.00    +0.000 HD
ENDBRANCH  14  15
ENDBRANCH  12  14
ENDBRANCH   2  12
TORSDOF 4
ENDMDL
MODEL 8
REMARK VINA RESULT:      -3.1     24.266     25.314
REMARK  Name = 
REMARK  5 active torsions:
REMARK  status: ('A' for Active; 'I' for Inactive)
REMARK    1  A    between atoms: O_4  and  C_15
REMARK    2  A    between atoms: C_6  and  C_13
REMARK    3  A    between atoms: C_7  and  C_12
REMARK    4  A    between atoms: C_8  and  C_14
REMARK    5  A    between atoms: C_12  and  C_15
REMARK                            x       y       z     vdW  Elec       q    Type
REMARK                         _______ _______ _______ _____ _____    ______ ____
ROOT
ATOM      1  C   UNL     1       9.167   5.458  77.042  0.00  0.00    +0.000 A 
ATOM      2  C   UNL     1       6.926   4.471  76.934  0.00  0.00    +0.000 A 
ATOM      3  C   UNL     1       9.735   4.167  76.975  0.00  0.00    +0.000 A 
ATOM      4  C   UNL     1       7.764   5.591  77.022  0.00  0.00    +0.000 A 
ATOM      5  C   UNL     1       7.502   3.199  76.880  0.00  0.00    +0.000 A 
ATOM      6  C   UNL     1       8.890   3.049  76.897  0.00  0.00    +0.000 A 
ATOM      7  C   UNL     1      11.225   3.960  76.999  0.00  0.00    +0.000 C 
ENDROOT
BRANCH   1  11
ATOM      8  F   UNL     1      11.032   6.714  76.213  0.00  0.00    +0.000 F 
ATOM      9  F   UNL     1       9.341   7.859  76.944  0.00  0.00    +0.000 F 
ATOM     10  F   UNL     1      10.637   6.832  78.350  0.00  0.00    +0.000 F 
ATOM     11  C   UNL     1      10.030   6.698  77.137  0.00  0.00    +0.000 C 
ENDBRANCH   1  11
BRANCH   2  12
ATOM     12  C   UNL     1       5.424   4.633  76.932  0.00  0.00    +0.000 C 
BRANCH  12  14
ATOM     13  O   UNL     1       4.759   6.529  75.512  0.00  0.00    +0.000 OA
ATOM     14  C   UNL     1       4.887   5.332  75.707  0.00  0.00    +0.000 C 
BRANCH  14  15
ATOM     15  O   UNL     1       4.541   4.453  74.741  0.00  0.00    +0.000 OA
ATOM     16  H   UNL     1       4.269   3.653  75.242  0.00  0.00    +0.000 HD
ENDBRANCH  14  15
ENDBRANCH  12  14
ENDBRANCH   2  12
TORSDOF 4
ENDMDL
MODEL 9
REMARK VINA RESULT:      -3.0     23.102     24.197
REMARK  Name = 
REMARK  5 active torsions:
REMARK  status: ('A' for Active; 'I' for Inactive)
REMARK    1  A    between atoms: O_4  and  C_15
REMARK    2  A    between atoms: C_6  and  C_13
REMARK    3  A    between atoms: C_7  and  C_12
REMARK    4  A    between atoms: C_8  and  C_14
REMARK    5  A    between atoms: C_12  and  C_15
REMARK                            x       y       z     vdW  Elec       q    Type
REMARK                         _______ _______ _______ _____ _____    ______ ____
ROOT
ATOM      1  C   UNL     1       9.923   4.262  76.767  0.00  0.00    +0.000 A 
ATOM      2  C   UNL     1      10.310   2.061  75.761  0.00  0.00    +0.000 A 
ATOM      3  C   UNL     1      11.148   4.718  76.233  0.00  0.00    +0.000 A 
ATOM      4  C   UNL     1       9.521   2.934  76.522  0.00  0.00    +0.000 A 
ATOM      5  C   UNL     1      11.526   2.523  75.248  0.00  0.00    +0.000 A 
ATOM      6  C   UNL     1      11.937   3.836  75.479  0.00  0.00    +0.000 A 
ATOM      7  C   UNL     1      11.633   6.123  76.465  0.00  0.00    +0.000 C 
ENDROOT
BRANCH   1  11
ATOM      8  F   UNL     1       8.665   6.295  76.927  0.00  0.00    +0.000 F 
ATOM      9  F   UNL     1       7.868   4.578  77.986  0.00  0.00    +0.000 F 
ATOM     10  F   UNL     1       9.633   5.590  78.745  0.00  0.00    +0.000 F 
ATOM     11  C   UNL     1       9.035   5.166  77.596  0.00  0.00    +0.000 C 
ENDBRANCH   1  11
BRANCH   2  12
ATOM     12  C   UNL     1       9.871   0.635  75.525  0.00  0.00    +0.000 C 
BRANCH  12  14
ATOM     13  O   UNL     1      11.533  -1.151  75.215  0.00  0.00    +0.000 OA
ATOM     14  C   UNL     1      10.896  -0.395  75.929  0.00  0.00    +0.000 C 
BRANCH  14  15
ATOM     15  O   UNL     1      11.090  -0.410  77.266  0.00  0.00    +0.000 OA
ATOM     16  H   UNL     1      11.935   0.075  77.383  0.00  0.00    +0.000 HD
ENDBRANCH  14  15
ENDBRANCH  12  14
ENDBRANCH   2  12
TORSDOF 4
ENDMDL
