MODEL 1
REMARK VINA RESULT:      -4.4      0.000      0.000
REMARK  Name = OTSSP167.pdbqt.pdb
REMARK  7 active torsions:
REMARK  status: ('A' for Active; 'I' for Inactive)
REMARK    1  A    between atoms: C_5  and  N_19
REMARK    2  A    between atoms: C_7  and  C_31
REMARK    3  A    between atoms: C_11  and  C_13
REMARK    4  A    between atoms: C_18  and  O_34
REMARK    5  A    between atoms: N_19  and  C_21
REMARK    6  A    between atoms: C_24  and  C_27
REMARK    7  A    between atoms: C_27  and  N_28
REMARK                            x       y       z     vdW  Elec       q    Type
REMARK                         _______ _______ _______ _____ _____    ______ ____
ROOT
ATOM      1  N   UNL     1      17.443  11.276  57.563  0.00  0.00    +0.000 NA
ATOM      2  N   UNL     1      18.345  10.111  54.219  0.00  0.00    +0.000 NA
ATOM      3  C   UNL     1      17.101  12.343  55.401  0.00  0.00    +0.000 A 
ATOM      4  C   UNL     1      17.580  11.281  56.214  0.00  0.00    +0.000 A 
ATOM      5  C   UNL     1      17.264  12.241  54.004  0.00  0.00    +0.000 A 
ATOM      6  C   UNL     1      18.189  10.194  55.550  0.00  0.00    +0.000 A 
ATOM      7  C   UNL     1      17.880  11.130  53.473  0.00  0.00    +0.000 A 
ATOM      8  C   UNL     1      18.649   9.149  56.331  0.00  0.00    +0.000 A 
ATOM      9  C   UNL     1      17.911  10.242  58.305  0.00  0.00    +0.000 A 
ATOM     10  C   UNL     1      18.522   9.154  57.712  0.00  0.00    +0.000 A 
ENDROOT
BRANCH   9  13
ATOM     11 CL   UNL     1      19.134   8.492  63.009  0.00  0.00    +0.000 Cl
ATOM     12 CL   UNL     1      15.650  12.621  62.298  0.00  0.00    +0.000 Cl
ATOM     13  C   UNL     1      17.744  10.361  59.755  0.00  0.00    +0.000 A 
ATOM     14  C   UNL     1      16.889  11.313  60.323  0.00  0.00    +0.000 A 
ATOM     15  C   UNL     1      18.431   9.509  60.630  0.00  0.00    +0.000 A 
ATOM     16  C   UNL     1      18.270   9.596  62.010  0.00  0.00    +0.000 A 
ATOM     17  C   UNL     1      16.725  11.413  61.705  0.00  0.00    +0.000 A 
ATOM     18  C   UNL     1      17.416  10.552  62.557  0.00  0.00    +0.000 A 
BRANCH  18  19
ATOM     19  O   UNL     1      17.248  10.652  63.913  0.00  0.00    +0.000 OA
ATOM     20  H   UNL     1      17.595  11.517  64.202  0.00  0.00    +0.000 HD
ENDBRANCH  18  19
ENDBRANCH   9  13
BRANCH   5  21
ATOM     21  C   UNL     1      16.771  13.248  53.068  0.00  0.00    +0.000 C 
ATOM     22  O   UNL     1      17.147  14.408  53.025  0.00  0.00    +0.000 OA
ATOM     23  C   UNL     1      15.691  12.996  52.060  0.00  0.00    +0.000 C 
ENDBRANCH   5  21
BRANCH   3  24
ATOM     24  N   UNL     1      16.558  13.553  55.941  0.00  0.00    +0.000 N 
ATOM     25  H   UNL     1      16.942  14.410  55.534  0.00  0.00    +0.000 HD
BRANCH  24  26
ATOM     26  C   UNL     1      15.340  13.733  56.537  0.00  0.00    +0.000 A 
ATOM     27  C   UNL     1      15.327  14.224  57.892  0.00  0.00    +0.000 A 
ATOM     28  C   UNL     1      14.394  13.738  59.031  0.00  0.00    +0.000 A 
ATOM     29  C   UNL     1      13.399  12.702  58.898  0.00  0.00    +0.000 A 
ATOM     30  C   UNL     1      13.427  12.191  57.550  0.00  0.00    +0.000 A 
ATOM     31  C   UNL     1      14.362  12.679  56.416  0.00  0.00    +0.000 A 
BRANCH  29  32
ATOM     32  C   UNL     1      12.452  12.345  59.883  0.00  0.00    +0.000 C 
BRANCH  32  33
ATOM     33  N   UNL     1      11.465  11.983  60.885  0.00  0.00    +0.000 NA
ATOM     34  C   UNL     1      10.156  12.067  60.257  0.00  0.00    +0.000 C 
ATOM     35  C   UNL     1      11.506  13.001  61.922  0.00  0.00    +0.000 C 
ENDBRANCH  32  33
ENDBRANCH  29  32
ENDBRANCH  24  26
ENDBRANCH   3  24
TORSDOF 7
ENDMDL
MODEL 2
REMARK VINA RESULT:      -4.4      3.448      8.456
REMARK  Name = OTSSP167.pdbqt.pdb
REMARK  7 active torsions:
REMARK  status: ('A' for Active; 'I' for Inactive)
REMARK    1  A    between atoms: C_5  and  N_19
REMARK    2  A    between atoms: C_7  and  C_31
REMARK    3  A    between atoms: C_11  and  C_13
REMARK    4  A    between atoms: C_18  and  O_34
REMARK    5  A    between atoms: N_19  and  C_21
REMARK    6  A    between atoms: C_24  and  C_27
REMARK    7  A    between atoms: C_27  and  N_28
REMARK                            x       y       z     vdW  Elec       q    Type
REMARK                         _______ _______ _______ _____ _____    ______ ____
ROOT
ATOM      1  N   UNL     1      15.360  11.555  59.947  0.00  0.00    +0.000 NA
ATOM      2  N   UNL     1      16.833  12.180  63.231  0.00  0.00    +0.000 NA
ATOM      3  C   UNL     1      17.233  10.453  61.044  0.00  0.00    +0.000 A 
ATOM      4  C   UNL     1      16.201  11.428  61.003  0.00  0.00    +0.000 A 
ATOM      5  C   UNL     1      18.035  10.379  62.202  0.00  0.00    +0.000 A 
ATOM      6  C   UNL     1      16.058  12.255  62.137  0.00  0.00    +0.000 A 
ATOM      7  C   UNL     1      17.801  11.246  63.245  0.00  0.00    +0.000 A 
ATOM      8  C   UNL     1      15.049  13.201  62.112  0.00  0.00    +0.000 A 
ATOM      9  C   UNL     1      14.385  12.497  59.945  0.00  0.00    +0.000 A 
ATOM     10  C   UNL     1      14.201  13.340  61.023  0.00  0.00    +0.000 A 
ENDROOT
BRANCH   9  13
ATOM     11 CL   UNL     1      14.187  12.542  54.782  0.00  0.00    +0.000 Cl
ATOM     12 CL   UNL     1       9.692  12.976  57.831  0.00  0.00    +0.000 Cl
ATOM     13  C   UNL     1      13.562  12.571  58.735  0.00  0.00    +0.000 A 
ATOM     14  C   UNL     1      12.171  12.717  58.797  0.00  0.00    +0.000 A 
ATOM     15  C   UNL     1      14.147  12.512  57.463  0.00  0.00    +0.000 A 
ATOM     16  C   UNL     1      13.382  12.600  56.303  0.00  0.00    +0.000 A 
ATOM     17  C   UNL     1      11.394  12.800  57.641  0.00  0.00    +0.000 A 
ATOM     18  C   UNL     1      11.998  12.742  56.385  0.00  0.00    +0.000 A 
BRANCH  18  19
ATOM     19  O   UNL     1      11.231  12.828  55.253  0.00  0.00    +0.000 OA
ATOM     20  H   UNL     1      10.308  12.620  55.492  0.00  0.00    +0.000 HD
ENDBRANCH  18  19
ENDBRANCH   9  13
BRANCH   5  21
ATOM     21  C   UNL     1      19.094   9.388  62.376  0.00  0.00    +0.000 C 
ATOM     22  O   UNL     1      18.960   8.185  62.223  0.00  0.00    +0.000 OA
ATOM     23  C   UNL     1      20.487   9.721  62.816  0.00  0.00    +0.000 C 
ENDBRANCH   5  21
BRANCH   3  24
ATOM     24  N   UNL     1      17.560   9.617  59.929  0.00  0.00    +0.000 N 
ATOM     25  H   UNL     1      16.870   8.888  59.728  0.00  0.00    +0.000 HD
BRANCH  24  26
ATOM     26  C   UNL     1      18.361   9.917  58.862  0.00  0.00    +0.000 A 
ATOM     27  C   UNL     1      17.722  10.150  57.592  0.00  0.00    +0.000 A 
ATOM     28  C   UNL     1      18.224   9.655  56.211  0.00  0.00    +0.000 A 
ATOM     29  C   UNL     1      19.417   8.871  55.999  0.00  0.00    +0.000 A 
ATOM     30  C   UNL     1      20.045   8.614  57.271  0.00  0.00    +0.000 A 
ATOM     31  C   UNL     1      19.538   9.109  58.648  0.00  0.00    +0.000 A 
BRANCH  29  32
ATOM     32  C   UNL     1      19.959   8.530  54.740  0.00  0.00    +0.000 C 
BRANCH  32  33
ATOM     33  N   UNL     1      20.532   8.192  53.449  0.00  0.00    +0.000 NA
ATOM     34  C   UNL     1      21.613   7.250  53.687  0.00  0.00    +0.000 C 
ATOM     35  C   UNL     1      21.132   9.401  52.911  0.00  0.00    +0.000 C 
ENDBRANCH  32  33
ENDBRANCH  29  32
ENDBRANCH  24  26
ENDBRANCH   3  24
TORSDOF 7
ENDMDL
MODEL 3
REMARK VINA RESULT:      -4.4      3.255      7.303
REMARK  Name = OTSSP167.pdbqt.pdb
REMARK  7 active torsions:
REMARK  status: ('A' for Active; 'I' for Inactive)
REMARK    1  A    between atoms: C_5  and  N_19
REMARK    2  A    between atoms: C_7  and  C_31
REMARK    3  A    between atoms: C_11  and  C_13
REMARK    4  A    between atoms: C_18  and  O_34
REMARK    5  A    between atoms: N_19  and  C_21
REMARK    6  A    between atoms: C_24  and  C_27
REMARK    7  A    between atoms: C_27  and  N_28
REMARK                            x       y       z     vdW  Elec       q    Type
REMARK                         _______ _______ _______ _____ _____    ______ ____
ROOT
ATOM      1  N   UNL     1      18.361   9.770  59.569  0.00  0.00    +0.000 NA
ATOM      2  N   UNL     1      20.748   8.885  62.191  0.00  0.00    +0.000 NA
ATOM      3  C   UNL     1      18.093   9.802  61.989  0.00  0.00    +0.000 A 
ATOM      4  C   UNL     1      18.854   9.556  60.815  0.00  0.00    +0.000 A 
ATOM      5  C   UNL     1      18.706   9.578  63.240  0.00  0.00    +0.000 A 
ATOM      6  C   UNL     1      20.177   9.101  60.994  0.00  0.00    +0.000 A 
ATOM      7  C   UNL     1      20.006   9.128  63.287  0.00  0.00    +0.000 A 
ATOM      8  C   UNL     1      20.930   8.869  59.858  0.00  0.00    +0.000 A 
ATOM      9  C   UNL     1      19.118   9.525  58.472  0.00  0.00    +0.000 A 
ATOM     10  C   UNL     1      20.419   9.073  58.584  0.00  0.00    +0.000 A 
ENDROOT
BRANCH   9  13
ATOM     11 CL   UNL     1      15.824  12.344  55.663  0.00  0.00    +0.000 Cl
ATOM     12 CL   UNL     1      18.449   8.057  53.561  0.00  0.00    +0.000 Cl
ATOM     13  C   UNL     1      18.471   9.754  57.177  0.00  0.00    +0.000 A 
ATOM     14  C   UNL     1      18.711   8.923  56.077  0.00  0.00    +0.000 A 
ATOM     15  C   UNL     1      17.571  10.813  57.002  0.00  0.00    +0.000 A 
ATOM     16  C   UNL     1      16.933  11.033  55.784  0.00  0.00    +0.000 A 
ATOM     17  C   UNL     1      18.081   9.138  54.850  0.00  0.00    +0.000 A 
ATOM     18  C   UNL     1      17.186  10.197  54.698  0.00  0.00    +0.000 A 
BRANCH  18  19
ATOM     19  O   UNL     1      16.568  10.401  53.492  0.00  0.00    +0.000 OA
ATOM     20  H   UNL     1      15.757   9.859  53.468  0.00  0.00    +0.000 HD
ENDBRANCH  18  19
ENDBRANCH   9  13
BRANCH   5  21
ATOM     21  C   UNL     1      18.038   9.840  64.513  0.00  0.00    +0.000 C 
ATOM     22  O   UNL     1      16.862   9.615  64.745  0.00  0.00    +0.000 OA
ATOM     23  C   UNL     1      18.709  10.472  65.694  0.00  0.00    +0.000 C 
ENDBRANCH   5  21
BRANCH   3  24
ATOM     24  N   UNL     1      16.709  10.165  61.959  0.00  0.00    +0.000 N 
ATOM     25  H   UNL     1      16.112   9.613  62.583  0.00  0.00    +0.000 HD
BRANCH  24  26
ATOM     26  C   UNL     1      16.164  11.369  61.610  0.00  0.00    +0.000 A 
ATOM     27  C   UNL     1      15.280  11.397  60.472  0.00  0.00    +0.000 A 
ATOM     28  C   UNL     1      15.235  12.492  59.376  0.00  0.00    +0.000 A 
ATOM     29  C   UNL     1      16.092  13.652  59.332  0.00  0.00    +0.000 A 
ATOM     30  C   UNL     1      16.995  13.614  60.455  0.00  0.00    +0.000 A 
ATOM     31  C   UNL     1      17.037  12.516  61.547  0.00  0.00    +0.000 A 
BRANCH  29  32
ATOM     32  C   UNL     1      15.972  14.724  58.421  0.00  0.00    +0.000 C 
BRANCH  32  33
ATOM     33  N   UNL     1      15.849  15.839  57.498  0.00  0.00    +0.000 NA
ATOM     34  C   UNL     1      14.618  15.649  56.748  0.00  0.00    +0.000 C 
ATOM     35  C   UNL     1      16.946  15.740  56.549  0.00  0.00    +0.000 C 
ENDBRANCH  32  33
ENDBRANCH  29  32
ENDBRANCH  24  26
ENDBRANCH   3  24
TORSDOF 7
ENDMDL
MODEL 4
REMARK VINA RESULT:      -4.2      3.656      7.764
REMARK  Name = OTSSP167.pdbqt.pdb
REMARK  7 active torsions:
REMARK  status: ('A' for Active; 'I' for Inactive)
REMARK    1  A    between atoms: C_5  and  N_19
REMARK    2  A    between atoms: C_7  and  C_31
REMARK    3  A    between atoms: C_11  and  C_13
REMARK    4  A    between atoms: C_18  and  O_34
REMARK    5  A    between atoms: N_19  and  C_21
REMARK    6  A    between atoms: C_24  and  C_27
REMARK    7  A    between atoms: C_27  and  N_28
REMARK                            x       y       z     vdW  Elec       q    Type
REMARK                         _______ _______ _______ _____ _____    ______ ____
ROOT
ATOM      1  N   UNL     1      18.653   8.905  61.840  0.00  0.00    +0.000 NA
ATOM      2  N   UNL     1      16.713  11.711  63.150  0.00  0.00    +0.000 NA
ATOM      3  C   UNL     1      17.189  10.462  60.673  0.00  0.00    +0.000 A 
ATOM      4  C   UNL     1      17.805   9.964  61.852  0.00  0.00    +0.000 A 
ATOM      5  C   UNL     1      16.348  11.588  60.783  0.00  0.00    +0.000 A 
ATOM      6  C   UNL     1      17.522  10.643  63.056  0.00  0.00    +0.000 A 
ATOM      7  C   UNL     1      16.145  12.163  62.018  0.00  0.00    +0.000 A 
ATOM      8  C   UNL     1      18.126  10.173  64.208  0.00  0.00    +0.000 A 
ATOM      9  C   UNL     1      19.223   8.459  62.987  0.00  0.00    +0.000 A 
ATOM     10  C   UNL     1      18.979   9.080  64.196  0.00  0.00    +0.000 A 
ENDROOT
BRANCH   9  13
ATOM     11 CL   UNL     1      20.363   3.675  64.569  0.00  0.00    +0.000 Cl
ATOM     12 CL   UNL     1      23.303   6.212  60.746  0.00  0.00    +0.000 Cl
ATOM     13  C   UNL     1      20.089   7.285  62.862  0.00  0.00    +0.000 A 
ATOM     14  C   UNL     1      21.172   7.258  61.975  0.00  0.00    +0.000 A 
ATOM     15  C   UNL     1      19.869   6.144  63.645  0.00  0.00    +0.000 A 
ATOM     16  C   UNL     1      20.693   5.025  63.553  0.00  0.00    +0.000 A 
ATOM     17  C   UNL     1      22.001   6.140  61.870  0.00  0.00    +0.000 A 
ATOM     18  C   UNL     1      21.765   5.016  62.662  0.00  0.00    +0.000 A 
BRANCH  18  19
ATOM     19  O   UNL     1      22.584   3.923  62.557  0.00  0.00    +0.000 OA
ATOM     20  H   UNL     1      22.049   3.166  62.253  0.00  0.00    +0.000 HD
ENDBRANCH  18  19
ENDBRANCH   9  13
BRANCH   5  21
ATOM     21  C   UNL     1      15.699  12.215  59.634  0.00  0.00    +0.000 C 
ATOM     22  O   UNL     1      16.256  12.933  58.821  0.00  0.00    +0.000 OA
ATOM     23  C   UNL     1      14.236  12.093  59.331  0.00  0.00    +0.000 C 
ENDBRANCH   5  21
BRANCH   3  24
ATOM     24  N   UNL     1      17.301   9.813  59.401  0.00  0.00    +0.000 N 
ATOM     25  H   UNL     1      16.422   9.431  59.040  0.00  0.00    +0.000 HD
BRANCH  24  26
ATOM     26  C   UNL     1      18.241  10.024  58.431  0.00  0.00    +0.000 A 
ATOM     27  C   UNL     1      17.776  10.214  57.081  0.00  0.00    +0.000 A 
ATOM     28  C   UNL     1      18.423   9.628  55.800  0.00  0.00    +0.000 A 
ATOM     29  C   UNL     1      19.597   8.788  55.778  0.00  0.00    +0.000 A 
ATOM     30  C   UNL     1      20.050   8.575  57.130  0.00  0.00    +0.000 A 
ATOM     31  C   UNL     1      19.398   9.162  58.406  0.00  0.00    +0.000 A 
BRANCH  29  32
ATOM     32  C   UNL     1      20.276   8.360  54.616  0.00  0.00    +0.000 C 
BRANCH  32  33
ATOM     33  N   UNL     1      20.957   7.917  53.412  0.00  0.00    +0.000 NA
ATOM     34  C   UNL     1      19.982   7.213  52.595  0.00  0.00    +0.000 C 
ATOM     35  C   UNL     1      21.959   6.944  53.814  0.00  0.00    +0.000 C 
ENDBRANCH  32  33
ENDBRANCH  29  32
ENDBRANCH  24  26
ENDBRANCH   3  24
TORSDOF 7
ENDMDL
MODEL 5
REMARK VINA RESULT:      -4.1      3.173      6.974
REMARK  Name = OTSSP167.pdbqt.pdb
REMARK  7 active torsions:
REMARK  status: ('A' for Active; 'I' for Inactive)
REMARK    1  A    between atoms: C_5  and  N_19
REMARK    2  A    between atoms: C_7  and  C_31
REMARK    3  A    between atoms: C_11  and  C_13
REMARK    4  A    between atoms: C_18  and  O_34
REMARK    5  A    between atoms: N_19  and  C_21
REMARK    6  A    between atoms: C_24  and  C_27
REMARK    7  A    between atoms: C_27  and  N_28
REMARK                            x       y       z     vdW  Elec       q    Type
REMARK                         _______ _______ _______ _____ _____    ______ ____
ROOT
ATOM      1  N   UNL     1      18.428   9.783  59.545  0.00  0.00    +0.000 NA
ATOM      2  N   UNL     1      20.849   8.812  62.104  0.00  0.00    +0.000 NA
ATOM      3  C   UNL     1      18.221   9.814  61.971  0.00  0.00    +0.000 A 
ATOM      4  C   UNL     1      18.944   9.548  60.777  0.00  0.00    +0.000 A 
ATOM      5  C   UNL     1      18.856   9.566  63.205  0.00  0.00    +0.000 A 
ATOM      6  C   UNL     1      20.256   9.051  60.923  0.00  0.00    +0.000 A 
ATOM      7  C   UNL     1      20.143   9.075  63.219  0.00  0.00    +0.000 A 
ATOM      8  C   UNL     1      20.973   8.800  59.767  0.00  0.00    +0.000 A 
ATOM      9  C   UNL     1      19.149   9.519  58.428  0.00  0.00    +0.000 A 
ATOM     10  C   UNL     1      20.437   9.025  58.507  0.00  0.00    +0.000 A 
ENDROOT
BRANCH   9  13
ATOM     11 CL   UNL     1      15.822  12.408  55.731  0.00  0.00    +0.000 Cl
ATOM     12 CL   UNL     1      18.367   8.132  53.510  0.00  0.00    +0.000 Cl
ATOM     13  C   UNL     1      18.477   9.772  57.151  0.00  0.00    +0.000 A 
ATOM     14  C   UNL     1      18.687   8.956  56.033  0.00  0.00    +0.000 A 
ATOM     15  C   UNL     1      17.583  10.841  57.010  0.00  0.00    +0.000 A 
ATOM     16  C   UNL     1      16.922  11.086  55.809  0.00  0.00    +0.000 A 
ATOM     17  C   UNL     1      18.035   9.196  54.823  0.00  0.00    +0.000 A 
ATOM     18  C   UNL     1      17.146  10.264  54.706  0.00  0.00    +0.000 A 
BRANCH  18  19
ATOM     19  O   UNL     1      16.505  10.492  53.517  0.00  0.00    +0.000 OA
ATOM     20  H   UNL     1      15.690   9.957  53.500  0.00  0.00    +0.000 HD
ENDBRANCH  18  19
ENDBRANCH   9  13
BRANCH   5  21
ATOM     21  C   UNL     1      18.229   9.844  64.495  0.00  0.00    +0.000 C 
ATOM     22  O   UNL     1      17.634  10.871  64.777  0.00  0.00    +0.000 OA
ATOM     23  C   UNL     1      18.280   8.913  65.668  0.00  0.00    +0.000 C 
ENDBRANCH   5  21
BRANCH   3  24
ATOM     24  N   UNL     1      16.848  10.221  61.977  0.00  0.00    +0.000 N 
ATOM     25  H   UNL     1      16.301   9.856  62.762  0.00  0.00    +0.000 HD
BRANCH  24  26
ATOM     26  C   UNL     1      16.300  11.334  61.402  0.00  0.00    +0.000 A 
ATOM     27  C   UNL     1      16.086  12.483  62.244  0.00  0.00    +0.000 A 
ATOM     28  C   UNL     1      14.847  13.414  62.223  0.00  0.00    +0.000 A 
ATOM     29  C   UNL     1      13.708  13.253  61.350  0.00  0.00    +0.000 A 
ATOM     30  C   UNL     1      13.908  12.089  60.524  0.00  0.00    +0.000 A 
ATOM     31  C   UNL     1      15.148  11.162  60.550  0.00  0.00    +0.000 A 
BRANCH  29  32
ATOM     32  C   UNL     1      12.639  14.167  61.224  0.00  0.00    +0.000 C 
BRANCH  32  33
ATOM     33  N   UNL     1      11.538  15.102  61.075  0.00  0.00    +0.000 NA
ATOM     34  C   UNL     1      12.014  16.209  60.262  0.00  0.00    +0.000 C 
ATOM     35  C   UNL     1      11.243  15.638  62.394  0.00  0.00    +0.000 C 
ENDBRANCH  32  33
ENDBRANCH  29  32
ENDBRANCH  24  26
ENDBRANCH   3  24
TORSDOF 7
ENDMDL
MODEL 6
REMARK VINA RESULT:      -4.0      2.764      4.013
REMARK  Name = OTSSP167.pdbqt.pdb
REMARK  7 active torsions:
REMARK  status: ('A' for Active; 'I' for Inactive)
REMARK    1  A    between atoms: C_5  and  N_19
REMARK    2  A    between atoms: C_7  and  C_31
REMARK    3  A    between atoms: C_11  and  C_13
REMARK    4  A    between atoms: C_18  and  O_34
REMARK    5  A    between atoms: N_19  and  C_21
REMARK    6  A    between atoms: C_24  and  C_27
REMARK    7  A    between atoms: C_27  and  N_28
REMARK                            x       y       z     vdW  Elec       q    Type
REMARK                         _______ _______ _______ _____ _____    ______ ____
ROOT
ATOM      1  N   UNL     1      18.712   9.239  57.296  0.00  0.00    +0.000 NA
ATOM      2  N   UNL     1      21.272   8.197  54.906  0.00  0.00    +0.000 NA
ATOM      3  C   UNL     1      18.571   8.990  54.878  0.00  0.00    +0.000 A 
ATOM      4  C   UNL     1      19.286   8.940  56.104  0.00  0.00    +0.000 A 
ATOM      5  C   UNL     1      19.249   8.631  53.694  0.00  0.00    +0.000 A 
ATOM      6  C   UNL     1      20.635   8.530  56.040  0.00  0.00    +0.000 A 
ATOM      7  C   UNL     1      20.570   8.251  53.759  0.00  0.00    +0.000 A 
ATOM      8  C   UNL     1      21.338   8.467  57.230  0.00  0.00    +0.000 A 
ATOM      9  C   UNL     1      19.427   9.177  58.446  0.00  0.00    +0.000 A 
ATOM     10  C   UNL     1      20.753   8.789  58.446  0.00  0.00    +0.000 A 
ENDROOT
BRANCH   9  13
ATOM     11 CL   UNL     1      15.153  11.129  60.595  0.00  0.00    +0.000 Cl
ATOM     12 CL   UNL     1      19.439   9.607  63.597  0.00  0.00    +0.000 Cl
ATOM     13  C   UNL     1      18.716   9.560  59.669  0.00  0.00    +0.000 A 
ATOM     14  C   UNL     1      19.303   9.431  60.933  0.00  0.00    +0.000 A 
ATOM     15  C   UNL     1      17.419  10.085  59.610  0.00  0.00    +0.000 A 
ATOM     16  C   UNL     1      16.735  10.471  60.761  0.00  0.00    +0.000 A 
ATOM     17  C   UNL     1      18.625   9.809  62.093  0.00  0.00    +0.000 A 
ATOM     18  C   UNL     1      17.335  10.333  62.011  0.00  0.00    +0.000 A 
BRANCH  18  19
ATOM     19  O   UNL     1      16.676  10.706  63.153  0.00  0.00    +0.000 OA
ATOM     20  H   UNL     1      16.671  11.680  63.200  0.00  0.00    +0.000 HD
ENDBRANCH  18  19
ENDBRANCH   9  13
BRANCH   5  21
ATOM     21  C   UNL     1      18.603   8.600  52.384  0.00  0.00    +0.000 C 
ATOM     22  O   UNL     1      18.298   9.584  51.731  0.00  0.00    +0.000 OA
ATOM     23  C   UNL     1      18.184   7.341  51.687  0.00  0.00    +0.000 C 
ENDBRANCH   5  21
BRANCH   3  24
ATOM     24  N   UNL     1      17.231   9.486  54.777  0.00  0.00    +0.000 N 
ATOM     25  H   UNL     1      16.521   8.875  55.190  0.00  0.00    +0.000 HD
BRANCH  24  26
ATOM     26  C   UNL     1      16.825  10.785  54.648  0.00  0.00    +0.000 A 
ATOM     27  C   UNL     1      16.508  11.507  55.854  0.00  0.00    +0.000 A 
ATOM     28  C   UNL     1      15.320  12.484  56.049  0.00  0.00    +0.000 A 
ATOM     29  C   UNL     1      14.342  12.807  55.039  0.00  0.00    +0.000 A 
ATOM     30  C   UNL     1      14.641  12.066  53.839  0.00  0.00    +0.000 A 
ATOM     31  C   UNL     1      15.829  11.090  53.650  0.00  0.00    +0.000 A 
BRANCH  29  32
ATOM     32  C   UNL     1      13.339  13.794  55.156  0.00  0.00    +0.000 C 
BRANCH  32  33
ATOM     33  N   UNL     1      12.298  14.798  55.289  0.00  0.00    +0.000 NA
ATOM     34  C   UNL     1      11.056  14.100  55.583  0.00  0.00    +0.000 C 
ATOM     35  C   UNL     1      12.135  15.427  53.989  0.00  0.00    +0.000 C 
ENDBRANCH  32  33
ENDBRANCH  29  32
ENDBRANCH  24  26
ENDBRANCH   3  24
TORSDOF 7
ENDMDL
MODEL 7
REMARK VINA RESULT:      -4.0      3.086      6.123
REMARK  Name = OTSSP167.pdbqt.pdb
REMARK  7 active torsions:
REMARK  status: ('A' for Active; 'I' for Inactive)
REMARK    1  A    between atoms: C_5  and  N_19
REMARK    2  A    between atoms: C_7  and  C_31
REMARK    3  A    between atoms: C_11  and  C_13
REMARK    4  A    between atoms: C_18  and  O_34
REMARK    5  A    between atoms: N_19  and  C_21
REMARK    6  A    between atoms: C_24  and  C_27
REMARK    7  A    between atoms: C_27  and  N_28
REMARK                            x       y       z     vdW  Elec       q    Type
REMARK                         _______ _______ _______ _____ _____    ______ ____
ROOT
ATOM      1  N   UNL     1      17.593  10.991  57.403  0.00  0.00    +0.000 NA
ATOM      2  N   UNL     1      21.183  10.835  56.738  0.00  0.00    +0.000 NA
ATOM      3  C   UNL     1      19.345   9.801  58.604  0.00  0.00    +0.000 A 
ATOM      4  C   UNL     1      18.895  10.637  57.547  0.00  0.00    +0.000 A 
ATOM      5  C   UNL     1      20.724   9.515  58.687  0.00  0.00    +0.000 A 
ATOM      6  C   UNL     1      19.873  11.120  56.653  0.00  0.00    +0.000 A 
ATOM      7  C   UNL     1      21.583  10.043  57.749  0.00  0.00    +0.000 A 
ATOM      8  C   UNL     1      19.447  11.944  55.627  0.00  0.00    +0.000 A 
ATOM      9  C   UNL     1      17.201  11.793  56.383  0.00  0.00    +0.000 A 
ATOM     10  C   UNL     1      18.113  12.292  55.472  0.00  0.00    +0.000 A 
ENDROOT
BRANCH   9  13
ATOM     11 CL   UNL     1      12.771  12.704  58.880  0.00  0.00    +0.000 Cl
ATOM     12 CL   UNL     1      13.013  12.511  53.439  0.00  0.00    +0.000 Cl
ATOM     13  C   UNL     1      15.767  12.078  56.301  0.00  0.00    +0.000 A 
ATOM     14  C   UNL     1      15.101  12.164  55.072  0.00  0.00    +0.000 A 
ATOM     15  C   UNL     1      15.004  12.262  57.462  0.00  0.00    +0.000 A 
ATOM     16  C   UNL     1      13.636  12.515  57.403  0.00  0.00    +0.000 A 
ATOM     17  C   UNL     1      13.732  12.424  55.002  0.00  0.00    +0.000 A 
ATOM     18  C   UNL     1      12.991  12.600  56.170  0.00  0.00    +0.000 A 
BRANCH  18  19
ATOM     19  O   UNL     1      11.646  12.851  56.095  0.00  0.00    +0.000 OA
ATOM     20  H   UNL     1      11.228  12.133  55.583  0.00  0.00    +0.000 HD
ENDBRANCH  18  19
ENDBRANCH   9  13
BRANCH   5  21
ATOM     21  C   UNL     1      21.308   8.706  59.755  0.00  0.00    +0.000 C 
ATOM     22  O   UNL     1      21.209   8.945  60.947  0.00  0.00    +0.000 OA
ATOM     23  C   UNL     1      22.154   7.493  59.517  0.00  0.00    +0.000 C 
ENDBRANCH   5  21
BRANCH   3  24
ATOM     24  N   UNL     1      18.455   9.156  59.521  0.00  0.00    +0.000 N 
ATOM     25  H   UNL     1      18.598   8.146  59.612  0.00  0.00    +0.000 HD
BRANCH  24  26
ATOM     26  C   UNL     1      17.801   9.711  60.586  0.00  0.00    +0.000 A 
ATOM     27  C   UNL     1      16.361   9.694  60.567  0.00  0.00    +0.000 A 
ATOM     28  C   UNL     1      15.427  10.849  61.014  0.00  0.00    +0.000 A 
ATOM     29  C   UNL     1      15.876  12.127  61.512  0.00  0.00    +0.000 A 
ATOM     30  C   UNL     1      17.317  12.156  61.508  0.00  0.00    +0.000 A 
ATOM     31  C   UNL     1      18.245  11.000  61.059  0.00  0.00    +0.000 A 
BRANCH  29  32
ATOM     32  C   UNL     1      15.043  13.133  62.050  0.00  0.00    +0.000 C 
BRANCH  32  33
ATOM     33  N   UNL     1      14.174  14.164  62.590  0.00  0.00    +0.000 NA
ATOM     34  C   UNL     1      12.806  13.790  62.270  0.00  0.00    +0.000 C 
ATOM     35  C   UNL     1      14.459  15.393  61.869  0.00  0.00    +0.000 C 
ENDBRANCH  32  33
ENDBRANCH  29  32
ENDBRANCH  24  26
ENDBRANCH   3  24
TORSDOF 7
ENDMDL
MODEL 8
REMARK VINA RESULT:      -3.9      2.386      6.348
REMARK  Name = OTSSP167.pdbqt.pdb
REMARK  7 active torsions:
REMARK  status: ('A' for Active; 'I' for Inactive)
REMARK    1  A    between atoms: C_5  and  N_19
REMARK    2  A    between atoms: C_7  and  C_31
REMARK    3  A    between atoms: C_11  and  C_13
REMARK    4  A    between atoms: C_18  and  O_34
REMARK    5  A    between atoms: N_19  and  C_21
REMARK    6  A    between atoms: C_24  and  C_27
REMARK    7  A    between atoms: C_27  and  N_28
REMARK                            x       y       z     vdW  Elec       q    Type
REMARK                         _______ _______ _______ _____ _____    ______ ____
ROOT
ATOM      1  N   UNL     1      14.764  11.777  59.335  0.00  0.00    +0.000 NA
ATOM      2  N   UNL     1      11.868  13.904  59.998  0.00  0.00    +0.000 NA
ATOM      3  C   UNL     1      13.051  12.589  57.807  0.00  0.00    +0.000 A 
ATOM      4  C   UNL     1      13.629  12.480  59.101  0.00  0.00    +0.000 A 
ATOM      5  C   UNL     1      11.886  13.370  57.660  0.00  0.00    +0.000 A 
ATOM      6  C   UNL     1      12.982  13.170  60.149  0.00  0.00    +0.000 A 
ATOM      7  C   UNL     1      11.344  13.993  58.762  0.00  0.00    +0.000 A 
ATOM      8  C   UNL     1      13.542  13.079  61.410  0.00  0.00    +0.000 A 
ATOM      9  C   UNL     1      15.287  11.698  60.584  0.00  0.00    +0.000 A 
ATOM     10  C   UNL     1      14.695  12.346  61.651  0.00  0.00    +0.000 A 
ENDROOT
BRANCH   9  13
ATOM     11 CL   UNL     1      19.137   9.135  58.281  0.00  0.00    +0.000 Cl
ATOM     12 CL   UNL     1      18.623   9.279  63.704  0.00  0.00    +0.000 Cl
ATOM     13  C   UNL     1      16.493  10.878  60.728  0.00  0.00    +0.000 A 
ATOM     14  C   UNL     1      16.974  10.489  61.983  0.00  0.00    +0.000 A 
ATOM     15  C   UNL     1      17.202  10.441  59.602  0.00  0.00    +0.000 A 
ATOM     16  C   UNL     1      18.340   9.647  59.719  0.00  0.00    +0.000 A 
ATOM     17  C   UNL     1      18.116   9.699  62.113  0.00  0.00    +0.000 A 
ATOM     18  C   UNL     1      18.806   9.272  60.978  0.00  0.00    +0.000 A 
BRANCH  18  19
ATOM     19  O   UNL     1      19.924   8.492  61.111  0.00  0.00    +0.000 OA
ATOM     20  H   UNL     1      20.699   9.017  60.835  0.00  0.00    +0.000 HD
ENDBRANCH  18  19
ENDBRANCH   9  13
BRANCH   5  21
ATOM     21  C   UNL     1      11.232  13.592  56.373  0.00  0.00    +0.000 C 
ATOM     22  O   UNL     1      11.775  14.052  55.382  0.00  0.00    +0.000 OA
ATOM     23  C   UNL     1       9.780  13.323  56.115  0.00  0.00    +0.000 C 
ENDBRANCH   5  21
BRANCH   3  24
ATOM     24  N   UNL     1      13.537  11.863  56.673  0.00  0.00    +0.000 N 
ATOM     25  H   UNL     1      12.866  11.199  56.275  0.00  0.00    +0.000 HD
BRANCH  24  26
ATOM     26  C   UNL     1      14.521  12.232  55.799  0.00  0.00    +0.000 A 
ATOM     27  C   UNL     1      14.467  11.689  54.465  0.00  0.00    +0.000 A 
ATOM     28  C   UNL     1      15.674  11.183  53.635  0.00  0.00    +0.000 A 
ATOM     29  C   UNL     1      17.043  11.173  54.090  0.00  0.00    +0.000 A 
ATOM     30  C   UNL     1      17.098  11.691  55.434  0.00  0.00    +0.000 A 
ATOM     31  C   UNL     1      15.888  12.195  56.260  0.00  0.00    +0.000 A 
BRANCH  29  32
ATOM     32  C   UNL     1      18.166  10.844  53.299  0.00  0.00    +0.000 C 
BRANCH  32  33
ATOM     33  N   UNL     1      19.320  10.523  52.476  0.00  0.00    +0.000 NA
ATOM     34  C   UNL     1      19.136   9.169  51.978  0.00  0.00    +0.000 C 
ATOM     35  C   UNL     1      20.482  10.501  53.349  0.00  0.00    +0.000 C 
ENDBRANCH  32  33
ENDBRANCH  29  32
ENDBRANCH  24  26
ENDBRANCH   3  24
TORSDOF 7
ENDMDL
MODEL 9
REMARK VINA RESULT:      -3.9     11.718     15.826
REMARK  Name = OTSSP167.pdbqt.pdb
REMARK  7 active torsions:
REMARK  status: ('A' for Active; 'I' for Inactive)
REMARK    1  A    between atoms: C_5  and  N_19
REMARK    2  A    between atoms: C_7  and  C_31
REMARK    3  A    between atoms: C_11  and  C_13
REMARK    4  A    between atoms: C_18  and  O_34
REMARK    5  A    between atoms: N_19  and  C_21
REMARK    6  A    between atoms: C_24  and  C_27
REMARK    7  A    between atoms: C_27  and  N_28
REMARK                            x       y       z     vdW  Elec       q    Type
REMARK                         _______ _______ _______ _____ _____    ______ ____
ROOT
ATOM      1  N   UNL     1      15.212   5.177  69.629  0.00  0.00    +0.000 NA
ATOM      2  N   UNL     1      16.078   1.754  68.690  0.00  0.00    +0.000 NA
ATOM      3  C   UNL     1      14.427   3.067  70.555  0.00  0.00    +0.000 A 
ATOM      4  C   UNL     1      15.205   3.821  69.636  0.00  0.00    +0.000 A 
ATOM      5  C   UNL     1      14.512   1.660  70.504  0.00  0.00    +0.000 A 
ATOM      6  C   UNL     1      16.010   3.094  68.734  0.00  0.00    +0.000 A 
ATOM      7  C   UNL     1      15.333   1.064  69.573  0.00  0.00    +0.000 A 
ATOM      8  C   UNL     1      16.780   3.819  67.842  0.00  0.00    +0.000 A 
ATOM      9  C   UNL     1      15.969   5.863  68.737  0.00  0.00    +0.000 A 
ATOM     10  C   UNL     1      16.773   5.206  67.826  0.00  0.00    +0.000 A 
ENDROOT
BRANCH   9  13
ATOM     11 CL   UNL     1      13.339  10.009  70.344  0.00  0.00    +0.000 Cl
ATOM     12 CL   UNL     1      17.914  10.467  67.419  0.00  0.00    +0.000 Cl
ATOM     13  C   UNL     1      15.868   7.323  68.793  0.00  0.00    +0.000 A 
ATOM     14  C   UNL     1      16.809   8.151  68.170  0.00  0.00    +0.000 A 
ATOM     15  C   UNL     1      14.808   7.944  69.467  0.00  0.00    +0.000 A 
ATOM     16  C   UNL     1      14.686   9.331  69.515  0.00  0.00    +0.000 A 
ATOM     17  C   UNL     1      16.701   9.542  68.217  0.00  0.00    +0.000 A 
ATOM     18  C   UNL     1      15.635  10.139  68.891  0.00  0.00    +0.000 A 
BRANCH  18  19
ATOM     19  O   UNL     1      15.531  11.505  68.930  0.00  0.00    +0.000 OA
ATOM     20  H   UNL     1      15.758  11.855  68.048  0.00  0.00    +0.000 HD
ENDBRANCH  18  19
ENDBRANCH   9  13
BRANCH   5  21
ATOM     21  C   UNL     1      13.795   0.784  71.428  0.00  0.00    +0.000 C 
ATOM     22  O   UNL     1      14.169   0.497  72.553  0.00  0.00    +0.000 OA
ATOM     23  C   UNL     1      12.518   0.077  71.089  0.00  0.00    +0.000 C 
ENDBRANCH   5  21
BRANCH   3  24
ATOM     24  N   UNL     1      13.488   3.664  71.456  0.00  0.00    +0.000 N 
ATOM     25  H   UNL     1      12.518   3.369  71.314  0.00  0.00    +0.000 HD
BRANCH  24  26
ATOM     26  C   UNL     1      13.727   4.168  72.704  0.00  0.00    +0.000 A 
ATOM     27  C   UNL     1      13.114   3.498  73.823  0.00  0.00    +0.000 A 
ATOM     28  C   UNL     1      12.466   4.182  75.054  0.00  0.00    +0.000 A 
ATOM     29  C   UNL     1      12.373   5.608  75.253  0.00  0.00    +0.000 A 
ATOM     30  C   UNL     1      12.963   6.281  74.123  0.00  0.00    +0.000 A 
ATOM     31  C   UNL     1      13.608   5.594  72.895  0.00  0.00    +0.000 A 
BRANCH  29  32
ATOM     32  C   UNL     1      11.911   6.242  76.428  0.00  0.00    +0.000 C 
BRANCH  32  33
ATOM     33  N   UNL     1      11.439   6.878  77.646  0.00  0.00    +0.000 NA
ATOM     34  C   UNL     1      10.666   5.889  78.380  0.00  0.00    +0.000 C 
ATOM     35  C   UNL     1      10.519   7.933  77.255  0.00  0.00    +0.000 C 
ENDBRANCH  32  33
ENDBRANCH  29  32
ENDBRANCH  24  26
ENDBRANCH   3  24
TORSDOF 7
ENDMDL
