MODEL 1
REMARK VINA RESULT:      -4.0      0.000      0.000
REMARK  Name = 
REMARK  0 active torsions:
REMARK  status: ('A' for Active; 'I' for Inactive)
REMARK                            x       y       z     vdW  Elec       q    Type
REMARK                         _______ _______ _______ _____ _____    ______ ____
ROOT
ATOM      1  O   UNL     1       4.373   8.753  60.138  0.00  0.00    +0.000 OA
ATOM      2  O   UNL     1       5.198   3.676  59.306  0.00  0.00    +0.000 OA
ATOM      3  N   UNL     1       5.065   9.101  61.264  0.00  0.00    +0.000 N 
ATOM      4  N   UNL     1       6.092   5.725  59.902  0.00  0.00    +0.000 N 
ATOM      5  C   UNL     1       6.101   8.040  61.682  0.00  0.00    +0.000 C 
ATOM      6  C   UNL     1       7.209   7.829  60.630  0.00  0.00    +0.000 C 
ATOM      7  C   UNL     1       5.466   6.706  62.095  0.00  0.00    +0.000 C 
ATOM      8  C   UNL     1       6.722   6.977  59.424  0.00  0.00    +0.000 C 
ATOM      9  C   UNL     1       7.852   9.183  60.277  0.00  0.00    +0.000 C 
ATOM     10  C   UNL     1       5.016   5.890  60.884  0.00  0.00    +0.000 C 
ATOM     11  C   UNL     1       5.780  10.407  60.992  0.00  0.00    +0.000 C 
ATOM     12  C   UNL     1       4.348   6.905  63.127  0.00  0.00    +0.000 C 
ATOM     13  C   UNL     1       4.076   9.296  62.394  0.00  0.00    +0.000 C 
ATOM     14  C   UNL     1       6.830  10.247  59.898  0.00  0.00    +0.000 C 
ATOM     15  C   UNL     1       3.358   7.996  62.737  0.00  0.00    +0.000 C 
ATOM     16  C   UNL     1       7.877   6.706  58.447  0.00  0.00    +0.000 C 
ATOM     17  C   UNL     1       7.436   5.733  57.370  0.00  0.00    +0.000 C 
ATOM     18  C   UNL     1       5.999   4.589  59.096  0.00  0.00    +0.000 C 
ATOM     19  C   UNL     1       7.046   4.424  58.018  0.00  0.00    +0.000 C 
ENDROOT
TORSDOF 0
ENDMDL
MODEL 2
REMARK VINA RESULT:      -4.0     13.947     15.486
REMARK  Name = 
REMARK  0 active torsions:
REMARK  status: ('A' for Active; 'I' for Inactive)
REMARK                            x       y       z     vdW  Elec       q    Type
REMARK                         _______ _______ _______ _____ _____    ______ ____
ROOT
ATOM      1  O   UNL     1      16.860  -0.188  50.929  0.00  0.00    +0.000 OA
ATOM      2  O   UNL     1      18.633  -0.467  55.821  0.00  0.00    +0.000 OA
ATOM      3  N   UNL     1      15.901   0.786  50.897  0.00  0.00    +0.000 N 
ATOM      4  N   UNL     1      17.972   0.881  54.059  0.00  0.00    +0.000 N 
ATOM      5  C   UNL     1      15.918   1.687  52.147  0.00  0.00    +0.000 C 
ATOM      6  C   UNL     1      17.231   2.481  52.300  0.00  0.00    +0.000 C 
ATOM      7  C   UNL     1      15.569   0.936  53.437  0.00  0.00    +0.000 C 
ATOM      8  C   UNL     1      18.395   1.599  52.835  0.00  0.00    +0.000 C 
ATOM      9  C   UNL     1      17.522   3.256  51.002  0.00  0.00    +0.000 C 
ATOM     10  C   UNL     1      16.741   0.094  53.941  0.00  0.00    +0.000 C 
ATOM     11  C   UNL     1      16.139   1.640  49.670  0.00  0.00    +0.000 C 
ATOM     12  C   UNL     1      14.275   0.124  53.290  0.00  0.00    +0.000 C 
ATOM     13  C   UNL     1      14.544   0.120  50.789  0.00  0.00    +0.000 C 
ATOM     14  C   UNL     1      17.469   2.379  49.759  0.00  0.00    +0.000 C 
ATOM     15  C   UNL     1      14.237  -0.721  52.022  0.00  0.00    +0.000 C 
ATOM     16  C   UNL     1      19.657   2.444  53.068  0.00  0.00    +0.000 C 
ATOM     17  C   UNL     1      20.726   1.614  53.752  0.00  0.00    +0.000 C 
ATOM     18  C   UNL     1      18.893   0.415  55.000  0.00  0.00    +0.000 C 
ATOM     19  C   UNL     1      20.208   1.154  55.096  0.00  0.00    +0.000 C 
ENDROOT
TORSDOF 0
ENDMDL
MODEL 3
REMARK VINA RESULT:      -3.9     11.944     13.367
REMARK  Name = 
REMARK  0 active torsions:
REMARK  status: ('A' for Active; 'I' for Inactive)
REMARK                            x       y       z     vdW  Elec       q    Type
REMARK                         _______ _______ _______ _____ _____    ______ ____
ROOT
ATOM      1  O   UNL     1      18.745  12.045  61.234  0.00  0.00    +0.000 OA
ATOM      2  O   UNL     1      18.094   9.496  56.736  0.00  0.00    +0.000 OA
ATOM      3  N   UNL     1      18.295  11.231  62.235  0.00  0.00    +0.000 N 
ATOM      4  N   UNL     1      18.746   9.403  58.955  0.00  0.00    +0.000 N 
ATOM      5  C   UNL     1      18.103   9.771  61.779  0.00  0.00    +0.000 C 
ATOM      6  C   UNL     1      19.417   9.100  61.334  0.00  0.00    +0.000 C 
ATOM      7  C   UNL     1      17.009   9.609  60.717  0.00  0.00    +0.000 C 
ATOM      8  C   UNL     1      19.862   9.556  59.915  0.00  0.00    +0.000 C 
ATOM      9  C   UNL     1      20.474   9.244  62.445  0.00  0.00    +0.000 C 
ATOM     10  C   UNL     1      17.487  10.052  59.335  0.00  0.00    +0.000 C 
ATOM     11  C   UNL     1      19.305  11.266  63.361  0.00  0.00    +0.000 C 
ATOM     12  C   UNL     1      15.701  10.292  61.139  0.00  0.00    +0.000 C 
ATOM     13  C   UNL     1      16.969  11.769  62.732  0.00  0.00    +0.000 C 
ATOM     14  C   UNL     1      20.642  10.679  62.926  0.00  0.00    +0.000 C 
ATOM     15  C   UNL     1      15.903  11.716  61.645  0.00  0.00    +0.000 C 
ATOM     16  C   UNL     1      21.119   8.794  59.467  0.00  0.00    +0.000 C 
ATOM     17  C   UNL     1      21.441   9.118  58.020  0.00  0.00    +0.000 C 
ATOM     18  C   UNL     1      18.963   9.274  57.582  0.00  0.00    +0.000 C 
ATOM     19  C   UNL     1      20.285   8.681  57.149  0.00  0.00    +0.000 C 
ENDROOT
TORSDOF 0
ENDMDL
MODEL 4
REMARK VINA RESULT:      -3.7      1.848      3.979
REMARK  Name = 
REMARK  0 active torsions:
REMARK  status: ('A' for Active; 'I' for Inactive)
REMARK                            x       y       z     vdW  Elec       q    Type
REMARK                         _______ _______ _______ _____ _____    ______ ____
ROOT
ATOM      1  O   UNL     1       4.747   8.345  58.669  0.00  0.00    +0.000 OA
ATOM      2  O   UNL     1       4.887   6.424  63.510  0.00  0.00    +0.000 OA
ATOM      3  N   UNL     1       6.032   8.371  58.202  0.00  0.00    +0.000 N 
ATOM      4  N   UNL     1       5.658   6.283  61.332  0.00  0.00    +0.000 N 
ATOM      5  C   UNL     1       6.998   7.528  59.057  0.00  0.00    +0.000 C 
ATOM      6  C   UNL     1       6.647   6.027  59.061  0.00  0.00    +0.000 C 
ATOM      7  C   UNL     1       7.165   8.064  60.484  0.00  0.00    +0.000 C 
ATOM      8  C   UNL     1       5.439   5.706  59.986  0.00  0.00    +0.000 C 
ATOM      9  C   UNL     1       6.534   5.517  57.613  0.00  0.00    +0.000 C 
ATOM     10  C   UNL     1       5.967   7.715  61.367  0.00  0.00    +0.000 C 
ATOM     11  C   UNL     1       6.029   7.832  56.787  0.00  0.00    +0.000 C 
ATOM     12  C   UNL     1       7.493   9.562  60.493  0.00  0.00    +0.000 C 
ATOM     13  C   UNL     1       6.510   9.808  58.191  0.00  0.00    +0.000 C 
ATOM     14  C   UNL     1       5.610   6.368  56.752  0.00  0.00    +0.000 C 
ATOM     15  C   UNL     1       6.572  10.385  59.600  0.00  0.00    +0.000 C 
ATOM     16  C   UNL     1       5.182   4.191  60.042  0.00  0.00    +0.000 C 
ATOM     17  C   UNL     1       4.120   3.877  61.078  0.00  0.00    +0.000 C 
ATOM     18  C   UNL     1       5.015   5.780  62.466  0.00  0.00    +0.000 C 
ATOM     19  C   UNL     1       4.609   4.325  62.436  0.00  0.00    +0.000 C 
ENDROOT
TORSDOF 0
ENDMDL
MODEL 5
REMARK VINA RESULT:      -3.7     11.980     14.581
REMARK  Name = 
REMARK  0 active torsions:
REMARK  status: ('A' for Active; 'I' for Inactive)
REMARK                            x       y       z     vdW  Elec       q    Type
REMARK                         _______ _______ _______ _____ _____    ______ ____
ROOT
ATOM      1  O   UNL     1       3.755  10.592  74.161  0.00  0.00    +0.000 OA
ATOM      2  O   UNL     1       4.379   5.425  74.413  0.00  0.00    +0.000 OA
ATOM      3  N   UNL     1       2.769  10.841  73.249  0.00  0.00    +0.000 N 
ATOM      4  N   UNL     1       2.909   7.209  74.293  0.00  0.00    +0.000 N 
ATOM      5  C   UNL     1       1.952   9.584  72.891  0.00  0.00    +0.000 C 
ATOM      6  C   UNL     1       1.188   8.998  74.095  0.00  0.00    +0.000 C 
ATOM      7  C   UNL     1       2.781   8.507  72.181  0.00  0.00    +0.000 C 
ATOM      8  C   UNL     1       2.119   8.203  75.054  0.00  0.00    +0.000 C 
ATOM      9  C   UNL     1       0.333  10.097  74.751  0.00  0.00    +0.000 C 
ATOM     10  C   UNL     1       3.670   7.737  73.157  0.00  0.00    +0.000 C 
ATOM     11  C   UNL     1       1.839  11.883  73.833  0.00  0.00    +0.000 C 
ATOM     12  C   UNL     1       3.563   9.083  70.993  0.00  0.00    +0.000 C 
ATOM     13  C   UNL     1       3.407  11.388  71.989  0.00  0.00    +0.000 C 
ATOM     14  C   UNL     1       1.126  11.356  75.074  0.00  0.00    +0.000 C 
ATOM     15  C   UNL     1       4.323  10.359  71.336  0.00  0.00    +0.000 C 
ATOM     16  C   UNL     1       1.308   7.552  76.186  0.00  0.00    +0.000 C 
ATOM     17  C   UNL     1       2.196   6.641  77.011  0.00  0.00    +0.000 C 
ATOM     18  C   UNL     1       3.448   6.072  74.899  0.00  0.00    +0.000 C 
ATOM     19  C   UNL     1       2.735   5.543  76.123  0.00  0.00    +0.000 C 
ENDROOT
TORSDOF 0
ENDMDL
MODEL 6
REMARK VINA RESULT:      -3.6     12.487     14.971
REMARK  Name = 
REMARK  0 active torsions:
REMARK  status: ('A' for Active; 'I' for Inactive)
REMARK                            x       y       z     vdW  Elec       q    Type
REMARK                         _______ _______ _______ _____ _____    ______ ____
ROOT
ATOM      1  O   UNL     1       5.038   7.260  75.625  0.00  0.00    +0.000 OA
ATOM      2  O   UNL     1       6.036  10.661  71.805  0.00  0.00    +0.000 OA
ATOM      3  N   UNL     1       4.270   7.903  76.555  0.00  0.00    +0.000 N 
ATOM      4  N   UNL     1       4.484   9.786  73.282  0.00  0.00    +0.000 N 
ATOM      5  C   UNL     1       3.670   9.221  76.029  0.00  0.00    +0.000 C 
ATOM      6  C   UNL     1       2.704   9.015  74.845  0.00  0.00    +0.000 C 
ATOM      7  C   UNL     1       4.731  10.279  75.703  0.00  0.00    +0.000 C 
ATOM      8  C   UNL     1       3.456   8.745  73.511  0.00  0.00    +0.000 C 
ATOM      9  C   UNL     1       1.628   7.982  75.228  0.00  0.00    +0.000 C 
ATOM     10  C   UNL     1       5.436   9.990  74.378  0.00  0.00    +0.000 C 
ATOM     11  C   UNL     1       3.143   6.975  76.957  0.00  0.00    +0.000 C 
ATOM     12  C   UNL     1       5.712  10.478  76.866  0.00  0.00    +0.000 C 
ATOM     13  C   UNL     1       5.131   8.202  77.765  0.00  0.00    +0.000 C 
ATOM     14  C   UNL     1       2.214   6.691  75.783  0.00  0.00    +0.000 C 
ATOM     15  C   UNL     1       6.258   9.168  77.422  0.00  0.00    +0.000 C 
ATOM     16  C   UNL     1       2.467   8.643  72.339  0.00  0.00    +0.000 C 
ATOM     17  C   UNL     1       3.217   8.555  71.024  0.00  0.00    +0.000 C 
ATOM     18  C   UNL     1       4.966  10.082  72.005  0.00  0.00    +0.000 C 
ATOM     19  C   UNL     1       4.040   9.810  70.842  0.00  0.00    +0.000 C 
ENDROOT
TORSDOF 0
ENDMDL
MODEL 7
REMARK VINA RESULT:      -3.6     12.900     14.485
REMARK  Name = 
REMARK  0 active torsions:
REMARK  status: ('A' for Active; 'I' for Inactive)
REMARK                            x       y       z     vdW  Elec       q    Type
REMARK                         _______ _______ _______ _____ _____    ______ ____
ROOT
ATOM      1  O   UNL     1      20.456  11.559  57.998  0.00  0.00    +0.000 OA
ATOM      2  O   UNL     1      16.623   9.740  54.973  0.00  0.00    +0.000 OA
ATOM      3  N   UNL     1      20.613  10.680  59.033  0.00  0.00    +0.000 N 
ATOM      4  N   UNL     1      18.513   9.268  56.222  0.00  0.00    +0.000 N 
ATOM      5  C   UNL     1      19.911   9.331  58.785  0.00  0.00    +0.000 C 
ATOM      6  C   UNL     1      20.483   8.566  57.575  0.00  0.00    +0.000 C 
ATOM      7  C   UNL     1      18.385   9.452  58.695  0.00  0.00    +0.000 C 
ATOM      8  C   UNL     1      19.989   9.150  56.221  0.00  0.00    +0.000 C 
ATOM      9  C   UNL     1      22.009   8.425  57.726  0.00  0.00    +0.000 C 
ATOM     10  C   UNL     1      17.937  10.013  57.346  0.00  0.00    +0.000 C 
ATOM     11  C   UNL     1      22.095  10.437  59.224  0.00  0.00    +0.000 C 
ATOM     12  C   UNL     1      17.806  10.230  59.883  0.00  0.00    +0.000 C 
ATOM     13  C   UNL     1      20.041  11.309  60.287  0.00  0.00    +0.000 C 
ATOM     14  C   UNL     1      22.705   9.750  58.008  0.00  0.00    +0.000 C 
ATOM     15  C   UNL     1      18.540  11.536  60.162  0.00  0.00    +0.000 C 
ATOM     16  C   UNL     1      20.500   8.304  55.044  0.00  0.00    +0.000 C 
ATOM     17  C   UNL     1      19.872   8.776  53.746  0.00  0.00    +0.000 C 
ATOM     18  C   UNL     1      17.772   9.299  55.039  0.00  0.00    +0.000 C 
ATOM     19  C   UNL     1      18.373   8.608  53.836  0.00  0.00    +0.000 C 
ENDROOT
TORSDOF 0
ENDMDL
MODEL 8
REMARK VINA RESULT:      -3.5     11.345     12.132
REMARK  Name = 
REMARK  0 active torsions:
REMARK  status: ('A' for Active; 'I' for Inactive)
REMARK                            x       y       z     vdW  Elec       q    Type
REMARK                         _______ _______ _______ _____ _____    ______ ____
ROOT
ATOM      1  O   UNL     1      17.233  13.635  60.597  0.00  0.00    +0.000 OA
ATOM      2  O   UNL     1      17.981  11.434  55.933  0.00  0.00    +0.000 OA
ATOM      3  N   UNL     1      15.969  13.311  61.004  0.00  0.00    +0.000 N 
ATOM      4  N   UNL     1      17.142  11.220  58.080  0.00  0.00    +0.000 N 
ATOM      5  C   UNL     1      15.350  12.164  60.182  0.00  0.00    +0.000 C 
ATOM      6  C   UNL     1      16.122  10.837  60.319  0.00  0.00    +0.000 C 
ATOM      7  C   UNL     1      15.129  12.529  58.709  0.00  0.00    +0.000 C 
ATOM      8  C   UNL     1      17.430  10.826  59.477  0.00  0.00    +0.000 C 
ATOM      9  C   UNL     1      16.283  10.483  61.809  0.00  0.00    +0.000 C 
ATOM     10  C   UNL     1      16.431  12.491  57.911  0.00  0.00    +0.000 C 
ATOM     11  C   UNL     1      16.035  12.895  62.458  0.00  0.00    +0.000 C 
ATOM     12  C   UNL     1      14.379  13.859  58.559  0.00  0.00    +0.000 C 
ATOM     13  C   UNL     1      15.093  14.540  60.872  0.00  0.00    +0.000 C 
ATOM     14  C   UNL     1      16.860  11.626  62.634  0.00  0.00    +0.000 C 
ATOM     15  C   UNL     1      14.959  14.976  59.419  0.00  0.00    +0.000 C 
ATOM     16  C   UNL     1      18.120   9.456  59.561  0.00  0.00    +0.000 C 
ATOM     17  C   UNL     1      19.294   9.399  58.602  0.00  0.00    +0.000 C 
ATOM     18  C   UNL     1      17.977  10.854  57.021  0.00  0.00    +0.000 C 
ATOM     19  C   UNL     1      18.787   9.589  57.191  0.00  0.00    +0.000 C 
ENDROOT
TORSDOF 0
ENDMDL
MODEL 9
REMARK VINA RESULT:      -3.5     13.538     14.962
REMARK  Name = 
REMARK  0 active torsions:
REMARK  status: ('A' for Active; 'I' for Inactive)
REMARK                            x       y       z     vdW  Elec       q    Type
REMARK                         _______ _______ _______ _____ _____    ______ ____
ROOT
ATOM      1  O   UNL     1      19.449  11.511  55.749  0.00  0.00    +0.000 OA
ATOM      2  O   UNL     1      22.017   7.614  53.431  0.00  0.00    +0.000 OA
ATOM      3  N   UNL     1      18.221  11.032  56.112  0.00  0.00    +0.000 N 
ATOM      4  N   UNL     1      20.638   8.282  55.166  0.00  0.00    +0.000 N 
ATOM      5  C   UNL     1      18.138   9.495  56.063  0.00  0.00    +0.000 C 
ATOM      6  C   UNL     1      19.098   8.806  57.053  0.00  0.00    +0.000 C 
ATOM      7  C   UNL     1      18.297   8.927  54.647  0.00  0.00    +0.000 C 
ATOM      8  C   UNL     1      20.569   8.811  56.547  0.00  0.00    +0.000 C 
ATOM      9  C   UNL     1      18.875   9.369  58.468  0.00  0.00    +0.000 C 
ATOM     10  C   UNL     1      19.756   8.933  54.192  0.00  0.00    +0.000 C 
ATOM     11  C   UNL     1      17.934  11.496  57.525  0.00  0.00    +0.000 C 
ATOM     12  C   UNL     1      17.361   9.620  53.649  0.00  0.00    +0.000 C 
ATOM     13  C   UNL     1      17.184  11.612  55.173  0.00  0.00    +0.000 C 
ATOM     14  C   UNL     1      18.920  10.891  58.518  0.00  0.00    +0.000 C 
ATOM     15  C   UNL     1      17.403  11.141  53.741  0.00  0.00    +0.000 C 
ATOM     16  C   UNL     1      21.479   8.032  57.510  0.00  0.00    +0.000 C 
ATOM     17  C   UNL     1      22.870   7.894  56.922  0.00  0.00    +0.000 C 
ATOM     18  C   UNL     1      21.810   7.734  54.641  0.00  0.00    +0.000 C 
ATOM     19  C   UNL     1      22.782   7.124  55.625  0.00  0.00    +0.000 C 
ENDROOT
TORSDOF 0
ENDMDL
