MODEL 1
REMARK VINA RESULT:      -3.7      0.000      0.000
REMARK  Name = 
REMARK  23 active torsions:
REMARK  status: ('A' for Active; 'I' for Inactive)
REMARK    1  A    between atoms: O_2  and  C_17
REMARK    2  A    between atoms: O_2  and  C_36
REMARK    3  A    between atoms: O_3  and  C_20
REMARK    4  A    between atoms: O_3  and  C_37
REMARK    5  A    between atoms: O_4  and  C_21
REMARK    6  A    between atoms: O_5  and  C_22
REMARK    7  A    between atoms: O_6  and  C_30
REMARK    8  A    between atoms: O_6  and  C_39
REMARK    9  A    between atoms: O_8  and  C_31
REMARK   10  A    between atoms: O_8  and  C_40
REMARK   11  A    between atoms: O_13  and  C_42
REMARK   12  A    between atoms: N_15  and  C_46
REMARK   13  A    between atoms: C_18  and  C_29
REMARK   14  A    between atoms: C_24  and  C_33
REMARK   15  A    between atoms: C_24  and  C_34
REMARK   16  A    between atoms: C_32  and  C_35
REMARK   17  A    between atoms: C_36  and  C_38
REMARK   18  A    between atoms: C_37  and  C_41
REMARK   19  A    between atoms: C_39  and  C_43
REMARK   20  A    between atoms: C_40  and  C_42
REMARK   21  A    between atoms: C_42  and  C_46
REMARK   22  A    between atoms: C_46  and  C_50
REMARK   23  A    between atoms: C_53  and  C_56
REMARK                            x       y       z     vdW  Elec       q    Type
REMARK                         _______ _______ _______ _____ _____    ______ ____
ROOT
ATOM      1  O   UNL     1       6.747   6.228  54.584  0.00  0.00    +0.000 OA
ATOM      2  O   UNL     1       2.255  10.541  56.967  0.00  0.00    +0.000 OA
ATOM      3  C   UNL     1       5.905   8.184  57.287  0.00  0.00    +0.000 C 
ATOM      4  C   UNL     1       6.186   6.838  56.557  0.00  0.00    +0.000 C 
ATOM      5  C   UNL     1       4.069   8.585  57.021  0.00  0.00    +0.000 C 
ATOM      6  C   UNL     1       5.985   7.364  55.078  0.00  0.00    +0.000 C 
ATOM      7  C   UNL     1       6.695   8.241  58.975  0.00  0.00    +0.000 C 
ATOM      8  C   UNL     1       6.845   9.348  60.504  0.00  0.00    +0.000 C 
ATOM      9  C   UNL     1       3.921   8.695  55.446  0.00  0.00    +0.000 C 
ATOM     10  C   UNL     1       4.552   7.530  54.626  0.00  0.00    +0.000 C 
ATOM     11  C   UNL     1       5.921  10.808  60.909  0.00  0.00    +0.000 C 
ATOM     12  C   UNL     1       7.499   6.310  55.855  0.00  0.00    +0.000 C 
ATOM     13  C   UNL     1       3.102  10.033  57.733  0.00  0.00    +0.000 C 
ATOM     14  C   UNL     1       6.454   8.426  61.749  0.00  0.00    +0.000 C 
ATOM     15  C   UNL     1       4.338  10.543  60.863  0.00  0.00    +0.000 C 
ATOM     16  C   UNL     1       3.122   7.365  57.380  0.00  0.00    +0.000 C 
ATOM     17  C   UNL     1       3.253  10.852  59.464  0.00  0.00    +0.000 C 
ATOM     18  C   UNL     1       4.957   8.483  62.296  0.00  0.00    +0.000 C 
ATOM     19  C   UNL     1       3.960   9.580  61.770  0.00  0.00    +0.000 C 
ATOM     20  C   UNL     1       6.298  11.175  62.431  0.00  0.00    +0.000 C 
ATOM     21  C   UNL     1       6.372  12.184  60.322  0.00  0.00    +0.000 C 
ATOM     22  C   UNL     1       2.516   9.322  62.122  0.00  0.00    +0.000 C 
ENDROOT
BRANCH   9  23
ATOM     23  O   UNL     1       4.544   9.900  55.003  0.00  0.00    +0.000 OA
ATOM     24  H   UNL     1       4.112  10.629  55.492  0.00  0.00    +0.000 HD
ENDBRANCH   9  23
BRANCH   8  25
ATOM     25  O   UNL     1       8.249   9.642  60.634  0.00  0.00    +0.000 OA
ATOM     26  H   UNL     1       8.724   9.233  59.889  0.00  0.00    +0.000 HD
ENDBRANCH   8  25
BRANCH  18  27
ATOM     27  O   UNL     1       4.331   7.194  62.026  0.00  0.00    +0.000 OA
BRANCH  27  29
ATOM     28  O   UNL     1       5.249   5.589  63.330  0.00  0.00    +0.000 OA
ATOM     29  C   UNL     1       4.293   6.304  63.051  0.00  0.00    +0.000 C 
BRANCH  29  30
ATOM     30  C   UNL     1       2.919   6.156  63.712  0.00  0.00    +0.000 C 
BRANCH  30  31
ATOM     31  O   UNL     1       2.868   6.500  65.102  0.00  0.00    +0.000 OA
ATOM     32  H   UNL     1       2.167   5.945  65.491  0.00  0.00    +0.000 HD
ENDBRANCH  30  31
BRANCH  30  33
ATOM     33  C   UNL     1       2.433   4.697  63.493  0.00  0.00    +0.000 C 
BRANCH  33  34
ATOM     34  C   UNL     1       1.225   4.666  62.567  0.00  0.00    +0.000 A 
ATOM     35  C   UNL     1       0.845   5.838  61.889  0.00  0.00    +0.000 A 
ATOM     36  C   UNL     1       0.452   3.508  62.389  0.00  0.00    +0.000 A 
ATOM     37  C   UNL     1      -0.265   5.845  61.044  0.00  0.00    +0.000 A 
ATOM     38  C   UNL     1      -0.657   3.517  61.542  0.00  0.00    +0.000 A 
ATOM     39  C   UNL     1      -1.014   4.683  60.868  0.00  0.00    +0.000 A 
ENDBRANCH  33  34
BRANCH  33  41
ATOM     40  O   UNL     1       2.660   2.823  66.578  0.00  0.00    +0.000 OA
ATOM     41  N   UNL     1       2.124   4.060  64.781  0.00  0.00    +0.000 N 
ATOM     42  C   UNL     1       2.702   2.964  65.360  0.00  0.00    +0.000 C 
ATOM     43  H   UNL     1       1.624   4.652  65.437  0.00  0.00    +0.000 HD
BRANCH  42  44
ATOM     44  C   UNL     1       3.419   1.968  64.531  0.00  0.00    +0.000 A 
ATOM     45  C   UNL     1       2.734   0.958  63.849  0.00  0.00    +0.000 A 
ATOM     46  C   UNL     1       4.818   2.009  64.498  0.00  0.00    +0.000 A 
ATOM     47  C   UNL     1       3.444   0.030  63.086  0.00  0.00    +0.000 A 
ATOM     48  C   UNL     1       5.525   1.079  63.737  0.00  0.00    +0.000 A 
ATOM     49  C   UNL     1       4.837   0.096  63.024  0.00  0.00    +0.000 A 
ENDBRANCH  42  44
ENDBRANCH  33  41
ENDBRANCH  30  33
ENDBRANCH  29  30
ENDBRANCH  27  29
ENDBRANCH  18  27
BRANCH  17  50
ATOM     50  O   UNL     1       3.183  12.293  59.402  0.00  0.00    +0.000 OA
BRANCH  50  52
ATOM     51  O   UNL     1       2.010  14.199  59.438  0.00  0.00    +0.000 OA
ATOM     52  C   UNL     1       2.047  12.988  59.637  0.00  0.00    +0.000 C 
ATOM     53  C   UNL     1       0.883  12.250  60.227  0.00  0.00    +0.000 C 
ENDBRANCH  50  52
ENDBRANCH  17  50
BRANCH   7  54
ATOM     54  O   UNL     1       5.533   7.824  59.431  0.00  0.00    +0.000 OA
BRANCH  54  56
ATOM     55  O   UNL     1       7.247   6.776  59.463  0.00  0.00    +0.000 OA
ATOM     56  C   UNL     1       6.057   6.579  59.686  0.00  0.00    +0.000 C 
BRANCH  56  57
ATOM     57  C   UNL     1       5.004   5.004  59.963  0.00  0.00    +0.000 A 
ATOM     58  C   UNL     1       3.596   4.856  59.600  0.00  0.00    +0.000 A 
ATOM     59  C   UNL     1       5.452   3.730  60.427  0.00  0.00    +0.000 A 
ATOM     60  C   UNL     1       2.809   3.680  59.682  0.00  0.00    +0.000 A 
ATOM     61  C   UNL     1       4.677   2.539  60.518  0.00  0.00    +0.000 A 
ATOM     62  C   UNL     1       3.356   2.510  60.143  0.00  0.00    +0.000 A 
ENDBRANCH  56  57
ENDBRANCH  54  56
ENDBRANCH   7  54
BRANCH   4  63
ATOM     63  O   UNL     1       5.262   5.796  56.952  0.00  0.00    +0.000 OA
BRANCH  63  65
ATOM     64  O   UNL     1       6.356   3.847  57.023  0.00  0.00    +0.000 OA
ATOM     65  C   UNL     1       5.390   4.492  56.619  0.00  0.00    +0.000 C 
ATOM     66  C   UNL     1       4.415   3.879  55.665  0.00  0.00    +0.000 C 
ENDBRANCH  63  65
ENDBRANCH   4  63
TORSDOF 17
ENDMDL
MODEL 2
REMARK VINA RESULT:      -3.7     14.152     16.952
REMARK  Name = 
REMARK  23 active torsions:
REMARK  status: ('A' for Active; 'I' for Inactive)
REMARK    1  A    between atoms: O_2  and  C_17
REMARK    2  A    between atoms: O_2  and  C_36
REMARK    3  A    between atoms: O_3  and  C_20
REMARK    4  A    between atoms: O_3  and  C_37
REMARK    5  A    between atoms: O_4  and  C_21
REMARK    6  A    between atoms: O_5  and  C_22
REMARK    7  A    between atoms: O_6  and  C_30
REMARK    8  A    between atoms: O_6  and  C_39
REMARK    9  A    between atoms: O_8  and  C_31
REMARK   10  A    between atoms: O_8  and  C_40
REMARK   11  A    between atoms: O_13  and  C_42
REMARK   12  A    between atoms: N_15  and  C_46
REMARK   13  A    between atoms: C_18  and  C_29
REMARK   14  A    between atoms: C_24  and  C_33
REMARK   15  A    between atoms: C_24  and  C_34
REMARK   16  A    between atoms: C_32  and  C_35
REMARK   17  A    between atoms: C_36  and  C_38
REMARK   18  A    between atoms: C_37  and  C_41
REMARK   19  A    between atoms: C_39  and  C_43
REMARK   20  A    between atoms: C_40  and  C_42
REMARK   21  A    between atoms: C_42  and  C_46
REMARK   22  A    between atoms: C_46  and  C_50
REMARK   23  A    between atoms: C_53  and  C_56
REMARK                            x       y       z     vdW  Elec       q    Type
REMARK                         _______ _______ _______ _____ _____    ______ ____
ROOT
ATOM      1  O   UNL     1      19.161   2.300  68.777  0.00  0.00    +0.000 OA
ATOM      2  O   UNL     1      14.641   7.115  67.860  0.00  0.00    +0.000 OA
ATOM      3  C   UNL     1      17.592   4.984  70.252  0.00  0.00    +0.000 C 
ATOM      4  C   UNL     1      17.969   3.481  70.107  0.00  0.00    +0.000 C 
ATOM      5  C   UNL     1      16.055   5.277  69.179  0.00  0.00    +0.000 C 
ATOM      6  C   UNL     1      18.407   3.529  68.586  0.00  0.00    +0.000 C 
ATOM      7  C   UNL     1      17.684   5.557  72.025  0.00  0.00    +0.000 C 
ATOM      8  C   UNL     1      17.371   7.079  73.108  0.00  0.00    +0.000 C 
ATOM      9  C   UNL     1      16.529   4.901  67.713  0.00  0.00    +0.000 C 
ATOM     10  C   UNL     1      17.283   3.543  67.575  0.00  0.00    +0.000 C 
ATOM     11  C   UNL     1      16.541   8.588  72.684  0.00  0.00    +0.000 C 
ATOM     12  C   UNL     1      19.379   2.770  70.163  0.00  0.00    +0.000 C 
ATOM     13  C   UNL     1      15.068   6.869  69.008  0.00  0.00    +0.000 C 
ATOM     14  C   UNL     1      16.433   6.579  74.300  0.00  0.00    +0.000 C 
ATOM     15  C   UNL     1      15.074   8.316  72.090  0.00  0.00    +0.000 C 
ATOM     16  C   UNL     1      14.907   4.221  69.460  0.00  0.00    +0.000 C 
ATOM     17  C   UNL     1      14.646   8.178  70.350  0.00  0.00    +0.000 C 
ATOM     18  C   UNL     1      14.857   6.794  74.167  0.00  0.00    +0.000 C 
ATOM     19  C   UNL     1      14.271   7.673  73.003  0.00  0.00    +0.000 C 
ATOM     20  C   UNL     1      16.353   9.404  74.060  0.00  0.00    +0.000 C 
ATOM     21  C   UNL     1      17.340   9.721  71.962  0.00  0.00    +0.000 C 
ATOM     22  C   UNL     1      12.781   7.529  72.810  0.00  0.00    +0.000 C 
ENDROOT
BRANCH   9  23
ATOM     23  O   UNL     1      17.411   5.916  67.234  0.00  0.00    +0.000 OA
ATOM     24  H   UNL     1      17.141   6.102  66.312  0.00  0.00    +0.000 HD
ENDBRANCH   9  23
BRANCH   8  25
ATOM     25  O   UNL     1      18.645   7.404  73.697  0.00  0.00    +0.000 OA
ATOM     26  H   UNL     1      18.498   7.995  74.456  0.00  0.00    +0.000 HD
ENDBRANCH   8  25
BRANCH  18  27
ATOM     27  O   UNL     1      14.234   5.481  74.046  0.00  0.00    +0.000 OA
BRANCH  27  29
ATOM     28  O   UNL     1      12.431   4.351  74.815  0.00  0.00    +0.000 OA
ATOM     29  C   UNL     1      13.360   5.125  75.022  0.00  0.00    +0.000 C 
BRANCH  29  30
ATOM     30  C   UNL     1      13.534   5.886  76.340  0.00  0.00    +0.000 C 
BRANCH  30  31
ATOM     31  O   UNL     1      14.021   5.107  77.438  0.00  0.00    +0.000 OA
ATOM     32  H   UNL     1      13.299   4.497  77.678  0.00  0.00    +0.000 HD
ENDBRANCH  30  31
BRANCH  30  33
ATOM     33  C   UNL     1      12.173   6.544  76.700  0.00  0.00    +0.000 C 
BRANCH  33  34
ATOM     34  C   UNL     1      12.165   8.014  76.302  0.00  0.00    +0.000 A 
ATOM     35  C   UNL     1      11.019   8.560  75.698  0.00  0.00    +0.000 A 
ATOM     36  C   UNL     1      13.284   8.842  76.490  0.00  0.00    +0.000 A 
ATOM     37  C   UNL     1      10.987   9.900  75.310  0.00  0.00    +0.000 A 
ATOM     38  C   UNL     1      13.248  10.182  76.103  0.00  0.00    +0.000 A 
ATOM     39  C   UNL     1      12.100  10.711  75.516  0.00  0.00    +0.000 A 
ENDBRANCH  33  34
BRANCH  33  41
ATOM     40  O   UNL     1      10.825   5.432  79.866  0.00  0.00    +0.000 OA
ATOM     41  N   UNL     1      11.890   6.386  78.133  0.00  0.00    +0.000 N 
ATOM     42  C   UNL     1      10.758   5.915  78.740  0.00  0.00    +0.000 C 
ATOM     43  H   UNL     1      12.713   6.358  78.727  0.00  0.00    +0.000 HD
BRANCH  42  44
ATOM     44  C   UNL     1       9.459   5.941  78.030  0.00  0.00    +0.000 A 
ATOM     45  C   UNL     1       8.709   7.117  77.924  0.00  0.00    +0.000 A 
ATOM     46  C   UNL     1       8.952   4.740  77.521  0.00  0.00    +0.000 A 
ATOM     47  C   UNL     1       7.484   7.101  77.256  0.00  0.00    +0.000 A 
ATOM     48  C   UNL     1       7.726   4.727  76.856  0.00  0.00    +0.000 A 
ATOM     49  C   UNL     1       6.998   5.910  76.716  0.00  0.00    +0.000 A 
ENDBRANCH  42  44
ENDBRANCH  33  41
ENDBRANCH  30  33
ENDBRANCH  29  30
ENDBRANCH  27  29
ENDBRANCH  18  27
BRANCH  17  50
ATOM     50  O   UNL     1      14.774   9.531  69.862  0.00  0.00    +0.000 OA
BRANCH  50  52
ATOM     51  O   UNL     1      13.521  10.560  68.319  0.00  0.00    +0.000 OA
ATOM     52  C   UNL     1      13.715  10.289  69.501  0.00  0.00    +0.000 C 
ATOM     53  C   UNL     1      12.852  10.853  70.590  0.00  0.00    +0.000 C 
ENDBRANCH  50  52
ENDBRANCH  17  50
BRANCH   7  54
ATOM     54  O   UNL     1      16.395   5.294  72.079  0.00  0.00    +0.000 OA
BRANCH  54  56
ATOM     55  O   UNL     1      17.841   4.304  73.062  0.00  0.00    +0.000 OA
ATOM     56  C   UNL     1      16.631   4.207  72.888  0.00  0.00    +0.000 C 
BRANCH  56  57
ATOM     57  C   UNL     1      15.346   2.834  73.246  0.00  0.00    +0.000 A 
ATOM     58  C   UNL     1      15.298   2.018  74.457  0.00  0.00    +0.000 A 
ATOM     59  C   UNL     1      14.194   2.499  72.471  0.00  0.00    +0.000 A 
ATOM     60  C   UNL     1      14.305   1.072  74.814  0.00  0.00    +0.000 A 
ATOM     61  C   UNL     1      13.188   1.552  72.812  0.00  0.00    +0.000 A 
ATOM     62  C   UNL     1      13.238   0.839  73.985  0.00  0.00    +0.000 A 
ENDBRANCH  56  57
ENDBRANCH  54  56
ENDBRANCH   7  54
BRANCH   4  63
ATOM     63  O   UNL     1      16.849   2.605  70.378  0.00  0.00    +0.000 OA
BRANCH  63  65
ATOM     64  O   UNL     1      17.512   0.842  71.582  0.00  0.00    +0.000 OA
ATOM     65  C   UNL     1      16.949   1.271  70.577  0.00  0.00    +0.000 C 
ATOM     66  C   UNL     1      16.478   0.333  69.513  0.00  0.00    +0.000 C 
ENDBRANCH  63  65
ENDBRANCH   4  63
TORSDOF 17
ENDMDL
MODEL 3
REMARK VINA RESULT:      -3.6      2.916      4.617
REMARK  Name = 
REMARK  23 active torsions:
REMARK  status: ('A' for Active; 'I' for Inactive)
REMARK    1  A    between atoms: O_2  and  C_17
REMARK    2  A    between atoms: O_2  and  C_36
REMARK    3  A    between atoms: O_3  and  C_20
REMARK    4  A    between atoms: O_3  and  C_37
REMARK    5  A    between atoms: O_4  and  C_21
REMARK    6  A    between atoms: O_5  and  C_22
REMARK    7  A    between atoms: O_6  and  C_30
REMARK    8  A    between atoms: O_6  and  C_39
REMARK    9  A    between atoms: O_8  and  C_31
REMARK   10  A    between atoms: O_8  and  C_40
REMARK   11  A    between atoms: O_13  and  C_42
REMARK   12  A    between atoms: N_15  and  C_46
REMARK   13  A    between atoms: C_18  and  C_29
REMARK   14  A    between atoms: C_24  and  C_33
REMARK   15  A    between atoms: C_24  and  C_34
REMARK   16  A    between atoms: C_32  and  C_35
REMARK   17  A    between atoms: C_36  and  C_38
REMARK   18  A    between atoms: C_37  and  C_41
REMARK   19  A    between atoms: C_39  and  C_43
REMARK   20  A    between atoms: C_40  and  C_42
REMARK   21  A    between atoms: C_42  and  C_46
REMARK   22  A    between atoms: C_46  and  C_50
REMARK   23  A    between atoms: C_53  and  C_56
REMARK                            x       y       z     vdW  Elec       q    Type
REMARK                         _______ _______ _______ _____ _____    ______ ____
ROOT
ATOM      1  O   UNL     1       7.823   4.193  57.198  0.00  0.00    +0.000 OA
ATOM      2  O   UNL     1       4.174   9.410  55.216  0.00  0.00    +0.000 OA
ATOM      3  C   UNL     1       6.944   7.436  57.938  0.00  0.00    +0.000 C 
ATOM      4  C   UNL     1       7.024   5.905  58.204  0.00  0.00    +0.000 C 
ATOM      5  C   UNL     1       5.374   7.741  56.918  0.00  0.00    +0.000 C 
ATOM      6  C   UNL     1       7.288   5.454  56.710  0.00  0.00    +0.000 C 
ATOM      7  C   UNL     1       7.339   8.431  59.466  0.00  0.00    +0.000 C 
ATOM      8  C   UNL     1       7.432  10.218  60.088  0.00  0.00    +0.000 C 
ATOM      9  C   UNL     1       5.602   6.897  55.595  0.00  0.00    +0.000 C 
ATOM     10  C   UNL     1       6.077   5.428  55.805  0.00  0.00    +0.000 C 
ATOM     11  C   UNL     1       6.846  11.695  59.301  0.00  0.00    +0.000 C 
ATOM     12  C   UNL     1       8.279   4.961  58.378  0.00  0.00    +0.000 C 
ATOM     13  C   UNL     1       4.677   9.397  56.360  0.00  0.00    +0.000 C 
ATOM     14  C   UNL     1       6.560  10.258  61.426  0.00  0.00    +0.000 C 
ATOM     15  C   UNL     1       5.296  11.581  58.896  0.00  0.00    +0.000 C 
ATOM     16  C   UNL     1       4.093   7.058  57.555  0.00  0.00    +0.000 C 
ATOM     17  C   UNL     1       4.655  11.075  57.296  0.00  0.00    +0.000 C 
ATOM     18  C   UNL     1       5.045  10.748  61.330  0.00  0.00    +0.000 C 
ATOM     19  C   UNL     1       4.499  11.386  60.000  0.00  0.00    +0.000 C 
ATOM     20  C   UNL     1       6.966  12.870  60.397  0.00  0.00    +0.000 C 
ATOM     21  C   UNL     1       7.749  12.405  58.241  0.00  0.00    +0.000 C 
ATOM     22  C   UNL     1       2.996  11.505  59.944  0.00  0.00    +0.000 C 
ENDROOT
BRANCH   9  23
ATOM     23  O   UNL     1       6.593   7.544  54.796  0.00  0.00    +0.000 OA
ATOM     24  H   UNL     1       6.686   7.005  53.984  0.00  0.00    +0.000 HD
ENDBRANCH   9  23
BRANCH   8  25
ATOM     25  O   UNL     1       8.802  10.419  60.484  0.00  0.00    +0.000 OA
ATOM     26  H   UNL     1       9.178  11.144  59.954  0.00  0.00    +0.000 HD
ENDBRANCH   8  25
BRANCH  18  27
ATOM     27  O   UNL     1       4.185   9.609  61.624  0.00  0.00    +0.000 OA
BRANCH  27  29
ATOM     28  O   UNL     1       4.356   9.823  63.870  0.00  0.00    +0.000 OA
ATOM     29  C   UNL     1       3.689   9.524  62.885  0.00  0.00    +0.000 C 
BRANCH  29  30
ATOM     30  C   UNL     1       2.303   8.877  62.980  0.00  0.00    +0.000 C 
BRANCH  30  31
ATOM     31  O   UNL     1       1.301   9.449  62.131  0.00  0.00    +0.000 OA
ATOM     32  H   UNL     1       1.381   8.991  61.273  0.00  0.00    +0.000 HD
ENDBRANCH  30  31
BRANCH  30  33
ATOM     33  C   UNL     1       1.850   8.923  64.465  0.00  0.00    +0.000 C 
BRANCH  33  34
ATOM     34  C   UNL     1       1.364   7.554  64.921  0.00  0.00    +0.000 A 
ATOM     35  C   UNL     1       2.138   6.814  65.831  0.00  0.00    +0.000 A 
ATOM     36  C   UNL     1       0.175   6.986  64.435  0.00  0.00    +0.000 A 
ATOM     37  C   UNL     1       1.726   5.551  66.257  0.00  0.00    +0.000 A 
ATOM     38  C   UNL     1      -0.236   5.724  64.864  0.00  0.00    +0.000 A 
ATOM     39  C   UNL     1       0.537   5.007  65.776  0.00  0.00    +0.000 A 
ENDBRANCH  33  34
BRANCH  33  41
ATOM     40  O   UNL     1      -0.183  11.602  65.796  0.00  0.00    +0.000 OA
ATOM     41  N   UNL     1       0.807   9.941  64.652  0.00  0.00    +0.000 N 
ATOM     42  C   UNL     1       0.339  10.491  65.814  0.00  0.00    +0.000 C 
ATOM     43  H   UNL     1       0.605  10.496  63.827  0.00  0.00    +0.000 HD
BRANCH  42  44
ATOM     44  C   UNL     1       0.500   9.778  67.101  0.00  0.00    +0.000 A 
ATOM     45  C   UNL     1       1.655   9.923  67.876  0.00  0.00    +0.000 A 
ATOM     46  C   UNL     1      -0.503   8.888  67.502  0.00  0.00    +0.000 A 
ATOM     47  C   UNL     1       1.776   9.226  69.079  0.00  0.00    +0.000 A 
ATOM     48  C   UNL     1      -0.378   8.191  68.703  0.00  0.00    +0.000 A 
ATOM     49  C   UNL     1       0.757   8.368  69.495  0.00  0.00    +0.000 A 
ENDBRANCH  42  44
ENDBRANCH  33  41
ENDBRANCH  30  33
ENDBRANCH  29  30
ENDBRANCH  27  29
ENDBRANCH  18  27
BRANCH  17  50
ATOM     50  O   UNL     1       4.970  12.192  56.436  0.00  0.00    +0.000 OA
BRANCH  50  52
ATOM     51  O   UNL     1       4.336  13.770  54.981  0.00  0.00    +0.000 OA
ATOM     52  C   UNL     1       4.025  12.965  55.854  0.00  0.00    +0.000 C 
ATOM     53  C   UNL     1       2.622  12.866  56.371  0.00  0.00    +0.000 C 
ENDBRANCH  50  52
ENDBRANCH  17  50
BRANCH   7  54
ATOM     54  O   UNL     1       6.039   8.462  59.668  0.00  0.00    +0.000 OA
BRANCH  54  56
ATOM     55  O   UNL     1       7.375   7.648  60.929  0.00  0.00    +0.000 OA
ATOM     56  C   UNL     1       6.164   7.607  60.738  0.00  0.00    +0.000 C 
BRANCH  56  57
ATOM     57  C   UNL     1       4.758   6.481  61.385  0.00  0.00    +0.000 A 
ATOM     58  C   UNL     1       4.808   5.689  62.612  0.00  0.00    +0.000 A 
ATOM     59  C   UNL     1       3.437   6.352  60.858  0.00  0.00    +0.000 A 
ATOM     60  C   UNL     1       3.756   4.933  63.188  0.00  0.00    +0.000 A 
ATOM     61  C   UNL     1       2.369   5.596  61.421  0.00  0.00    +0.000 A 
ATOM     62  C   UNL     1       2.525   4.888  62.588  0.00  0.00    +0.000 A 
ENDBRANCH  56  57
ENDBRANCH  54  56
ENDBRANCH   7  54
BRANCH   4  63
ATOM     63  O   UNL     1       5.802   5.383  58.779  0.00  0.00    +0.000 OA
BRANCH  63  65
ATOM     64  O   UNL     1       6.314   3.683  60.138  0.00  0.00    +0.000 OA
ATOM     65  C   UNL     1       5.637   4.110  59.204  0.00  0.00    +0.000 C 
ATOM     66  C   UNL     1       4.716   3.199  58.457  0.00  0.00    +0.000 C 
ENDBRANCH  63  65
ENDBRANCH   4  63
TORSDOF 17
ENDMDL
MODEL 4
REMARK VINA RESULT:      -3.6     14.245     16.389
REMARK  Name = 
REMARK  23 active torsions:
REMARK  status: ('A' for Active; 'I' for Inactive)
REMARK    1  A    between atoms: O_2  and  C_17
REMARK    2  A    between atoms: O_2  and  C_36
REMARK    3  A    between atoms: O_3  and  C_20
REMARK    4  A    between atoms: O_3  and  C_37
REMARK    5  A    between atoms: O_4  and  C_21
REMARK    6  A    between atoms: O_5  and  C_22
REMARK    7  A    between atoms: O_6  and  C_30
REMARK    8  A    between atoms: O_6  and  C_39
REMARK    9  A    between atoms: O_8  and  C_31
REMARK   10  A    between atoms: O_8  and  C_40
REMARK   11  A    between atoms: O_13  and  C_42
REMARK   12  A    between atoms: N_15  and  C_46
REMARK   13  A    between atoms: C_18  and  C_29
REMARK   14  A    between atoms: C_24  and  C_33
REMARK   15  A    between atoms: C_24  and  C_34
REMARK   16  A    between atoms: C_32  and  C_35
REMARK   17  A    between atoms: C_36  and  C_38
REMARK   18  A    between atoms: C_37  and  C_41
REMARK   19  A    between atoms: C_39  and  C_43
REMARK   20  A    between atoms: C_40  and  C_42
REMARK   21  A    between atoms: C_42  and  C_46
REMARK   22  A    between atoms: C_46  and  C_50
REMARK   23  A    between atoms: C_53  and  C_56
REMARK                            x       y       z     vdW  Elec       q    Type
REMARK                         _______ _______ _______ _____ _____    ______ ____
ROOT
ATOM      1  O   UNL     1      19.503   9.782  68.440  0.00  0.00    +0.000 OA
ATOM      2  O   UNL     1      13.300  11.145  70.470  0.00  0.00    +0.000 OA
ATOM      3  C   UNL     1      17.242   9.370  71.001  0.00  0.00    +0.000 C 
ATOM      4  C   UNL     1      18.181   8.879  69.861  0.00  0.00    +0.000 C 
ATOM      5  C   UNL     1      15.562   9.753  70.209  0.00  0.00    +0.000 C 
ATOM      6  C   UNL     1      18.284  10.252  69.079  0.00  0.00    +0.000 C 
ATOM      7  C   UNL     1      17.396   8.317  72.533  0.00  0.00    +0.000 C 
ATOM      8  C   UNL     1      16.672   8.115  74.271  0.00  0.00    +0.000 C 
ATOM      9  C   UNL     1      15.883  10.885  69.146  0.00  0.00    +0.000 C 
ATOM     10  C   UNL     1      17.099  10.607  68.211  0.00  0.00    +0.000 C 
ATOM     11  C   UNL     1      15.226   8.876  74.963  0.00  0.00    +0.000 C 
ATOM     12  C   UNL     1      19.745   9.026  69.689  0.00  0.00    +0.000 C 
ATOM     13  C   UNL     1      13.985  10.297  71.080  0.00  0.00    +0.000 C 
ATOM     14  C   UNL     1      16.254   6.578  74.393  0.00  0.00    +0.000 C 
ATOM     15  C   UNL     1      13.929   8.632  74.049  0.00  0.00    +0.000 C 
ATOM     16  C   UNL     1      15.029   8.563  69.306  0.00  0.00    +0.000 C 
ATOM     17  C   UNL     1      13.298   9.747  72.788  0.00  0.00    +0.000 C 
ATOM     18  C   UNL     1      14.737   6.178  74.102  0.00  0.00    +0.000 C 
ATOM     19  C   UNL     1      13.642   7.293  73.925  0.00  0.00    +0.000 C 
ATOM     20  C   UNL     1      14.959   8.143  76.372  0.00  0.00    +0.000 C 
ATOM     21  C   UNL     1      15.337  10.310  75.574  0.00  0.00    +0.000 C 
ATOM     22  C   UNL     1      12.341   6.793  73.347  0.00  0.00    +0.000 C 
ENDROOT
BRANCH   9  23
ATOM     23  O   UNL     1      16.160  12.104  69.835  0.00  0.00    +0.000 OA
ATOM     24  H   UNL     1      15.344  12.641  69.783  0.00  0.00    +0.000 HD
ENDBRANCH   9  23
BRANCH   8  25
ATOM     25  O   UNL     1      17.775   8.315  75.176  0.00  0.00    +0.000 OA
ATOM     26  H   UNL     1      18.353   9.010  74.816  0.00  0.00    +0.000 HD
ENDBRANCH   8  25
BRANCH  18  27
ATOM     27  O   UNL     1      14.709   5.376  72.886  0.00  0.00    +0.000 OA
BRANCH  27  29
ATOM     28  O   UNL     1      13.638   3.583  72.015  0.00  0.00    +0.000 OA
ATOM     29  C   UNL     1      14.155   4.140  72.978  0.00  0.00    +0.000 C 
BRANCH  29  30
ATOM     30  C   UNL     1      14.086   3.580  74.402  0.00  0.00    +0.000 C 
BRANCH  30  31
ATOM     31  O   UNL     1      15.296   2.986  74.886  0.00  0.00    +0.000 OA
ATOM     32  H   UNL     1      15.186   2.895  75.851  0.00  0.00    +0.000 HD
ENDBRANCH  30  31
BRANCH  30  33
ATOM     33  C   UNL     1      12.916   2.558  74.463  0.00  0.00    +0.000 C 
BRANCH  33  34
ATOM     34  C   UNL     1      11.781   3.093  75.324  0.00  0.00    +0.000 A 
ATOM     35  C   UNL     1      10.660   2.282  75.571  0.00  0.00    +0.000 A 
ATOM     36  C   UNL     1      11.800   4.391  75.860  0.00  0.00    +0.000 A 
ATOM     37  C   UNL     1       9.597   2.749  76.346  0.00  0.00    +0.000 A 
ATOM     38  C   UNL     1      10.738   4.855  76.637  0.00  0.00    +0.000 A 
ATOM     39  C   UNL     1       9.638   4.034  76.881  0.00  0.00    +0.000 A 
ENDBRANCH  33  34
BRANCH  33  41
ATOM     40  O   UNL     1      14.250  -0.796  74.687  0.00  0.00    +0.000 OA
ATOM     41  N   UNL     1      13.392   1.263  74.964  0.00  0.00    +0.000 N 
ATOM     42  C   UNL     1      13.447   0.057  74.320  0.00  0.00    +0.000 C 
ATOM     43  H   UNL     1      14.001   1.319  75.775  0.00  0.00    +0.000 HD
BRANCH  42  44
ATOM     44  C   UNL     1      12.577  -0.210  73.152  0.00  0.00    +0.000 A 
ATOM     45  C   UNL     1      12.991   0.088  71.851  0.00  0.00    +0.000 A 
ATOM     46  C   UNL     1      11.288  -0.706  73.379  0.00  0.00    +0.000 A 
ATOM     47  C   UNL     1      12.140  -0.168  70.774  0.00  0.00    +0.000 A 
ATOM     48  C   UNL     1      10.438  -0.958  72.302  0.00  0.00    +0.000 A 
ATOM     49  C   UNL     1      10.869  -0.698  71.001  0.00  0.00    +0.000 A 
ENDBRANCH  42  44
ENDBRANCH  33  41
ENDBRANCH  30  33
ENDBRANCH  29  30
ENDBRANCH  27  29
ENDBRANCH  18  27
BRANCH  17  50
ATOM     50  O   UNL     1      12.761  10.850  73.549  0.00  0.00    +0.000 OA
BRANCH  50  52
ATOM     51  O   UNL     1      11.086  12.312  73.298  0.00  0.00    +0.000 OA
ATOM     52  C   UNL     1      11.447  11.169  73.560  0.00  0.00    +0.000 C 
ATOM     53  C   UNL     1      10.472  10.112  73.985  0.00  0.00    +0.000 C 
ENDBRANCH  50  52
ENDBRANCH  17  50
BRANCH   7  54
ATOM     54  O   UNL     1      16.368   7.644  72.061  0.00  0.00    +0.000 OA
BRANCH  54  56
ATOM     55  O   UNL     1      18.243   6.950  72.251  0.00  0.00    +0.000 OA
ATOM     56  C   UNL     1      17.168   6.554  71.815  0.00  0.00    +0.000 C 
BRANCH  56  57
ATOM     57  C   UNL     1      16.642   5.052  70.751  0.00  0.00    +0.000 A 
ATOM     58  C   UNL     1      15.688   5.094  69.645  0.00  0.00    +0.000 A 
ATOM     59  C   UNL     1      17.182   3.731  70.787  0.00  0.00    +0.000 A 
ATOM     60  C   UNL     1      15.353   4.038  68.761  0.00  0.00    +0.000 A 
ATOM     61  C   UNL     1      16.857   2.657  69.910  0.00  0.00    +0.000 A 
ATOM     62  C   UNL     1      15.945   2.809  68.894  0.00  0.00    +0.000 A 
ENDBRANCH  56  57
ENDBRANCH  54  56
ENDBRANCH   7  54
BRANCH   4  63
ATOM     63  O   UNL     1      17.597   7.798  69.096  0.00  0.00    +0.000 OA
BRANCH  63  65
ATOM     64  O   UNL     1      17.967   7.376  66.932  0.00  0.00    +0.000 OA
ATOM     65  C   UNL     1      18.231   7.129  68.107  0.00  0.00    +0.000 C 
ATOM     66  C   UNL     1      19.162   6.011  68.455  0.00  0.00    +0.000 C 
ENDBRANCH  63  65
ENDBRANCH   4  63
TORSDOF 17
ENDMDL
MODEL 5
REMARK VINA RESULT:      -3.5     12.293     17.011
REMARK  Name = 
REMARK  23 active torsions:
REMARK  status: ('A' for Active; 'I' for Inactive)
REMARK    1  A    between atoms: O_2  and  C_17
REMARK    2  A    between atoms: O_2  and  C_36
REMARK    3  A    between atoms: O_3  and  C_20
REMARK    4  A    between atoms: O_3  and  C_37
REMARK    5  A    between atoms: O_4  and  C_21
REMARK    6  A    between atoms: O_5  and  C_22
REMARK    7  A    between atoms: O_6  and  C_30
REMARK    8  A    between atoms: O_6  and  C_39
REMARK    9  A    between atoms: O_8  and  C_31
REMARK   10  A    between atoms: O_8  and  C_40
REMARK   11  A    between atoms: O_13  and  C_42
REMARK   12  A    between atoms: N_15  and  C_46
REMARK   13  A    between atoms: C_18  and  C_29
REMARK   14  A    between atoms: C_24  and  C_33
REMARK   15  A    between atoms: C_24  and  C_34
REMARK   16  A    between atoms: C_32  and  C_35
REMARK   17  A    between atoms: C_36  and  C_38
REMARK   18  A    between atoms: C_37  and  C_41
REMARK   19  A    between atoms: C_39  and  C_43
REMARK   20  A    between atoms: C_40  and  C_42
REMARK   21  A    between atoms: C_42  and  C_46
REMARK   22  A    between atoms: C_46  and  C_50
REMARK   23  A    between atoms: C_53  and  C_56
REMARK                            x       y       z     vdW  Elec       q    Type
REMARK                         _______ _______ _______ _____ _____    ______ ____
ROOT
ATOM      1  O   UNL     1      17.576  11.876  63.002  0.00  0.00    +0.000 OA
ATOM      2  O   UNL     1      21.717  14.992  58.808  0.00  0.00    +0.000 OA
ATOM      3  C   UNL     1      17.756  13.734  60.111  0.00  0.00    +0.000 C 
ATOM      4  C   UNL     1      17.434  12.461  60.948  0.00  0.00    +0.000 C 
ATOM      5  C   UNL     1      19.574  13.605  59.584  0.00  0.00    +0.000 C 
ATOM      6  C   UNL     1      18.354  12.799  62.191  0.00  0.00    +0.000 C 
ATOM      7  C   UNL     1      16.399  14.130  58.894  0.00  0.00    +0.000 C 
ATOM      8  C   UNL     1      15.955  15.351  57.515  0.00  0.00    +0.000 C 
ATOM      9  C   UNL     1      20.371  13.551  60.954  0.00  0.00    +0.000 C 
ATOM     10  C   UNL     1      19.831  12.539  62.009  0.00  0.00    +0.000 C 
ATOM     11  C   UNL     1      17.000  16.534  56.706  0.00  0.00    +0.000 C 
ATOM     12  C   UNL     1      16.428  12.254  62.148  0.00  0.00    +0.000 C 
ATOM     13  C   UNL     1      20.529  14.790  58.478  0.00  0.00    +0.000 C 
ATOM     14  C   UNL     1      15.537  14.455  56.260  0.00  0.00    +0.000 C 
ATOM     15  C   UNL     1      18.325  15.852  56.110  0.00  0.00    +0.000 C 
ATOM     16  C   UNL     1      19.917  12.207  58.920  0.00  0.00    +0.000 C 
ATOM     17  C   UNL     1      19.923  15.750  56.928  0.00  0.00    +0.000 C 
ATOM     18  C   UNL     1      16.637  14.149  55.146  0.00  0.00    +0.000 C 
ATOM     19  C   UNL     1      18.022  14.894  55.170  0.00  0.00    +0.000 C 
ATOM     20  C   UNL     1      16.156  17.104  55.458  0.00  0.00    +0.000 C 
ATOM     21  C   UNL     1      17.224  17.932  57.369  0.00  0.00    +0.000 C 
ATOM     22  C   UNL     1      19.067  14.286  54.268  0.00  0.00    +0.000 C 
ENDROOT
BRANCH   9  23
ATOM     23  O   UNL     1      20.340  14.842  61.562  0.00  0.00    +0.000 OA
ATOM     24  H   UNL     1      19.464  14.923  61.991  0.00  0.00    +0.000 HD
ENDBRANCH   9  23
BRANCH   8  25
ATOM     25  O   UNL     1      14.760  16.019  57.960  0.00  0.00    +0.000 OA
ATOM     26  H   UNL     1      14.525  15.685  58.844  0.00  0.00    +0.000 HD
ENDBRANCH   8  25
BRANCH  18  27
ATOM     27  O   UNL     1      16.936  12.723  55.190  0.00  0.00    +0.000 OA
BRANCH  27  29
ATOM     28  O   UNL     1      16.071  12.495  53.111  0.00  0.00    +0.000 OA
ATOM     29  C   UNL     1      16.577  11.987  54.106  0.00  0.00    +0.000 C 
BRANCH  29  30
ATOM     30  C   UNL     1      16.706  10.473  54.297  0.00  0.00    +0.000 C 
BRANCH  30  31
ATOM     31  O   UNL     1      15.855   9.907  55.300  0.00  0.00    +0.000 OA
ATOM     32  H   UNL     1      14.968  10.283  55.146  0.00  0.00    +0.000 HD
ENDBRANCH  30  31
BRANCH  30  33
ATOM     33  C   UNL     1      18.195  10.149  54.600  0.00  0.00    +0.000 C 
BRANCH  33  34
ATOM     34  C   UNL     1      18.828   9.396  53.438  0.00  0.00    +0.000 A 
ATOM     35  C   UNL     1      19.798  10.034  52.647  0.00  0.00    +0.000 A 
ATOM     36  C   UNL     1      18.449   8.085  53.107  0.00  0.00    +0.000 A 
ATOM     37  C   UNL     1      20.387   9.374  51.568  0.00  0.00    +0.000 A 
ATOM     38  C   UNL     1      19.040   7.425  52.029  0.00  0.00    +0.000 A 
ATOM     39  C   UNL     1      20.010   8.068  51.261  0.00  0.00    +0.000 A 
ENDBRANCH  33  34
BRANCH  33  41
ATOM     40  O   UNL     1      19.301   8.885  57.802  0.00  0.00    +0.000 OA
ATOM     41  N   UNL     1      18.310   9.385  55.848  0.00  0.00    +0.000 N 
ATOM     42  C   UNL     1      19.421   9.137  56.607  0.00  0.00    +0.000 C 
ATOM     43  H   UNL     1      17.437   9.260  56.352  0.00  0.00    +0.000 HD
BRANCH  42  44
ATOM     44  C   UNL     1      20.773   9.216  56.007  0.00  0.00    +0.000 A 
ATOM     45  C   UNL     1      21.398   8.088  55.468  0.00  0.00    +0.000 A 
ATOM     46  C   UNL     1      21.454  10.438  56.053  0.00  0.00    +0.000 A 
ATOM     47  C   UNL     1      22.677   8.198  54.920  0.00  0.00    +0.000 A 
ATOM     48  C   UNL     1      22.733  10.545  55.508  0.00  0.00    +0.000 A 
ATOM     49  C   UNL     1      23.339   9.426  54.933  0.00  0.00    +0.000 A 
ENDBRANCH  42  44
ENDBRANCH  33  41
ENDBRANCH  30  33
ENDBRANCH  29  30
ENDBRANCH  27  29
ENDBRANCH  18  27
BRANCH  17  50
ATOM     50  O   UNL     1      20.407  17.110  56.895  0.00  0.00    +0.000 OA
BRANCH  50  52
ATOM     51  O   UNL     1      21.403  18.686  55.657  0.00  0.00    +0.000 OA
ATOM     52  C   UNL     1      21.384  17.526  56.058  0.00  0.00    +0.000 C 
ATOM     53  C   UNL     1      22.374  16.508  55.575  0.00  0.00    +0.000 C 
ENDBRANCH  50  52
ENDBRANCH  17  50
BRANCH   7  54
ATOM     54  O   UNL     1      17.113  13.452  58.020  0.00  0.00    +0.000 OA
BRANCH  54  56
ATOM     55  O   UNL     1      16.913  11.503  57.575  0.00  0.00    +0.000 OA
ATOM     56  C   UNL     1      16.254  12.383  58.119  0.00  0.00    +0.000 C 
BRANCH  56  57
ATOM     57  C   UNL     1      14.427  12.518  58.673  0.00  0.00    +0.000 A 
ATOM     58  C   UNL     1      13.282  12.670  57.778  0.00  0.00    +0.000 A 
ATOM     59  C   UNL     1      13.906  12.362  59.994  0.00  0.00    +0.000 A 
ATOM     60  C   UNL     1      11.909  12.662  58.132  0.00  0.00    +0.000 A 
ATOM     61  C   UNL     1      12.533  12.353  60.369  0.00  0.00    +0.000 A 
ATOM     62  C   UNL     1      11.532  12.499  59.439  0.00  0.00    +0.000 A 
ENDBRANCH  56  57
ENDBRANCH  54  56
ENDBRANCH   7  54
BRANCH   4  63
ATOM     63  O   UNL     1      17.792  11.243  60.254  0.00  0.00    +0.000 OA
BRANCH  63  65
ATOM     64  O   UNL     1      16.227   9.662  60.481  0.00  0.00    +0.000 OA
ATOM     65  C   UNL     1      17.399  10.004  60.627  0.00  0.00    +0.000 C 
ATOM     66  C   UNL     1      18.370   9.105  61.323  0.00  0.00    +0.000 C 
ENDBRANCH  63  65
ENDBRANCH   4  63
TORSDOF 17
ENDMDL
MODEL 6
REMARK VINA RESULT:      -3.5     12.217     16.201
REMARK  Name = 
REMARK  23 active torsions:
REMARK  status: ('A' for Active; 'I' for Inactive)
REMARK    1  A    between atoms: O_2  and  C_17
REMARK    2  A    between atoms: O_2  and  C_36
REMARK    3  A    between atoms: O_3  and  C_20
REMARK    4  A    between atoms: O_3  and  C_37
REMARK    5  A    between atoms: O_4  and  C_21
REMARK    6  A    between atoms: O_5  and  C_22
REMARK    7  A    between atoms: O_6  and  C_30
REMARK    8  A    between atoms: O_6  and  C_39
REMARK    9  A    between atoms: O_8  and  C_31
REMARK   10  A    between atoms: O_8  and  C_40
REMARK   11  A    between atoms: O_13  and  C_42
REMARK   12  A    between atoms: N_15  and  C_46
REMARK   13  A    between atoms: C_18  and  C_29
REMARK   14  A    between atoms: C_24  and  C_33
REMARK   15  A    between atoms: C_24  and  C_34
REMARK   16  A    between atoms: C_32  and  C_35
REMARK   17  A    between atoms: C_36  and  C_38
REMARK   18  A    between atoms: C_37  and  C_41
REMARK   19  A    between atoms: C_39  and  C_43
REMARK   20  A    between atoms: C_40  and  C_42
REMARK   21  A    between atoms: C_42  and  C_46
REMARK   22  A    between atoms: C_46  and  C_50
REMARK   23  A    between atoms: C_53  and  C_56
REMARK                            x       y       z     vdW  Elec       q    Type
REMARK                         _______ _______ _______ _____ _____    ______ ____
ROOT
ATOM      1  O   UNL     1      18.587   8.659  54.251  0.00  0.00    +0.000 OA
ATOM      2  O   UNL     1      21.938   9.966  59.865  0.00  0.00    +0.000 OA
ATOM      3  C   UNL     1      18.369  10.095  57.370  0.00  0.00    +0.000 C 
ATOM      4  C   UNL     1      18.346  10.102  55.814  0.00  0.00    +0.000 C 
ATOM      5  C   UNL     1      20.174  10.344  57.898  0.00  0.00    +0.000 C 
ATOM      6  C   UNL     1      19.136   8.747  55.595  0.00  0.00    +0.000 C 
ATOM      7  C   UNL     1      16.979  11.107  58.093  0.00  0.00    +0.000 C 
ATOM      8  C   UNL     1      16.282  11.695  59.753  0.00  0.00    +0.000 C 
ATOM      9  C   UNL     1      20.937   9.106  57.266  0.00  0.00    +0.000 C 
ATOM     10  C   UNL     1      20.636   8.823  55.763  0.00  0.00    +0.000 C 
ATOM     11  C   UNL     1      17.028  11.608  61.360  0.00  0.00    +0.000 C 
ATOM     12  C   UNL     1      17.397   9.345  54.802  0.00  0.00    +0.000 C 
ATOM     13  C   UNL     1      20.839  10.519  59.650  0.00  0.00    +0.000 C 
ATOM     14  C   UNL     1      16.112  13.278  59.618  0.00  0.00    +0.000 C 
ATOM     15  C   UNL     1      18.488  12.274  61.377  0.00  0.00    +0.000 C 
ATOM     16  C   UNL     1      20.854  11.582  57.177  0.00  0.00    +0.000 C 
ATOM     17  C   UNL     1      20.049  11.410  61.158  0.00  0.00    +0.000 C 
ATOM     18  C   UNL     1      17.273  14.216  60.180  0.00  0.00    +0.000 C 
ATOM     19  C   UNL     1      18.439  13.608  61.043  0.00  0.00    +0.000 C 
ATOM     20  C   UNL     1      16.095  12.482  62.340  0.00  0.00    +0.000 C 
ATOM     21  C   UNL     1      16.900  10.290  62.190  0.00  0.00    +0.000 C 
ATOM     22  C   UNL     1      19.615  14.534  61.232  0.00  0.00    +0.000 C 
ENDROOT
BRANCH   9  23
ATOM     23  O   UNL     1      20.587   7.926  57.989  0.00  0.00    +0.000 OA
ATOM     24  H   UNL     1      21.236   7.241  57.728  0.00  0.00    +0.000 HD
ENDBRANCH   9  23
BRANCH   8  25
ATOM     25  O   UNL     1      14.953  11.144  59.831  0.00  0.00    +0.000 OA
ATOM     26  H   UNL     1      14.332  11.856  60.063  0.00  0.00    +0.000 HD
ENDBRANCH   8  25
BRANCH  18  27
ATOM     27  O   UNL     1      17.903  14.880  59.046  0.00  0.00    +0.000 OA
BRANCH  27  29
ATOM     28  O   UNL     1      17.584  16.999  59.773  0.00  0.00    +0.000 OA
ATOM     29  C   UNL     1      17.596  16.189  58.852  0.00  0.00    +0.000 C 
BRANCH  29  30
ATOM     30  C   UNL     1      17.115  16.525  57.437  0.00  0.00    +0.000 C 
BRANCH  30  31
ATOM     31  O   UNL     1      17.441  17.841  56.976  0.00  0.00    +0.000 OA
ATOM     32  H   UNL     1      18.274  18.085  57.422  0.00  0.00    +0.000 HD
ENDBRANCH  30  31
BRANCH  30  33
ATOM     33  C   UNL     1      15.579  16.294  57.382  0.00  0.00    +0.000 C 
BRANCH  33  34
ATOM     34  C   UNL     1      15.137  15.960  55.964  0.00  0.00    +0.000 A 
ATOM     35  C   UNL     1      13.773  16.024  55.633  0.00  0.00    +0.000 A 
ATOM     36  C   UNL     1      16.049  15.557  54.975  0.00  0.00    +0.000 A 
ATOM     37  C   UNL     1      13.336  15.712  54.345  0.00  0.00    +0.000 A 
ATOM     38  C   UNL     1      15.610  15.247  53.688  0.00  0.00    +0.000 A 
ATOM     39  C   UNL     1      14.255  15.326  53.372  0.00  0.00    +0.000 A 
ENDBRANCH  33  34
BRANCH  33  41
ATOM     40  O   UNL     1      14.037  18.743  59.550  0.00  0.00    +0.000 OA
ATOM     41  N   UNL     1      14.865  17.470  57.893  0.00  0.00    +0.000 N 
ATOM     42  C   UNL     1      14.189  17.623  59.073  0.00  0.00    +0.000 C 
ATOM     43  H   UNL     1      15.129  18.349  57.459  0.00  0.00    +0.000 HD
BRANCH  42  44
ATOM     44  C   UNL     1      13.680  16.440  59.804  0.00  0.00    +0.000 A 
ATOM     45  C   UNL     1      14.144  16.117  61.083  0.00  0.00    +0.000 A 
ATOM     46  C   UNL     1      12.766  15.598  59.160  0.00  0.00    +0.000 A 
ATOM     47  C   UNL     1      13.649  14.989  61.738  0.00  0.00    +0.000 A 
ATOM     48  C   UNL     1      12.275  14.469  59.815  0.00  0.00    +0.000 A 
ATOM     49  C   UNL     1      12.710  14.172  61.107  0.00  0.00    +0.000 A 
ENDBRANCH  42  44
ENDBRANCH  33  41
ENDBRANCH  30  33
ENDBRANCH  29  30
ENDBRANCH  27  29
ENDBRANCH  18  27
BRANCH  17  50
ATOM     50  O   UNL     1      20.194  10.659  62.382  0.00  0.00    +0.000 OA
BRANCH  50  52
ATOM     51  O   UNL     1      22.146  10.261  63.403  0.00  0.00    +0.000 OA
ATOM     52  C   UNL     1      21.129  10.944  63.316  0.00  0.00    +0.000 C 
ATOM     53  C   UNL     1      20.839  12.051  64.285  0.00  0.00    +0.000 C 
ENDBRANCH  50  52
ENDBRANCH  17  50
BRANCH   7  54
ATOM     54  O   UNL     1      17.850  12.094  58.146  0.00  0.00    +0.000 OA
BRANCH  54  56
ATOM     55  O   UNL     1      18.162  13.494  56.740  0.00  0.00    +0.000 OA
ATOM     56  C   UNL     1      17.304  12.663  57.020  0.00  0.00    +0.000 C 
BRANCH  56  57
ATOM     57  C   UNL     1      15.516  12.348  56.414  0.00  0.00    +0.000 A 
ATOM     58  C   UNL     1      14.302  12.758  57.116  0.00  0.00    +0.000 A 
ATOM     59  C   UNL     1      15.108  11.801  55.159  0.00  0.00    +0.000 A 
ATOM     60  C   UNL     1      12.966  12.647  56.655  0.00  0.00    +0.000 A 
ATOM     61  C   UNL     1      13.773  11.680  54.680  0.00  0.00    +0.000 A 
ATOM     62  C   UNL     1      12.700  12.106  55.425  0.00  0.00    +0.000 A 
ENDBRANCH  56  57
ENDBRANCH  54  56
ENDBRANCH   7  54
BRANCH   4  63
ATOM     63  O   UNL     1      18.997  11.269  55.260  0.00  0.00    +0.000 OA
BRANCH  63  65
ATOM     64  O   UNL     1      20.023  11.206  53.274  0.00  0.00    +0.000 OA
ATOM     65  C   UNL     1      19.053  11.562  53.941  0.00  0.00    +0.000 C 
ATOM     66  C   UNL     1      17.989  12.421  53.333  0.00  0.00    +0.000 C 
ENDBRANCH  63  65
ENDBRANCH   4  63
TORSDOF 17
ENDMDL
MODEL 7
REMARK VINA RESULT:      -3.5      8.424     13.890
REMARK  Name = 
REMARK  23 active torsions:
REMARK  status: ('A' for Active; 'I' for Inactive)
REMARK    1  A    between atoms: O_2  and  C_17
REMARK    2  A    between atoms: O_2  and  C_36
REMARK    3  A    between atoms: O_3  and  C_20
REMARK    4  A    between atoms: O_3  and  C_37
REMARK    5  A    between atoms: O_4  and  C_21
REMARK    6  A    between atoms: O_5  and  C_22
REMARK    7  A    between atoms: O_6  and  C_30
REMARK    8  A    between atoms: O_6  and  C_39
REMARK    9  A    between atoms: O_8  and  C_31
REMARK   10  A    between atoms: O_8  and  C_40
REMARK   11  A    between atoms: O_13  and  C_42
REMARK   12  A    between atoms: N_15  and  C_46
REMARK   13  A    between atoms: C_18  and  C_29
REMARK   14  A    between atoms: C_24  and  C_33
REMARK   15  A    between atoms: C_24  and  C_34
REMARK   16  A    between atoms: C_32  and  C_35
REMARK   17  A    between atoms: C_36  and  C_38
REMARK   18  A    between atoms: C_37  and  C_41
REMARK   19  A    between atoms: C_39  and  C_43
REMARK   20  A    between atoms: C_40  and  C_42
REMARK   21  A    between atoms: C_42  and  C_46
REMARK   22  A    between atoms: C_46  and  C_50
REMARK   23  A    between atoms: C_53  and  C_56
REMARK                            x       y       z     vdW  Elec       q    Type
REMARK                         _______ _______ _______ _____ _____    ______ ____
ROOT
ATOM      1  O   UNL     1      10.409  18.307  65.341  0.00  0.00    +0.000 OA
ATOM      2  O   UNL     1       8.480  18.019  58.964  0.00  0.00    +0.000 OA
ATOM      3  C   UNL     1       9.669  16.187  62.733  0.00  0.00    +0.000 C 
ATOM      4  C   UNL     1      10.598  16.828  63.805  0.00  0.00    +0.000 C 
ATOM      5  C   UNL     1       9.755  17.290  61.193  0.00  0.00    +0.000 C 
ATOM      6  C   UNL     1       9.740  18.134  64.061  0.00  0.00    +0.000 C 
ATOM      7  C   UNL     1       9.888  14.337  62.638  0.00  0.00    +0.000 C 
ATOM      8  C   UNL     1       9.288  12.822  61.672  0.00  0.00    +0.000 C 
ATOM      9  C   UNL     1       9.231  18.700  61.697  0.00  0.00    +0.000 C 
ATOM     10  C   UNL     1       9.868  19.222  63.020  0.00  0.00    +0.000 C 
ATOM     11  C   UNL     1       8.345  12.768  60.171  0.00  0.00    +0.000 C 
ATOM     12  C   UNL     1      10.492  16.830  65.381  0.00  0.00    +0.000 C 
ATOM     13  C   UNL     1       8.925  16.998  59.530  0.00  0.00    +0.000 C 
ATOM     14  C   UNL     1      10.608  12.062  61.191  0.00  0.00    +0.000 C 
ATOM     15  C   UNL     1       9.029  13.636  59.006  0.00  0.00    +0.000 C 
ATOM     16  C   UNL     1      11.245  17.604  60.752  0.00  0.00    +0.000 C 
ATOM     17  C   UNL     1       8.647  15.343  58.594  0.00  0.00    +0.000 C 
ATOM     18  C   UNL     1      11.150  12.342  59.717  0.00  0.00    +0.000 C 
ATOM     19  C   UNL     1      10.283  13.164  58.694  0.00  0.00    +0.000 C 
ATOM     20  C   UNL     1       8.352  11.232  59.686  0.00  0.00    +0.000 C 
ATOM     21  C   UNL     1       6.788  12.881  60.243  0.00  0.00    +0.000 C 
ATOM     22  C   UNL     1      11.038  13.620  57.470  0.00  0.00    +0.000 C 
ENDROOT
BRANCH   9  23
ATOM     23  O   UNL     1       7.823  18.623  61.916  0.00  0.00    +0.000 OA
ATOM     24  H   UNL     1       7.544  19.509  62.224  0.00  0.00    +0.000 HD
ENDBRANCH   9  23
BRANCH   8  25
ATOM     25  O   UNL     1       8.654  11.969  62.645  0.00  0.00    +0.000 OA
ATOM     26  H   UNL     1       7.718  12.224  62.723  0.00  0.00    +0.000 HD
ENDBRANCH   8  25
BRANCH  18  27
ATOM     27  O   UNL     1      12.424  13.040  59.831  0.00  0.00    +0.000 OA
BRANCH  27  29
ATOM     28  O   UNL     1      13.901  11.465  60.510  0.00  0.00    +0.000 OA
ATOM     29  C   UNL     1      13.549  12.294  59.678  0.00  0.00    +0.000 C 
BRANCH  29  30
ATOM     30  C   UNL     1      14.412  12.688  58.474  0.00  0.00    +0.000 C 
BRANCH  30  31
ATOM     31  O   UNL     1      14.347  11.795  57.356  0.00  0.00    +0.000 OA
ATOM     32  H   UNL     1      13.496  11.975  56.915  0.00  0.00    +0.000 HD
ENDBRANCH  30  31
BRANCH  30  33
ATOM     33  C   UNL     1      15.878  12.845  58.963  0.00  0.00    +0.000 C 
BRANCH  33  34
ATOM     34  C   UNL     1      16.505  14.105  58.383  0.00  0.00    +0.000 A 
ATOM     35  C   UNL     1      15.699  15.015  57.677  0.00  0.00    +0.000 A 
ATOM     36  C   UNL     1      17.877  14.377  58.502  0.00  0.00    +0.000 A 
ATOM     37  C   UNL     1      16.248  16.173  57.123  0.00  0.00    +0.000 A 
ATOM     38  C   UNL     1      18.423  15.535  57.948  0.00  0.00    +0.000 A 
ATOM     39  C   UNL     1      17.609  16.434  57.261  0.00  0.00    +0.000 A 
ENDBRANCH  33  34
BRANCH  33  41
ATOM     40  O   UNL     1      17.522   9.624  59.047  0.00  0.00    +0.000 OA
ATOM     41  N   UNL     1      16.666  11.656  58.611  0.00  0.00    +0.000 N 
ATOM     42  C   UNL     1      17.297  10.766  59.437  0.00  0.00    +0.000 C 
ATOM     43  H   UNL     1      16.496  11.295  57.677  0.00  0.00    +0.000 HD
BRANCH  42  44
ATOM     44  C   UNL     1      17.671  11.157  60.815  0.00  0.00    +0.000 A 
ATOM     45  C   UNL     1      18.789  11.957  61.069  0.00  0.00    +0.000 A 
ATOM     46  C   UNL     1      16.921  10.646  61.881  0.00  0.00    +0.000 A 
ATOM     47  C   UNL     1      19.117  12.297  62.382  0.00  0.00    +0.000 A 
ATOM     48  C   UNL     1      17.253  10.985  63.193  0.00  0.00    +0.000 A 
ATOM     49  C   UNL     1      18.345  11.818  63.441  0.00  0.00    +0.000 A 
ENDBRANCH  42  44
ENDBRANCH  33  41
ENDBRANCH  30  33
ENDBRANCH  29  30
ENDBRANCH  27  29
ENDBRANCH  18  27
BRANCH  17  50
ATOM     50  O   UNL     1       7.337  15.261  57.993  0.00  0.00    +0.000 OA
BRANCH  50  52
ATOM     51  O   UNL     1       6.292  16.452  56.412  0.00  0.00    +0.000 OA
ATOM     52  C   UNL     1       7.097  15.570  56.699  0.00  0.00    +0.000 C 
ATOM     53  C   UNL     1       7.773  14.747  55.644  0.00  0.00    +0.000 C 
ENDBRANCH  50  52
ENDBRANCH  17  50
BRANCH   7  54
ATOM     54  O   UNL     1      10.738  14.582  61.663  0.00  0.00    +0.000 OA
BRANCH  54  56
ATOM     55  O   UNL     1      11.202  13.792  63.451  0.00  0.00    +0.000 OA
ATOM     56  C   UNL     1      11.794  14.216  62.465  0.00  0.00    +0.000 C 
BRANCH  56  57
ATOM     57  C   UNL     1      13.621  14.656  62.103  0.00  0.00    +0.000 A 
ATOM     58  C   UNL     1      14.072  15.749  61.245  0.00  0.00    +0.000 A 
ATOM     59  C   UNL     1      14.786  14.087  62.702  0.00  0.00    +0.000 A 
ATOM     60  C   UNL     1      15.406  16.181  61.037  0.00  0.00    +0.000 A 
ATOM     61  C   UNL     1      16.132  14.506  62.504  0.00  0.00    +0.000 A 
ATOM     62  C   UNL     1      16.445  15.555  61.674  0.00  0.00    +0.000 A 
ENDBRANCH  56  57
ENDBRANCH  54  56
ENDBRANCH   7  54
BRANCH   4  63
ATOM     63  O   UNL     1      11.930  17.079  63.297  0.00  0.00    +0.000 OA
BRANCH  63  65
ATOM     64  O   UNL     1      13.283  18.772  63.848  0.00  0.00    +0.000 OA
ATOM     65  C   UNL     1      12.942  17.604  64.025  0.00  0.00    +0.000 C 
ATOM     66  C   UNL     1      13.713  16.721  64.953  0.00  0.00    +0.000 C 
ENDBRANCH  63  65
ENDBRANCH   4  63
TORSDOF 17
ENDMDL
MODEL 8
REMARK VINA RESULT:      -3.5      2.869      4.154
REMARK  Name = 
REMARK  23 active torsions:
REMARK  status: ('A' for Active; 'I' for Inactive)
REMARK    1  A    between atoms: O_2  and  C_17
REMARK    2  A    between atoms: O_2  and  C_36
REMARK    3  A    between atoms: O_3  and  C_20
REMARK    4  A    between atoms: O_3  and  C_37
REMARK    5  A    between atoms: O_4  and  C_21
REMARK    6  A    between atoms: O_5  and  C_22
REMARK    7  A    between atoms: O_6  and  C_30
REMARK    8  A    between atoms: O_6  and  C_39
REMARK    9  A    between atoms: O_8  and  C_31
REMARK   10  A    between atoms: O_8  and  C_40
REMARK   11  A    between atoms: O_13  and  C_42
REMARK   12  A    between atoms: N_15  and  C_46
REMARK   13  A    between atoms: C_18  and  C_29
REMARK   14  A    between atoms: C_24  and  C_33
REMARK   15  A    between atoms: C_24  and  C_34
REMARK   16  A    between atoms: C_32  and  C_35
REMARK   17  A    between atoms: C_36  and  C_38
REMARK   18  A    between atoms: C_37  and  C_41
REMARK   19  A    between atoms: C_39  and  C_43
REMARK   20  A    between atoms: C_40  and  C_42
REMARK   21  A    between atoms: C_42  and  C_46
REMARK   22  A    between atoms: C_46  and  C_50
REMARK   23  A    between atoms: C_53  and  C_56
REMARK                            x       y       z     vdW  Elec       q    Type
REMARK                         _______ _______ _______ _____ _____    ______ ____
ROOT
ATOM      1  O   UNL     1       8.125   6.073  56.879  0.00  0.00    +0.000 OA
ATOM      2  O   UNL     1       2.560   9.739  57.084  0.00  0.00    +0.000 OA
ATOM      3  C   UNL     1       5.915   7.691  58.962  0.00  0.00    +0.000 C 
ATOM      4  C   UNL     1       6.657   6.447  58.392  0.00  0.00    +0.000 C 
ATOM      5  C   UNL     1       4.369   7.953  57.893  0.00  0.00    +0.000 C 
ATOM      6  C   UNL     1       7.091   7.088  57.010  0.00  0.00    +0.000 C 
ATOM      7  C   UNL     1       5.834   7.662  60.825  0.00  0.00    +0.000 C 
ATOM      8  C   UNL     1       5.136   8.632  62.294  0.00  0.00    +0.000 C 
ATOM      9  C   UNL     1       4.944   8.194  56.434  0.00  0.00    +0.000 C 
ATOM     10  C   UNL     1       6.015   7.169  55.953  0.00  0.00    +0.000 C 
ATOM     11  C   UNL     1       3.961   9.961  62.284  0.00  0.00    +0.000 C 
ATOM     12  C   UNL     1       8.199   6.104  58.357  0.00  0.00    +0.000 C 
ATOM     13  C   UNL     1       3.018   9.239  58.134  0.00  0.00    +0.000 C 
ATOM     14  C   UNL     1       4.335   7.569  63.177  0.00  0.00    +0.000 C 
ATOM     15  C   UNL     1       2.618   9.565  61.499  0.00  0.00    +0.000 C 
ATOM     16  C   UNL     1       3.517   6.627  57.721  0.00  0.00    +0.000 C 
ATOM     17  C   UNL     1       2.263   9.905  59.770  0.00  0.00    +0.000 C 
ATOM     18  C   UNL     1       2.758   7.444  62.968  0.00  0.00    +0.000 C 
ATOM     19  C   UNL     1       1.987   8.493  62.086  0.00  0.00    +0.000 C 
ATOM     20  C   UNL     1       3.555  10.219  63.821  0.00  0.00    +0.000 C 
ATOM     21  C   UNL     1       4.462  11.420  62.030  0.00  0.00    +0.000 C 
ATOM     22  C   UNL     1       0.584   8.079  61.718  0.00  0.00    +0.000 C 
ENDROOT
BRANCH   9  23
ATOM     23  O   UNL     1       5.551   9.485  56.381  0.00  0.00    +0.000 OA
ATOM     24  H   UNL     1       5.651   9.703  55.433  0.00  0.00    +0.000 HD
ENDBRANCH   9  23
BRANCH   8  25
ATOM     25  O   UNL     1       6.280   9.034  63.072  0.00  0.00    +0.000 OA
ATOM     26  H   UNL     1       6.084   9.887  63.498  0.00  0.00    +0.000 HD
ENDBRANCH   8  25
BRANCH  18  27
ATOM     27  O   UNL     1       2.484   6.136  62.386  0.00  0.00    +0.000 OA
BRANCH  27  29
ATOM     28  O   UNL     1       0.815   4.649  62.744  0.00  0.00    +0.000 OA
ATOM     29  C   UNL     1       1.800   5.252  63.158  0.00  0.00    +0.000 C 
BRANCH  29  30
ATOM     30  C   UNL     1       2.260   5.195  64.618  0.00  0.00    +0.000 C 
BRANCH  30  31
ATOM     31  O   UNL     1       2.941   3.994  65.000  0.00  0.00    +0.000 OA
ATOM     32  H   UNL     1       3.496   3.744  64.237  0.00  0.00    +0.000 HD
ENDBRANCH  30  31
BRANCH  30  33
ATOM     33  C   UNL     1       1.020   5.430  65.524  0.00  0.00    +0.000 C 
BRANCH  33  34
ATOM     34  C   UNL     1       1.322   6.478  66.586  0.00  0.00    +0.000 A 
ATOM     35  C   UNL     1       2.170   6.149  67.659  0.00  0.00    +0.000 A 
ATOM     36  C   UNL     1       0.754   7.761  66.550  0.00  0.00    +0.000 A 
ATOM     37  C   UNL     1       2.455   7.084  68.655  0.00  0.00    +0.000 A 
ATOM     38  C   UNL     1       1.042   8.695  67.546  0.00  0.00    +0.000 A 
ATOM     39  C   UNL     1       1.893   8.357  68.597  0.00  0.00    +0.000 A 
ENDBRANCH  33  34
BRANCH  33  41
ATOM     40  O   UNL     1      -0.981   2.688  66.772  0.00  0.00    +0.000 OA
ATOM     41  N   UNL     1       0.587   4.168  66.138  0.00  0.00    +0.000 N 
ATOM     42  C   UNL     1      -0.615   3.858  66.714  0.00  0.00    +0.000 C 
ATOM     43  H   UNL     1       1.129   3.354  65.862  0.00  0.00    +0.000 HD
BRANCH  42  44
ATOM     44  C   UNL     1      -1.500   4.929  67.225  0.00  0.00    +0.000 A 
ATOM     45  C   UNL     1      -2.431   5.564  66.397  0.00  0.00    +0.000 A 
ATOM     46  C   UNL     1      -1.341   5.352  68.550  0.00  0.00    +0.000 A 
ATOM     47  C   UNL     1      -3.242   6.577  66.911  0.00  0.00    +0.000 A 
ATOM     48  C   UNL     1      -2.151   6.366  69.061  0.00  0.00    +0.000 A 
ATOM     49  C   UNL     1      -3.107   6.970  68.243  0.00  0.00    +0.000 A 
ENDBRANCH  42  44
ENDBRANCH  33  41
ENDBRANCH  30  33
ENDBRANCH  29  30
ENDBRANCH  27  29
ENDBRANCH  18  27
BRANCH  17  50
ATOM     50  O   UNL     1       2.057  11.334  59.742  0.00  0.00    +0.000 OA
BRANCH  50  52
ATOM     51  O   UNL     1       0.771  13.120  59.329  0.00  0.00    +0.000 OA
ATOM     52  C   UNL     1       0.862  11.902  59.461  0.00  0.00    +0.000 C 
ATOM     53  C   UNL     1      -0.343  11.012  59.407  0.00  0.00    +0.000 C 
ENDBRANCH  50  52
ENDBRANCH  17  50
BRANCH   7  54
ATOM     54  O   UNL     1       4.652   7.104  60.672  0.00  0.00    +0.000 OA
BRANCH  54  56
ATOM     55  O   UNL     1       6.284   6.216  61.436  0.00  0.00    +0.000 OA
ATOM     56  C   UNL     1       5.130   5.909  61.155  0.00  0.00    +0.000 C 
BRANCH  56  57
ATOM     57  C   UNL     1       4.199   4.243  61.018  0.00  0.00    +0.000 A 
ATOM     58  C   UNL     1       3.200   3.915  60.002  0.00  0.00    +0.000 A 
ATOM     59  C   UNL     1       4.426   3.055  61.778  0.00  0.00    +0.000 A 
ATOM     60  C   UNL     1       2.569   2.664  59.793  0.00  0.00    +0.000 A 
ATOM     61  C   UNL     1       3.801   1.791  61.584  0.00  0.00    +0.000 A 
ATOM     62  C   UNL     1       2.874   1.591  60.589  0.00  0.00    +0.000 A 
ENDBRANCH  56  57
ENDBRANCH  54  56
ENDBRANCH   7  54
BRANCH   4  63
ATOM     63  O   UNL     1       5.788   5.297  58.269  0.00  0.00    +0.000 OA
BRANCH  63  65
ATOM     64  O   UNL     1       5.988   3.633  56.790  0.00  0.00    +0.000 OA
ATOM     65  C   UNL     1       6.201   4.057  57.924  0.00  0.00    +0.000 C 
ATOM     66  C   UNL     1       6.808   3.169  58.964  0.00  0.00    +0.000 C 
ENDBRANCH  63  65
ENDBRANCH   4  63
TORSDOF 17
ENDMDL
MODEL 9
REMARK VINA RESULT:      -3.5     13.963     18.024
REMARK  Name = 
REMARK  23 active torsions:
REMARK  status: ('A' for Active; 'I' for Inactive)
REMARK    1  A    between atoms: O_2  and  C_17
REMARK    2  A    between atoms: O_2  and  C_36
REMARK    3  A    between atoms: O_3  and  C_20
REMARK    4  A    between atoms: O_3  and  C_37
REMARK    5  A    between atoms: O_4  and  C_21
REMARK    6  A    between atoms: O_5  and  C_22
REMARK    7  A    between atoms: O_6  and  C_30
REMARK    8  A    between atoms: O_6  and  C_39
REMARK    9  A    between atoms: O_8  and  C_31
REMARK   10  A    between atoms: O_8  and  C_40
REMARK   11  A    between atoms: O_13  and  C_42
REMARK   12  A    between atoms: N_15  and  C_46
REMARK   13  A    between atoms: C_18  and  C_29
REMARK   14  A    between atoms: C_24  and  C_33
REMARK   15  A    between atoms: C_24  and  C_34
REMARK   16  A    between atoms: C_32  and  C_35
REMARK   17  A    between atoms: C_36  and  C_38
REMARK   18  A    between atoms: C_37  and  C_41
REMARK   19  A    between atoms: C_39  and  C_43
REMARK   20  A    between atoms: C_40  and  C_42
REMARK   21  A    between atoms: C_42  and  C_46
REMARK   22  A    between atoms: C_46  and  C_50
REMARK   23  A    between atoms: C_53  and  C_56
REMARK                            x       y       z     vdW  Elec       q    Type
REMARK                         _______ _______ _______ _____ _____    ______ ____
ROOT
ATOM      1  O   UNL     1      14.561  11.325  61.297  0.00  0.00    +0.000 OA
ATOM      2  O   UNL     1      16.464  13.596  55.324  0.00  0.00    +0.000 OA
ATOM      3  C   UNL     1      16.947  11.058  58.832  0.00  0.00    +0.000 C 
ATOM      4  C   UNL     1      16.436  11.381  60.267  0.00  0.00    +0.000 C 
ATOM      5  C   UNL     1      16.732  12.635  57.799  0.00  0.00    +0.000 C 
ATOM      6  C   UNL     1      14.905  11.551  59.902  0.00  0.00    +0.000 C 
ATOM      7  C   UNL     1      18.550  10.106  58.860  0.00  0.00    +0.000 C 
ATOM      8  C   UNL     1      19.861   9.377  57.703  0.00  0.00    +0.000 C 
ATOM      9  C   UNL     1      15.173  12.921  57.848  0.00  0.00    +0.000 C 
ATOM     10  C   UNL     1      14.521  12.866  59.263  0.00  0.00    +0.000 C 
ATOM     11  C   UNL     1      20.073   9.644  55.962  0.00  0.00    +0.000 C 
ATOM     12  C   UNL     1      15.752  10.448  61.343  0.00  0.00    +0.000 C 
ATOM     13  C   UNL     1      17.250  12.910  56.012  0.00  0.00    +0.000 C 
ATOM     14  C   UNL     1      21.264   9.926  58.235  0.00  0.00    +0.000 C 
ATOM     15  C   UNL     1      20.169  11.206  55.606  0.00  0.00    +0.000 C 
ATOM     16  C   UNL     1      17.347  13.914  58.507  0.00  0.00    +0.000 C 
ATOM     17  C   UNL     1      18.808  12.262  55.093  0.00  0.00    +0.000 C 
ATOM     18  C   UNL     1      21.884  11.221  57.539  0.00  0.00    +0.000 C 
ATOM     19  C   UNL     1      21.245  11.800  56.224  0.00  0.00    +0.000 C 
ATOM     20  C   UNL     1      21.486   8.979  55.571  0.00  0.00    +0.000 C 
ATOM     21  C   UNL     1      19.237   8.792  54.953  0.00  0.00    +0.000 C 
ATOM     22  C   UNL     1      21.724  13.184  55.862  0.00  0.00    +0.000 C 
ENDROOT
BRANCH   9  23
ATOM     23  O   UNL     1      14.497  11.956  57.042  0.00  0.00    +0.000 OA
ATOM     24  H   UNL     1      14.916  11.094  57.236  0.00  0.00    +0.000 HD
ENDBRANCH   9  23
BRANCH   8  25
ATOM     25  O   UNL     1      19.853   7.959  57.954  0.00  0.00    +0.000 OA
ATOM     26  H   UNL     1      20.555   7.750  58.595  0.00  0.00    +0.000 HD
ENDBRANCH   8  25
BRANCH  18  27
ATOM     27  O   UNL     1      21.873  12.304  58.515  0.00  0.00    +0.000 OA
BRANCH  27  29
ATOM     28  O   UNL     1      24.080  12.787  58.392  0.00  0.00    +0.000 OA
ATOM     29  C   UNL     1      23.065  12.646  59.066  0.00  0.00    +0.000 C 
BRANCH  29  30
ATOM     30  C   UNL     1      23.069  12.681  60.598  0.00  0.00    +0.000 C 
BRANCH  30  31
ATOM     31  O   UNL     1      23.952  13.643  61.186  0.00  0.00    +0.000 OA
ATOM     32  H   UNL     1      23.842  14.463  60.670  0.00  0.00    +0.000 HD
ENDBRANCH  30  31
BRANCH  30  33
ATOM     33  C   UNL     1      23.399  11.253  61.112  0.00  0.00    +0.000 C 
BRANCH  33  34
ATOM     34  C   UNL     1      22.816  11.034  62.501  0.00  0.00    +0.000 A 
ATOM     35  C   UNL     1      21.797  11.885  62.964  0.00  0.00    +0.000 A 
ATOM     36  C   UNL     1      23.287  10.025  63.356  0.00  0.00    +0.000 A 
ATOM     37  C   UNL     1      21.252  11.718  64.238  0.00  0.00    +0.000 A 
ATOM     38  C   UNL     1      22.740   9.859  64.629  0.00  0.00    +0.000 A 
ATOM     39  C   UNL     1      21.721  10.703  65.069  0.00  0.00    +0.000 A 
ENDBRANCH  33  34
BRANCH  33  41
ATOM     40  O   UNL     1      26.784  10.458  60.116  0.00  0.00    +0.000 OA
ATOM     41  N   UNL     1      24.851  11.029  61.109  0.00  0.00    +0.000 N 
ATOM     42  C   UNL     1      25.595  10.214  60.301  0.00  0.00    +0.000 C 
ATOM     43  H   UNL     1      25.393  11.757  61.565  0.00  0.00    +0.000 HD
BRANCH  42  44
ATOM     44  C   UNL     1      24.966   9.066  59.609  0.00  0.00    +0.000 A 
ATOM     45  C   UNL     1      24.472   7.968  60.320  0.00  0.00    +0.000 A 
ATOM     46  C   UNL     1      24.939   9.062  58.210  0.00  0.00    +0.000 A 
ATOM     47  C   UNL     1      23.894   6.899  59.634  0.00  0.00    +0.000 A 
ATOM     48  C   UNL     1      24.364   7.991  57.526  0.00  0.00    +0.000 A 
ATOM     49  C   UNL     1      23.834   6.915  58.240  0.00  0.00    +0.000 A 
ENDBRANCH  42  44
ENDBRANCH  33  41
ENDBRANCH  30  33
ENDBRANCH  29  30
ENDBRANCH  27  29
ENDBRANCH  18  27
BRANCH  17  50
ATOM     50  O   UNL     1      18.511  11.804  53.756  0.00  0.00    +0.000 OA
BRANCH  50  52
ATOM     51  O   UNL     1      18.297  13.617  52.461  0.00  0.00    +0.000 OA
ATOM     52  C   UNL     1      18.810  12.517  52.647  0.00  0.00    +0.000 C 
ATOM     53  C   UNL     1      19.709  11.885  51.628  0.00  0.00    +0.000 C 
ENDBRANCH  50  52
ENDBRANCH  17  50
BRANCH   7  54
ATOM     54  O   UNL     1      19.140  11.276  58.738  0.00  0.00    +0.000 OA
BRANCH  54  56
ATOM     55  O   UNL     1      19.736  12.463  60.246  0.00  0.00    +0.000 OA
ATOM     56  C   UNL     1      19.448  11.283  60.078  0.00  0.00    +0.000 C 
BRANCH  56  57
ATOM     57  C   UNL     1      19.653   9.705  61.142  0.00  0.00    +0.000 A 
ATOM     58  C   UNL     1      20.744   8.741  61.021  0.00  0.00    +0.000 A 
ATOM     59  C   UNL     1      18.871   9.311  62.270  0.00  0.00    +0.000 A 
ATOM     60  C   UNL     1      20.998   7.624  61.856  0.00  0.00    +0.000 A 
ATOM     61  C   UNL     1      19.109   8.193  63.119  0.00  0.00    +0.000 A 
ATOM     62  C   UNL     1      20.175   7.349  62.916  0.00  0.00    +0.000 A 
ENDBRANCH  56  57
ENDBRANCH  54  56
ENDBRANCH   7  54
BRANCH   4  63
ATOM     63  O   UNL     1      17.055  12.569  60.815  0.00  0.00    +0.000 OA
BRANCH  63  65
ATOM     64  O   UNL     1      16.019  13.895  62.287  0.00  0.00    +0.000 OA
ATOM     65  C   UNL     1      16.860  13.024  62.074  0.00  0.00    +0.000 C 
ATOM     66  C   UNL     1      17.752  12.545  63.174  0.00  0.00    +0.000 C 
ENDBRANCH  63  65
ENDBRANCH   4  63
TORSDOF 17
ENDMDL
