MODEL 1
REMARK VINA RESULT:      -5.2      0.000      0.000
REMARK  Name = 
REMARK  5 active torsions:
REMARK  status: ('A' for Active; 'I' for Inactive)
REMARK    1  A    between atoms: O_1  and  C_16
REMARK    2  A    between atoms: O_3  and  C_25
REMARK    3  A    between atoms: C_11  and  C_22
REMARK    4  A    between atoms: C_16  and  C_28
REMARK    5  A    between atoms: C_29  and  C_31
REMARK                            x       y       z     vdW  Elec       q    Type
REMARK                         _______ _______ _______ _____ _____    ______ ____
ROOT
ATOM      1  O   UNL     1      21.803   9.298  62.405  0.00  0.00    +0.000 OA
ATOM      2  N   UNL     1      17.858  10.593  53.867  0.00  0.00    +0.000 NA
ATOM      3  C   UNL     1      18.935   9.007  57.207  0.00  0.00    +0.000 C 
ATOM      4  C   UNL     1      20.274   8.515  57.817  0.00  0.00    +0.000 C 
ATOM      5  C   UNL     1      18.864   9.351  59.577  0.00  0.00    +0.000 C 
ATOM      6  C   UNL     1      20.342   9.183  59.200  0.00  0.00    +0.000 C 
ATOM      7  C   UNL     1      19.095   9.672  55.826  0.00  0.00    +0.000 C 
ATOM      8  C   UNL     1      18.289   9.909  58.279  0.00  0.00    +0.000 C 
ATOM      9  C   UNL     1      18.675  10.142  60.899  0.00  0.00    +0.000 C 
ATOM     10  C   UNL     1      19.902   8.734  54.900  0.00  0.00    +0.000 C 
ATOM     11  C   UNL     1      21.486   8.843  56.952  0.00  0.00    +0.000 C 
ATOM     12  C   UNL     1      19.414   9.324  62.001  0.00  0.00    +0.000 C 
ATOM     13  C   UNL     1      21.299   8.423  55.495  0.00  0.00    +0.000 C 
ATOM     14  C   UNL     1      19.959   9.292  53.448  0.00  0.00    +0.000 C 
ATOM     15  C   UNL     1      21.119   8.432  60.271  0.00  0.00    +0.000 C 
ATOM     16  C   UNL     1      17.730  10.004  55.211  0.00  0.00    +0.000 C 
ATOM     17  C   UNL     1      18.513   9.637  52.930  0.00  0.00    +0.000 C 
ATOM     18  C   UNL     1      17.173  10.204  61.273  0.00  0.00    +0.000 C 
ATOM     19  C   UNL     1      20.878   9.084  61.625  0.00  0.00    +0.000 C 
ATOM     20  C   UNL     1      19.225  11.586  60.792  0.00  0.00    +0.000 C 
ATOM     21  C   UNL     1      19.229   9.920  63.397  0.00  0.00    +0.000 C 
ATOM     22  C   UNL     1      16.926  10.742  62.685  0.00  0.00    +0.000 C 
ATOM     23  C   UNL     1      17.743  10.009  63.750  0.00  0.00    +0.000 C 
ATOM     24  C   UNL     1      18.557  10.232  51.499  0.00  0.00    +0.000 C 
ATOM     25  C   UNL     1      16.513  10.980  53.397  0.00  0.00    +0.000 C 
ATOM     26  C   UNL     1      20.666   8.301  52.511  0.00  0.00    +0.000 C 
ATOM     27  C   UNL     1      16.533  11.650  52.019  0.00  0.00    +0.000 C 
ATOM     28  C   UNL     1      17.195  10.713  51.012  0.00  0.00    +0.000 C 
ATOM     29  C   UNL     1      17.212  13.022  52.062  0.00  0.00    +0.000 C 
ENDROOT
BRANCH  14  30
ATOM     30  O   UNL     1      20.737  10.500  53.464  0.00  0.00    +0.000 OA
ATOM     31  H   UNL     1      21.594  10.245  53.863  0.00  0.00    +0.000 HD
ENDBRANCH  14  30
BRANCH  23  32
ATOM     32  O   UNL     1      17.581  10.691  64.988  0.00  0.00    +0.000 OA
ATOM     33  H   UNL     1      17.092  11.514  64.813  0.00  0.00    +0.000 HD
ENDBRANCH  23  32
TORSDOF 2
ENDMDL
MODEL 2
REMARK VINA RESULT:      -5.1     11.179     15.813
REMARK  Name = 
REMARK  5 active torsions:
REMARK  status: ('A' for Active; 'I' for Inactive)
REMARK    1  A    between atoms: O_1  and  C_16
REMARK    2  A    between atoms: O_3  and  C_25
REMARK    3  A    between atoms: C_11  and  C_22
REMARK    4  A    between atoms: C_16  and  C_28
REMARK    5  A    between atoms: C_29  and  C_31
REMARK                            x       y       z     vdW  Elec       q    Type
REMARK                         _______ _______ _______ _____ _____    ______ ____
ROOT
ATOM      1  O   UNL     1      12.783   0.541  75.161  0.00  0.00    +0.000 OA
ATOM      2  N   UNL     1      17.327   5.438  68.413  0.00  0.00    +0.000 NA
ATOM      3  C   UNL     1      14.574   3.627  70.405  0.00  0.00    +0.000 C 
ATOM      4  C   UNL     1      14.265   2.152  70.778  0.00  0.00    +0.000 C 
ATOM      5  C   UNL     1      13.497   3.590  72.546  0.00  0.00    +0.000 C 
ATOM      6  C   UNL     1      14.031   2.173  72.297  0.00  0.00    +0.000 C 
ATOM      7  C   UNL     1      15.905   3.805  69.650  0.00  0.00    +0.000 C 
ATOM      8  C   UNL     1      14.474   4.424  71.723  0.00  0.00    +0.000 C 
ATOM      9  C   UNL     1      13.313   3.897  74.056  0.00  0.00    +0.000 C 
ATOM     10  C   UNL     1      15.946   2.833  68.451  0.00  0.00    +0.000 C 
ATOM     11  C   UNL     1      15.373   1.186  70.372  0.00  0.00    +0.000 C 
ATOM     12  C   UNL     1      12.294   2.845  74.590  0.00  0.00    +0.000 C 
ATOM     13  C   UNL     1      15.802   1.361  68.917  0.00  0.00    +0.000 C 
ATOM     14  C   UNL     1      17.202   3.082  67.567  0.00  0.00    +0.000 C 
ATOM     15  C   UNL     1      13.094   1.108  72.847  0.00  0.00    +0.000 C 
ATOM     16  C   UNL     1      16.085   5.256  69.184  0.00  0.00    +0.000 C 
ATOM     17  C   UNL     1      17.313   4.604  67.179  0.00  0.00    +0.000 C 
ATOM     18  C   UNL     1      12.691   5.305  74.241  0.00  0.00    +0.000 C 
ATOM     19  C   UNL     1      12.769   1.420  74.301  0.00  0.00    +0.000 C 
ATOM     20  C   UNL     1      14.655   3.838  74.826  0.00  0.00    +0.000 C 
ATOM     21  C   UNL     1      11.920   3.082  76.053  0.00  0.00    +0.000 C 
ATOM     22  C   UNL     1      12.243   5.580  75.679  0.00  0.00    +0.000 C 
ATOM     23  C   UNL     1      11.336   4.484  76.238  0.00  0.00    +0.000 C 
ATOM     24  C   UNL     1      18.582   4.875  66.332  0.00  0.00    +0.000 C 
ATOM     25  C   UNL     1      17.475   6.873  68.099  0.00  0.00    +0.000 C 
ATOM     26  C   UNL     1      17.176   2.187  66.319  0.00  0.00    +0.000 C 
ATOM     27  C   UNL     1      18.765   7.186  67.335  0.00  0.00    +0.000 C 
ATOM     28  C   UNL     1      18.807   6.357  66.053  0.00  0.00    +0.000 C 
ATOM     29  C   UNL     1      20.008   6.968  68.202  0.00  0.00    +0.000 C 
ENDROOT
BRANCH  14  30
ATOM     30  O   UNL     1      18.364   2.721  68.333  0.00  0.00    +0.000 OA
ATOM     31  H   UNL     1      18.801   2.016  67.814  0.00  0.00    +0.000 HD
ENDBRANCH  14  30
BRANCH  23  32
ATOM     32  O   UNL     1      11.122   4.739  77.621  0.00  0.00    +0.000 OA
ATOM     33  H   UNL     1      10.378   5.362  77.697  0.00  0.00    +0.000 HD
ENDBRANCH  23  32
TORSDOF 2
ENDMDL
MODEL 3
REMARK VINA RESULT:      -4.9      9.178     11.172
REMARK  Name = 
REMARK  5 active torsions:
REMARK  status: ('A' for Active; 'I' for Inactive)
REMARK    1  A    between atoms: O_1  and  C_16
REMARK    2  A    between atoms: O_3  and  C_25
REMARK    3  A    between atoms: C_11  and  C_22
REMARK    4  A    between atoms: C_16  and  C_28
REMARK    5  A    between atoms: C_29  and  C_31
REMARK                            x       y       z     vdW  Elec       q    Type
REMARK                         _______ _______ _______ _____ _____    ______ ____
ROOT
ATOM      1  O   UNL     1      22.301  -0.363  56.560  0.00  0.00    +0.000 OA
ATOM      2  N   UNL     1      15.135   0.977  50.477  0.00  0.00    +0.000 NA
ATOM      3  C   UNL     1      17.419   1.234  53.566  0.00  0.00    +0.000 C 
ATOM      4  C   UNL     1      17.799   0.297  54.743  0.00  0.00    +0.000 C 
ATOM      5  C   UNL     1      19.676   1.705  54.219  0.00  0.00    +0.000 C 
ATOM      6  C   UNL     1      19.336   0.318  54.780  0.00  0.00    +0.000 C 
ATOM      7  C   UNL     1      16.508   0.568  52.517  0.00  0.00    +0.000 C 
ATOM      8  C   UNL     1      18.754   1.768  53.005  0.00  0.00    +0.000 C 
ATOM      9  C   UNL     1      21.203   1.909  54.030  0.00  0.00    +0.000 C 
ATOM     10  C   UNL     1      15.295  -0.070  53.229  0.00  0.00    +0.000 C 
ATOM     11  C   UNL     1      17.240  -1.114  54.592  0.00  0.00    +0.000 C 
ATOM     12  C   UNL     1      21.840   1.738  55.443  0.00  0.00    +0.000 C 
ATOM     13  C   UNL     1      15.746  -1.123  54.273  0.00  0.00    +0.000 C 
ATOM     14  C   UNL     1      14.266  -0.622  52.200  0.00  0.00    +0.000 C 
ATOM     15  C   UNL     1      19.977   0.083  56.140  0.00  0.00    +0.000 C 
ATOM     16  C   UNL     1      16.051   1.581  51.460  0.00  0.00    +0.000 C 
ATOM     17  C   UNL     1      13.896   0.482  51.140  0.00  0.00    +0.000 C 
ATOM     18  C   UNL     1      21.492   3.353  53.545  0.00  0.00    +0.000 C 
ATOM     19  C   UNL     1      21.467   0.388  56.058  0.00  0.00    +0.000 C 
ATOM     20  C   UNL     1      21.799   0.909  53.008  0.00  0.00    +0.000 C 
ATOM     21  C   UNL     1      23.343   2.019  55.446  0.00  0.00    +0.000 C 
ATOM     22  C   UNL     1      22.980   3.713  53.580  0.00  0.00    +0.000 C 
ATOM     23  C   UNL     1      23.626   3.433  54.937  0.00  0.00    +0.000 C 
ATOM     24  C   UNL     1      12.903  -0.066  50.084  0.00  0.00    +0.000 C 
ATOM     25  C   UNL     1      14.832   1.985  49.441  0.00  0.00    +0.000 C 
ATOM     26  C   UNL     1      13.014  -1.154  52.913  0.00  0.00    +0.000 C 
ATOM     27  C   UNL     1      13.919   1.447  48.335  0.00  0.00    +0.000 C 
ATOM     28  C   UNL     1      12.626   0.924  48.957  0.00  0.00    +0.000 C 
ATOM     29  C   UNL     1      14.620   0.384  47.484  0.00  0.00    +0.000 C 
ENDROOT
BRANCH  14  30
ATOM     30  O   UNL     1      14.873  -1.729  51.512  0.00  0.00    +0.000 OA
ATOM     31  H   UNL     1      14.336  -1.850  50.703  0.00  0.00    +0.000 HD
ENDBRANCH  14  30
BRANCH  23  32
ATOM     32  O   UNL     1      25.030   3.630  54.815  0.00  0.00    +0.000 OA
ATOM     33  H   UNL     1      25.391   2.889  54.298  0.00  0.00    +0.000 HD
ENDBRANCH  23  32
TORSDOF 2
ENDMDL
MODEL 4
REMARK VINA RESULT:      -4.8     11.850     16.561
REMARK  Name = 
REMARK  5 active torsions:
REMARK  status: ('A' for Active; 'I' for Inactive)
REMARK    1  A    between atoms: O_1  and  C_16
REMARK    2  A    between atoms: O_3  and  C_25
REMARK    3  A    between atoms: C_11  and  C_22
REMARK    4  A    between atoms: C_16  and  C_28
REMARK    5  A    between atoms: C_29  and  C_31
REMARK                            x       y       z     vdW  Elec       q    Type
REMARK                         _______ _______ _______ _____ _____    ______ ____
ROOT
ATOM      1  O   UNL     1      12.448   2.150  76.811  0.00  0.00    +0.000 OA
ATOM      2  N   UNL     1      16.648   3.920  68.481  0.00  0.00    +0.000 NA
ATOM      3  C   UNL     1      13.979   3.213  71.166  0.00  0.00    +0.000 C 
ATOM      4  C   UNL     1      13.594   1.997  72.050  0.00  0.00    +0.000 C 
ATOM      5  C   UNL     1      13.130   4.026  73.253  0.00  0.00    +0.000 C 
ATOM      6  C   UNL     1      13.521   2.560  73.479  0.00  0.00    +0.000 C 
ATOM      7  C   UNL     1      15.236   2.975  70.306  0.00  0.00    +0.000 C 
ATOM      8  C   UNL     1      14.080   4.417  72.125  0.00  0.00    +0.000 C 
ATOM      9  C   UNL     1      13.128   4.849  74.570  0.00  0.00    +0.000 C 
ATOM     10  C   UNL     1      15.074   1.654  69.522  0.00  0.00    +0.000 C 
ATOM     11  C   UNL     1      14.574   0.834  71.932  0.00  0.00    +0.000 C 
ATOM     12  C   UNL     1      12.089   4.161  75.507  0.00  0.00    +0.000 C 
ATOM     13  C   UNL     1      14.863   0.454  70.482  0.00  0.00    +0.000 C 
ATOM     14  C   UNL     1      16.249   1.446  68.522  0.00  0.00    +0.000 C 
ATOM     15  C   UNL     1      12.563   1.857  74.429  0.00  0.00    +0.000 C 
ATOM     16  C   UNL     1      15.481   4.150  69.351  0.00  0.00    +0.000 C 
ATOM     17  C   UNL     1      16.440   2.722  67.620  0.00  0.00    +0.000 C 
ATOM     18  C   UNL     1      12.642   6.294  74.294  0.00  0.00    +0.000 C 
ATOM     19  C   UNL     1      12.415   2.679  75.702  0.00  0.00    +0.000 C 
ATOM     20  C   UNL     1      14.534   4.907  75.217  0.00  0.00    +0.000 C 
ATOM     21  C   UNL     1      11.888   4.922  76.817  0.00  0.00    +0.000 C 
ATOM     22  C   UNL     1      12.369   7.091  75.573  0.00  0.00    +0.000 C 
ATOM     23  C   UNL     1      11.439   6.358  76.541  0.00  0.00    +0.000 C 
ATOM     24  C   UNL     1      17.633   2.546  66.647  0.00  0.00    +0.000 C 
ATOM     25  C   UNL     1      16.877   5.137  67.676  0.00  0.00    +0.000 C 
ATOM     26  C   UNL     1      16.023   0.188  67.671  0.00  0.00    +0.000 C 
ATOM     27  C   UNL     1      18.102   5.025  66.764  0.00  0.00    +0.000 C 
ATOM     28  C   UNL     1      17.945   3.810  65.853  0.00  0.00    +0.000 C 
ATOM     29  C   UNL     1      19.407   4.979  67.564  0.00  0.00    +0.000 C 
ENDROOT
BRANCH  14  30
ATOM     30  O   UNL     1      17.451   1.242  69.283  0.00  0.00    +0.000 OA
ATOM     31  H   UNL     1      17.262   0.470  69.855  0.00  0.00    +0.000 HD
ENDBRANCH  14  30
BRANCH  23  32
ATOM     32  O   UNL     1      11.391   7.092  77.759  0.00  0.00    +0.000 OA
ATOM     33  H   UNL     1      12.161   7.686  77.780  0.00  0.00    +0.000 HD
ENDBRANCH  23  32
TORSDOF 2
ENDMDL
MODEL 5
REMARK VINA RESULT:      -4.8     16.243     19.582
REMARK  Name = 
REMARK  5 active torsions:
REMARK  status: ('A' for Active; 'I' for Inactive)
REMARK    1  A    between atoms: O_1  and  C_16
REMARK    2  A    between atoms: O_3  and  C_25
REMARK    3  A    between atoms: C_11  and  C_22
REMARK    4  A    between atoms: C_16  and  C_28
REMARK    5  A    between atoms: C_29  and  C_31
REMARK                            x       y       z     vdW  Elec       q    Type
REMARK                         _______ _______ _______ _____ _____    ______ ____
ROOT
ATOM      1  O   UNL     1       7.450   0.018  59.653  0.00  0.00    +0.000 OA
ATOM      2  N   UNL     1       1.317   3.253  66.138  0.00  0.00    +0.000 NA
ATOM      3  C   UNL     1       4.561   2.564  64.181  0.00  0.00    +0.000 C 
ATOM      4  C   UNL     1       5.463   1.325  63.936  0.00  0.00    +0.000 C 
ATOM      5  C   UNL     1       5.532   2.749  61.999  0.00  0.00    +0.000 C 
ATOM      6  C   UNL     1       5.652   1.276  62.411  0.00  0.00    +0.000 C 
ATOM      7  C   UNL     1       3.286   2.247  64.987  0.00  0.00    +0.000 C 
ATOM      8  C   UNL     1       4.301   3.179  62.790  0.00  0.00    +0.000 C 
ATOM      9  C   UNL     1       5.555   2.938  60.458  0.00  0.00    +0.000 C 
ATOM     10  C   UNL     1       3.673   1.486  66.274  0.00  0.00    +0.000 C 
ATOM     11  C   UNL     1       4.874   0.033  64.492  0.00  0.00    +0.000 C 
ATOM     12  C   UNL     1       6.919   2.361  59.973  0.00  0.00    +0.000 C 
ATOM     13  C   UNL     1       4.424   0.170  65.944  0.00  0.00    +0.000 C 
ATOM     14  C   UNL     1       2.438   1.278  67.198  0.00  0.00    +0.000 C 
ATOM     15  C   UNL     1       6.949   0.652  61.915  0.00  0.00    +0.000 C 
ATOM     16  C   UNL     1       2.512   3.528  65.322  0.00  0.00    +0.000 C 
ATOM     17  C   UNL     1       1.695   2.644  67.444  0.00  0.00    +0.000 C 
ATOM     18  C   UNL     1       5.519   4.446  60.106  0.00  0.00    +0.000 C 
ATOM     19  C   UNL     1       7.098   0.909  60.422  0.00  0.00    +0.000 C 
ATOM     20  C   UNL     1       4.358   2.234  59.772  0.00  0.00    +0.000 C 
ATOM     21  C   UNL     1       7.145   2.571  58.475  0.00  0.00    +0.000 C 
ATOM     22  C   UNL     1       5.794   4.724  58.625  0.00  0.00    +0.000 C 
ATOM     23  C   UNL     1       7.077   4.059  58.126  0.00  0.00    +0.000 C 
ATOM     24  C   UNL     1       0.438   2.446  68.329  0.00  0.00    +0.000 C 
ATOM     25  C   UNL     1       0.576   4.518  66.321  0.00  0.00    +0.000 C 
ATOM     26  C   UNL     1       2.852   0.620  68.522  0.00  0.00    +0.000 C 
ATOM     27  C   UNL     1      -0.718   4.340  67.121  0.00  0.00    +0.000 C 
ATOM     28  C   UNL     1      -0.392   3.716  68.477  0.00  0.00    +0.000 C 
ATOM     29  C   UNL     1      -1.758   3.524  66.348  0.00  0.00    +0.000 C 
ENDROOT
BRANCH  14  30
ATOM     30  O   UNL     1       1.532   0.380  66.535  0.00  0.00    +0.000 OA
ATOM     31  H   UNL     1       0.814   0.949  66.193  0.00  0.00    +0.000 HD
ENDBRANCH  14  30
BRANCH  23  32
ATOM     32  O   UNL     1       7.149   4.227  56.714  0.00  0.00    +0.000 OA
ATOM     33  H   UNL     1       6.278   4.529  56.406  0.00  0.00    +0.000 HD
ENDBRANCH  23  32
TORSDOF 2
ENDMDL
MODEL 6
REMARK VINA RESULT:      -4.8      9.071     10.491
REMARK  Name = 
REMARK  5 active torsions:
REMARK  status: ('A' for Active; 'I' for Inactive)
REMARK    1  A    between atoms: O_1  and  C_16
REMARK    2  A    between atoms: O_3  and  C_25
REMARK    3  A    between atoms: C_11  and  C_22
REMARK    4  A    between atoms: C_16  and  C_28
REMARK    5  A    between atoms: C_29  and  C_31
REMARK                            x       y       z     vdW  Elec       q    Type
REMARK                         _______ _______ _______ _____ _____    ______ ____
ROOT
ATOM      1  O   UNL     1      20.319  -1.458  56.718  0.00  0.00    +0.000 OA
ATOM      2  N   UNL     1      16.878   2.996  49.071  0.00  0.00    +0.000 NA
ATOM      3  C   UNL     1      17.697   2.074  52.719  0.00  0.00    +0.000 C 
ATOM      4  C   UNL     1      17.299   0.928  53.687  0.00  0.00    +0.000 C 
ATOM      5  C   UNL     1      19.533   1.654  54.200  0.00  0.00    +0.000 C 
ATOM      6  C   UNL     1      18.632   0.414  54.253  0.00  0.00    +0.000 C 
ATOM      7  C   UNL     1      17.143   1.895  51.292  0.00  0.00    +0.000 C 
ATOM      8  C   UNL     1      19.235   2.178  52.799  0.00  0.00    +0.000 C 
ATOM      9  C   UNL     1      20.999   1.341  54.603  0.00  0.00    +0.000 C 
ATOM     10  C   UNL     1      15.622   1.634  51.365  0.00  0.00    +0.000 C 
ATOM     11  C   UNL     1      16.488  -0.174  53.013  0.00  0.00    +0.000 C 
ATOM     12  C   UNL     1      20.938   0.791  56.060  0.00  0.00    +0.000 C 
ATOM     13  C   UNL     1      15.309   0.372  52.210  0.00  0.00    +0.000 C 
ATOM     14  C   UNL     1      14.989   1.599  49.944  0.00  0.00    +0.000 C 
ATOM     15  C   UNL     1      18.580  -0.191  55.649  0.00  0.00    +0.000 C 
ATOM     16  C   UNL     1      17.446   3.123  50.424  0.00  0.00    +0.000 C 
ATOM     17  C   UNL     1      15.394   2.882  49.126  0.00  0.00    +0.000 C 
ATOM     18  C   UNL     1      21.838   2.643  54.615  0.00  0.00    +0.000 C 
ATOM     19  C   UNL     1      19.997  -0.411  56.160  0.00  0.00    +0.000 C 
ATOM     20  C   UNL     1      21.660   0.328  53.635  0.00  0.00    +0.000 C 
ATOM     21  C   UNL     1      22.326   0.533  56.648  0.00  0.00    +0.000 C 
ATOM     22  C   UNL     1      23.222   2.460  55.245  0.00  0.00    +0.000 C 
ATOM     23  C   UNL     1      23.163   1.814  56.629  0.00  0.00    +0.000 C 
ATOM     24  C   UNL     1      14.804   2.843  47.694  0.00  0.00    +0.000 C 
ATOM     25  C   UNL     1      17.306   4.163  48.274  0.00  0.00    +0.000 C 
ATOM     26  C   UNL     1      13.463   1.450  50.031  0.00  0.00    +0.000 C 
ATOM     27  C   UNL     1      16.809   4.110  46.826  0.00  0.00    +0.000 C 
ATOM     28  C   UNL     1      15.286   3.994  46.819  0.00  0.00    +0.000 C 
ATOM     29  C   UNL     1      17.475   2.981  46.035  0.00  0.00    +0.000 C 
ENDROOT
BRANCH  14  30
ATOM     30  O   UNL     1      15.496   0.443  49.258  0.00  0.00    +0.000 OA
ATOM     31  H   UNL     1      15.321   0.612  48.310  0.00  0.00    +0.000 HD
ENDBRANCH  14  30
BRANCH  23  32
ATOM     32  O   UNL     1      24.493   1.527  57.048  0.00  0.00    +0.000 OA
ATOM     33  H   UNL     1      25.038   1.415  56.250  0.00  0.00    +0.000 HD
ENDBRANCH  23  32
TORSDOF 2
ENDMDL
MODEL 7
REMARK VINA RESULT:      -4.7     14.907     17.196
REMARK  Name = 
REMARK  5 active torsions:
REMARK  status: ('A' for Active; 'I' for Inactive)
REMARK    1  A    between atoms: O_1  and  C_16
REMARK    2  A    between atoms: O_3  and  C_25
REMARK    3  A    between atoms: C_11  and  C_22
REMARK    4  A    between atoms: C_16  and  C_28
REMARK    5  A    between atoms: C_29  and  C_31
REMARK                            x       y       z     vdW  Elec       q    Type
REMARK                         _______ _______ _______ _____ _____    ______ ____
ROOT
ATOM      1  O   UNL     1       0.001   6.199  66.360  0.00  0.00    +0.000 OA
ATOM      2  N   UNL     1       6.002   5.332  59.053  0.00  0.00    +0.000 NA
ATOM      3  C   UNL     1       4.552   5.395  62.620  0.00  0.00    +0.000 C 
ATOM      4  C   UNL     1       4.025   6.494  63.581  0.00  0.00    +0.000 C 
ATOM      5  C   UNL     1       2.814   4.454  63.975  0.00  0.00    +0.000 C 
ATOM      6  C   UNL     1       2.655   5.978  64.052  0.00  0.00    +0.000 C 
ATOM      7  C   UNL     1       4.934   5.929  61.225  0.00  0.00    +0.000 C 
ATOM      8  C   UNL     1       3.472   4.293  62.608  0.00  0.00    +0.000 C 
ATOM      9  C   UNL     1       1.489   3.704  64.279  0.00  0.00    +0.000 C 
ATOM     10  C   UNL     1       5.887   7.133  61.385  0.00  0.00    +0.000 C 
ATOM     11  C   UNL     1       3.938   7.870  62.930  0.00  0.00    +0.000 C 
ATOM     12  C   UNL     1       1.078   4.123  65.723  0.00  0.00    +0.000 C 
ATOM     13  C   UNL     1       5.228   8.265  62.215  0.00  0.00    +0.000 C 
ATOM     14  C   UNL     1       6.424   7.612  60.005  0.00  0.00    +0.000 C 
ATOM     15  C   UNL     1       2.205   6.433  65.432  0.00  0.00    +0.000 C 
ATOM     16  C   UNL     1       5.580   4.829  60.372  0.00  0.00    +0.000 C 
ATOM     17  C   UNL     1       7.028   6.403  59.197  0.00  0.00    +0.000 C 
ATOM     18  C   UNL     1       1.730   2.173  64.273  0.00  0.00    +0.000 C 
ATOM     19  C   UNL     1       0.972   5.644  65.850  0.00  0.00    +0.000 C 
ATOM     20  C   UNL     1       0.384   4.041  63.247  0.00  0.00    +0.000 C 
ATOM     21  C   UNL     1      -0.163   3.379  66.217  0.00  0.00    +0.000 C 
ATOM     22  C   UNL     1       0.539   1.375  64.812  0.00  0.00    +0.000 C 
ATOM     23  C   UNL     1       0.067   1.867  66.180  0.00  0.00    +0.000 C 
ATOM     24  C   UNL     1       7.530   6.856  57.802  0.00  0.00    +0.000 C 
ATOM     25  C   UNL     1       6.510   4.193  58.262  0.00  0.00    +0.000 C 
ATOM     26  C   UNL     1       7.455   8.736  60.182  0.00  0.00    +0.000 C 
ATOM     27  C   UNL     1       6.936   4.595  56.846  0.00  0.00    +0.000 C 
ATOM     28  C   UNL     1       7.992   5.695  56.929  0.00  0.00    +0.000 C 
ATOM     29  C   UNL     1       5.739   5.011  55.987  0.00  0.00    +0.000 C 
ENDROOT
BRANCH  14  30
ATOM     30  O   UNL     1       5.320   8.152  59.260  0.00  0.00    +0.000 OA
ATOM     31  H   UNL     1       5.635   9.018  58.931  0.00  0.00    +0.000 HD
ENDBRANCH  14  30
BRANCH  23  32
ATOM     32  O   UNL     1      -1.139   1.187  66.510  0.00  0.00    +0.000 OA
ATOM     33  H   UNL     1      -0.972   0.231  66.434  0.00  0.00    +0.000 HD
ENDBRANCH  23  32
TORSDOF 2
ENDMDL
MODEL 8
REMARK VINA RESULT:      -4.7     15.307     18.794
REMARK  Name = 
REMARK  5 active torsions:
REMARK  status: ('A' for Active; 'I' for Inactive)
REMARK    1  A    between atoms: O_1  and  C_16
REMARK    2  A    between atoms: O_3  and  C_25
REMARK    3  A    between atoms: C_11  and  C_22
REMARK    4  A    between atoms: C_16  and  C_28
REMARK    5  A    between atoms: C_29  and  C_31
REMARK                            x       y       z     vdW  Elec       q    Type
REMARK                         _______ _______ _______ _____ _____    ______ ____
ROOT
ATOM      1  O   UNL     1       6.138   6.326  58.264  0.00  0.00    +0.000 OA
ATOM      2  N   UNL     1       0.910   5.610  66.157  0.00  0.00    +0.000 NA
ATOM      3  C   UNL     1       3.855   5.446  63.682  0.00  0.00    +0.000 C 
ATOM      4  C   UNL     1       4.195   4.609  62.421  0.00  0.00    +0.000 C 
ATOM      5  C   UNL     1       5.157   6.801  62.195  0.00  0.00    +0.000 C 
ATOM      6  C   UNL     1       4.593   5.646  61.358  0.00  0.00    +0.000 C 
ATOM      7  C   UNL     1       2.450   5.163  64.248  0.00  0.00    +0.000 C 
ATOM      8  C   UNL     1       4.101   6.918  63.289  0.00  0.00    +0.000 C 
ATOM      9  C   UNL     1       5.506   8.043  61.333  0.00  0.00    +0.000 C 
ATOM     10  C   UNL     1       2.275   3.640  64.439  0.00  0.00    +0.000 C 
ATOM     11  C   UNL     1       3.045   3.717  61.963  0.00  0.00    +0.000 C 
ATOM     12  C   UNL     1       6.572   7.567  60.300  0.00  0.00    +0.000 C 
ATOM     13  C   UNL     1       2.462   2.882  63.100  0.00  0.00    +0.000 C 
ATOM     14  C   UNL     1       0.931   3.314  65.153  0.00  0.00    +0.000 C 
ATOM     15  C   UNL     1       5.580   5.177  60.299  0.00  0.00    +0.000 C 
ATOM     16  C   UNL     1       2.227   5.909  65.570  0.00  0.00    +0.000 C 
ATOM     17  C   UNL     1       0.786   4.159  66.473  0.00  0.00    +0.000 C 
ATOM     18  C   UNL     1       6.151   9.141  62.216  0.00  0.00    +0.000 C 
ATOM     19  C   UNL     1       6.063   6.373  59.490  0.00  0.00    +0.000 C 
ATOM     20  C   UNL     1       4.255   8.633  60.635  0.00  0.00    +0.000 C 
ATOM     21  C   UNL     1       7.105   8.711  59.437  0.00  0.00    +0.000 C 
ATOM     22  C   UNL     1       6.754  10.290  61.403  0.00  0.00    +0.000 C 
ATOM     23  C   UNL     1       7.712   9.807  60.314  0.00  0.00    +0.000 C 
ATOM     24  C   UNL     1      -0.567   3.876  67.174  0.00  0.00    +0.000 C 
ATOM     25  C   UNL     1       0.735   6.447  67.362  0.00  0.00    +0.000 C 
ATOM     26  C   UNL     1       0.817   1.809  65.437  0.00  0.00    +0.000 C 
ATOM     27  C   UNL     1      -0.629   6.251  68.030  0.00  0.00    +0.000 C 
ATOM     28  C   UNL     1      -0.814   4.776  68.379  0.00  0.00    +0.000 C 
ATOM     29  C   UNL     1      -1.772   6.784  67.161  0.00  0.00    +0.000 C 
ENDROOT
BRANCH  14  30
ATOM     30  O   UNL     1      -0.143   3.668  64.265  0.00  0.00    +0.000 OA
ATOM     31  H   UNL     1       0.025   4.601  64.023  0.00  0.00    +0.000 HD
ENDBRANCH  14  30
BRANCH  23  32
ATOM     32  O   UNL     1       8.076  10.923  59.509  0.00  0.00    +0.000 OA
ATOM     33  H   UNL     1       7.520  10.908  58.711  0.00  0.00    +0.000 HD
ENDBRANCH  23  32
TORSDOF 2
ENDMDL
MODEL 9
REMARK VINA RESULT:      -4.6     20.279     21.930
REMARK  Name = 
REMARK  5 active torsions:
REMARK  status: ('A' for Active; 'I' for Inactive)
REMARK    1  A    between atoms: O_1  and  C_16
REMARK    2  A    between atoms: O_3  and  C_25
REMARK    3  A    between atoms: C_11  and  C_22
REMARK    4  A    between atoms: C_16  and  C_28
REMARK    5  A    between atoms: C_29  and  C_31
REMARK                            x       y       z     vdW  Elec       q    Type
REMARK                         _______ _______ _______ _____ _____    ______ ____
ROOT
ATOM      1  O   UNL     1       0.406  11.756  72.642  0.00  0.00    +0.000 OA
ATOM      2  N   UNL     1       1.536   4.017  67.259  0.00  0.00    +0.000 NA
ATOM      3  C   UNL     1       1.404   7.684  68.428  0.00  0.00    +0.000 C 
ATOM      4  C   UNL     1       0.283   8.676  68.834  0.00  0.00    +0.000 C 
ATOM      5  C   UNL     1       2.270   9.173  70.094  0.00  0.00    +0.000 C 
ATOM      6  C   UNL     1       0.741   9.253  70.184  0.00  0.00    +0.000 C 
ATOM      7  C   UNL     1       0.890   6.261  68.132  0.00  0.00    +0.000 C 
ATOM      8  C   UNL     1       2.462   7.761  69.549  0.00  0.00    +0.000 C 
ATOM      9  C   UNL     1       2.964   9.582  71.420  0.00  0.00    +0.000 C 
ATOM     10  C   UNL     1      -0.275   6.341  67.121  0.00  0.00    +0.000 C 
ATOM     11  C   UNL     1      -1.095   8.026  68.915  0.00  0.00    +0.000 C 
ATOM     12  C   UNL     1       2.526  11.051  71.703  0.00  0.00    +0.000 C 
ATOM     13  C   UNL     1      -1.434   7.212  67.668  0.00  0.00    +0.000 C 
ATOM     14  C   UNL     1      -0.727   4.921  66.672  0.00  0.00    +0.000 C 
ATOM     15  C   UNL     1       0.264  10.661  70.508  0.00  0.00    +0.000 C 
ATOM     16  C   UNL     1       2.017   5.367  67.599  0.00  0.00    +0.000 C 
ATOM     17  C   UNL     1       0.507   4.076  66.182  0.00  0.00    +0.000 C 
ATOM     18  C   UNL     1       4.504   9.566  71.243  0.00  0.00    +0.000 C 
ATOM     19  C   UNL     1       1.001  11.176  71.736  0.00  0.00    +0.000 C 
ATOM     20  C   UNL     1       2.585   8.636  72.587  0.00  0.00    +0.000 C 
ATOM     21  C   UNL     1       3.217  11.643  72.931  0.00  0.00    +0.000 C 
ATOM     22  C   UNL     1       5.251  10.199  72.421  0.00  0.00    +0.000 C 
ATOM     23  C   UNL     1       4.737  11.596  72.766  0.00  0.00    +0.000 C 
ATOM     24  C   UNL     1       0.078   2.644  65.770  0.00  0.00    +0.000 C 
ATOM     25  C   UNL     1       2.696   3.195  66.859  0.00  0.00    +0.000 C 
ATOM     26  C   UNL     1      -1.809   5.012  65.586  0.00  0.00    +0.000 C 
ATOM     27  C   UNL     1       2.316   1.749  66.527  0.00  0.00    +0.000 C 
ATOM     28  C   UNL     1       1.260   1.745  65.424  0.00  0.00    +0.000 C 
ATOM     29  C   UNL     1       1.853   0.982  67.769  0.00  0.00    +0.000 C 
ENDROOT
BRANCH  14  30
ATOM     30  O   UNL     1      -1.311   4.259  67.808  0.00  0.00    +0.000 OA
ATOM     31  H   UNL     1      -2.232   4.586  67.847  0.00  0.00    +0.000 HD
ENDBRANCH  14  30
BRANCH  23  32
ATOM     32  O   UNL     1       5.366  12.021  73.970  0.00  0.00    +0.000 OA
ATOM     33  H   UNL     1       6.267  11.654  73.980  0.00  0.00    +0.000 HD
ENDBRANCH  23  32
TORSDOF 2
ENDMDL
