MODEL 1
REMARK VINA RESULT:      -3.8      0.000      0.000
REMARK  Name = PhIP.pdbqt.pdb
REMARK  2 active torsions:
REMARK  status: ('A' for Active; 'I' for Inactive)
REMARK    1  A    between atoms: N_4  and  C_9
REMARK    2  A    between atoms: C_7  and  C_10
REMARK                            x       y       z     vdW  Elec       q    Type
REMARK                         _______ _______ _______ _____ _____    ______ ____
ROOT
ATOM      1  N   UNL     1      15.155  12.856  59.183  0.00  0.00    +0.000 N 
ATOM      2  N   UNL     1      14.148  11.515  60.876  0.00  0.00    +0.000 NA
ATOM      3  N   UNL     1      15.932   9.879  61.052  0.00  0.00    +0.000 NA
ATOM      4  C   UNL     1      16.042  11.865  59.478  0.00  0.00    +0.000 C 
ATOM      5  C   UNL     1      15.328  11.045  60.563  0.00  0.00    +0.000 C 
ATOM      6  C   UNL     1      17.714  10.100  59.341  0.00  0.00    +0.000 C 
ATOM      7  C   UNL     1      17.093  11.324  58.939  0.00  0.00    +0.000 C 
ATOM      8  C   UNL     1      14.058  12.590  60.006  0.00  0.00    +0.000 C 
ATOM      9  C   UNL     1      15.013  13.404  57.846  0.00  0.00    +0.000 C 
ATOM     10  C   UNL     1      16.896   9.625  60.421  0.00  0.00    +0.000 C 
ENDROOT
BRANCH   6  11
ATOM     11  C   UNL     1      18.937   9.513  58.828  0.00  0.00    +0.000 A 
ATOM     12  C   UNL     1      19.016   9.073  57.505  0.00  0.00    +0.000 A 
ATOM     13  C   UNL     1      20.060   9.379  59.648  0.00  0.00    +0.000 A 
ATOM     14  C   UNL     1      20.190   8.508  57.011  0.00  0.00    +0.000 A 
ATOM     15  C   UNL     1      21.237   8.814  59.159  0.00  0.00    +0.000 A 
ATOM     16  C   UNL     1      21.301   8.379  57.838  0.00  0.00    +0.000 A 
ENDBRANCH   6  11
BRANCH   8  17
ATOM     17  N   UNL     1      12.827  13.266  59.958  0.00  0.00    +0.000 NA
ATOM     18  H   UNL     1      12.661  13.863  60.761  0.00  0.00    +0.000 HD
ATOM     19  H   UNL     1      12.661  13.718  59.067  0.00  0.00    +0.000 HD
ENDBRANCH   8  17
TORSDOF 2
ENDMDL
MODEL 2
REMARK VINA RESULT:      -3.8     11.241     12.542
REMARK  Name = PhIP.pdbqt.pdb
REMARK  2 active torsions:
REMARK  status: ('A' for Active; 'I' for Inactive)
REMARK    1  A    between atoms: N_4  and  C_9
REMARK    2  A    between atoms: C_7  and  C_10
REMARK                            x       y       z     vdW  Elec       q    Type
REMARK                         _______ _______ _______ _____ _____    ______ ____
ROOT
ATOM      1  N   UNL     1      14.541  -2.261  54.855  0.00  0.00    +0.000 N 
ATOM      2  N   UNL     1      13.461  -0.983  53.158  0.00  0.00    +0.000 NA
ATOM      3  N   UNL     1      15.346   0.451  52.628  0.00  0.00    +0.000 NA
ATOM      4  C   UNL     1      15.469  -1.390  54.369  0.00  0.00    +0.000 C 
ATOM      5  C   UNL     1      14.706  -0.603  53.293  0.00  0.00    +0.000 C 
ATOM      6  C   UNL     1      17.291   0.210  54.148  0.00  0.00    +0.000 C 
ATOM      7  C   UNL     1      16.618  -0.908  54.734  0.00  0.00    +0.000 C 
ATOM      8  C   UNL     1      13.382  -1.963  54.135  0.00  0.00    +0.000 C 
ATOM      9  C   UNL     1      14.511  -2.672  56.248  0.00  0.00    +0.000 C 
ATOM     10  C   UNL     1      16.396   0.666  53.122  0.00  0.00    +0.000 C 
ENDROOT
BRANCH   6  11
ATOM     11  C   UNL     1      18.612   0.719  54.463  0.00  0.00    +0.000 A 
ATOM     12  C   UNL     1      19.222   1.671  53.643  0.00  0.00    +0.000 A 
ATOM     13  C   UNL     1      19.297   0.268  55.594  0.00  0.00    +0.000 A 
ATOM     14  C   UNL     1      20.492   2.162  53.944  0.00  0.00    +0.000 A 
ATOM     15  C   UNL     1      20.567   0.756  55.899  0.00  0.00    +0.000 A 
ATOM     16  C   UNL     1      21.164   1.704  55.072  0.00  0.00    +0.000 A 
ENDBRANCH   6  11
BRANCH   8  17
ATOM     17  N   UNL     1      12.111  -2.510  54.383  0.00  0.00    +0.000 NA
ATOM     18  H   UNL     1      11.355  -1.987  53.957  0.00  0.00    +0.000 HD
ATOM     19  H   UNL     1      12.072  -3.507  54.211  0.00  0.00    +0.000 HD
ENDBRANCH   8  17
TORSDOF 2
ENDMDL
MODEL 3
REMARK VINA RESULT:      -3.7      3.032      5.082
REMARK  Name = PhIP.pdbqt.pdb
REMARK  2 active torsions:
REMARK  status: ('A' for Active; 'I' for Inactive)
REMARK    1  A    between atoms: N_4  and  C_9
REMARK    2  A    between atoms: C_7  and  C_10
REMARK                            x       y       z     vdW  Elec       q    Type
REMARK                         _______ _______ _______ _____ _____    ______ ____
ROOT
ATOM      1  N   UNL     1      18.265   9.758  60.466  0.00  0.00    +0.000 N 
ATOM      2  N   UNL     1      20.456   9.087  61.121  0.00  0.00    +0.000 NA
ATOM      3  N   UNL     1      21.329   8.719  58.887  0.00  0.00    +0.000 NA
ATOM      4  C   UNL     1      18.968   9.537  59.320  0.00  0.00    +0.000 C 
ATOM      5  C   UNL     1      20.355   9.107  59.817  0.00  0.00    +0.000 C 
ATOM      6  C   UNL     1      19.641   8.875  57.076  0.00  0.00    +0.000 C 
ATOM      7  C   UNL     1      18.715   9.340  58.062  0.00  0.00    +0.000 C 
ATOM      8  C   UNL     1      19.170   9.454  61.486  0.00  0.00    +0.000 C 
ATOM      9  C   UNL     1      16.844   9.481  60.576  0.00  0.00    +0.000 C 
ATOM     10  C   UNL     1      20.858   8.657  57.807  0.00  0.00    +0.000 C 
ENDROOT
BRANCH   6  11
ATOM     11  C   UNL     1      19.425   8.731  55.649  0.00  0.00    +0.000 A 
ATOM     12  C   UNL     1      20.473   8.356  54.805  0.00  0.00    +0.000 A 
ATOM     13  C   UNL     1      18.166   8.964  55.093  0.00  0.00    +0.000 A 
ATOM     14  C   UNL     1      20.268   8.218  53.433  0.00  0.00    +0.000 A 
ATOM     15  C   UNL     1      17.955   8.827  53.722  0.00  0.00    +0.000 A 
ATOM     16  C   UNL     1      19.009   8.453  52.892  0.00  0.00    +0.000 A 
ENDBRANCH   6  11
BRANCH   8  17
ATOM     17  N   UNL     1      18.858   9.398  62.855  0.00  0.00    +0.000 NA
ATOM     18  H   UNL     1      19.641   9.626  63.459  0.00  0.00    +0.000 HD
ATOM     19  H   UNL     1      18.004   9.889  63.084  0.00  0.00    +0.000 HD
ENDBRANCH   8  17
TORSDOF 2
ENDMDL
MODEL 4
REMARK VINA RESULT:      -3.6      5.958      8.193
REMARK  Name = PhIP.pdbqt.pdb
REMARK  2 active torsions:
REMARK  status: ('A' for Active; 'I' for Inactive)
REMARK    1  A    between atoms: N_4  and  C_9
REMARK    2  A    between atoms: C_7  and  C_10
REMARK                            x       y       z     vdW  Elec       q    Type
REMARK                         _______ _______ _______ _____ _____    ______ ____
ROOT
ATOM      1  N   UNL     1       9.031  12.868  63.977  0.00  0.00    +0.000 N 
ATOM      2  N   UNL     1       6.957  12.197  63.016  0.00  0.00    +0.000 NA
ATOM      3  N   UNL     1       7.803  11.732  60.789  0.00  0.00    +0.000 NA
ATOM      4  C   UNL     1       9.293  12.507  62.690  0.00  0.00    +0.000 C 
ATOM      5  C   UNL     1       7.921  12.095  62.137  0.00  0.00    +0.000 C 
ATOM      6  C   UNL     1      10.165  12.395  60.419  0.00  0.00    +0.000 C 
ATOM      7  C   UNL     1      10.243  12.673  61.820  0.00  0.00    +0.000 C 
ATOM      8  C   UNL     1       7.651  12.695  64.107  0.00  0.00    +0.000 C 
ATOM      9  C   UNL     1       9.751  13.936  64.650  0.00  0.00    +0.000 C 
ATOM     10  C   UNL     1       8.817  11.938  60.223  0.00  0.00    +0.000 C 
ENDROOT
BRANCH   6  11
ATOM     11  C   UNL     1      11.226  12.478  59.434  0.00  0.00    +0.000 A 
ATOM     12  C   UNL     1      10.941  12.809  58.107  0.00  0.00    +0.000 A 
ATOM     13  C   UNL     1      12.552  12.231  59.794  0.00  0.00    +0.000 A 
ATOM     14  C   UNL     1      11.959  12.890  57.158  0.00  0.00    +0.000 A 
ATOM     15  C   UNL     1      13.574  12.311  58.850  0.00  0.00    +0.000 A 
ATOM     16  C   UNL     1      13.276  12.640  57.530  0.00  0.00    +0.000 A 
ENDBRANCH   6  11
BRANCH   8  17
ATOM     17  N   UNL     1       6.890  13.075  65.225  0.00  0.00    +0.000 NA
ATOM     18  H   UNL     1       5.899  13.168  65.027  0.00  0.00    +0.000 HD
ATOM     19  H   UNL     1       7.096  12.523  66.048  0.00  0.00    +0.000 HD
ENDBRANCH   8  17
TORSDOF 2
ENDMDL
MODEL 5
REMARK VINA RESULT:      -3.6     12.373     14.567
REMARK  Name = PhIP.pdbqt.pdb
REMARK  2 active torsions:
REMARK  status: ('A' for Active; 'I' for Inactive)
REMARK    1  A    between atoms: N_4  and  C_9
REMARK    2  A    between atoms: C_7  and  C_10
REMARK                            x       y       z     vdW  Elec       q    Type
REMARK                         _______ _______ _______ _____ _____    ______ ____
ROOT
ATOM      1  N   UNL     1       3.075   3.410  64.043  0.00  0.00    +0.000 N 
ATOM      2  N   UNL     1       2.028   5.180  65.246  0.00  0.00    +0.000 NA
ATOM      3  N   UNL     1       2.991   7.008  63.972  0.00  0.00    +0.000 NA
ATOM      4  C   UNL     1       3.456   4.572  63.443  0.00  0.00    +0.000 C 
ATOM      5  C   UNL     1       2.754   5.660  64.268  0.00  0.00    +0.000 C 
ATOM      6  C   UNL     1       4.726   6.329  62.335  0.00  0.00    +0.000 C 
ATOM      7  C   UNL     1       4.383   4.972  62.626  0.00  0.00    +0.000 C 
ATOM      8  C   UNL     1       2.266   3.823  65.105  0.00  0.00    +0.000 C 
ATOM      9  C   UNL     1       3.950   2.253  64.132  0.00  0.00    +0.000 C 
ATOM     10  C   UNL     1       3.847   7.103  63.167  0.00  0.00    +0.000 C 
ENDROOT
BRANCH   6  11
ATOM     11  C   UNL     1       5.686   6.817  61.363  0.00  0.00    +0.000 A 
ATOM     12  C   UNL     1       5.831   6.184  60.127  0.00  0.00    +0.000 A 
ATOM     13  C   UNL     1       6.482   7.929  61.645  0.00  0.00    +0.000 A 
ATOM     14  C   UNL     1       6.753   6.650  59.191  0.00  0.00    +0.000 A 
ATOM     15  C   UNL     1       7.406   8.399  60.714  0.00  0.00    +0.000 A 
ATOM     16  C   UNL     1       7.540   7.758  59.485  0.00  0.00    +0.000 A 
ENDBRANCH   6  11
BRANCH   8  17
ATOM     17  N   UNL     1       1.748   2.980  66.103  0.00  0.00    +0.000 NA
ATOM     18  H   UNL     1       1.477   3.472  66.947  0.00  0.00    +0.000 HD
ATOM     19  H   UNL     1       1.043   2.343  65.752  0.00  0.00    +0.000 HD
ENDBRANCH   8  17
TORSDOF 2
ENDMDL
MODEL 6
REMARK VINA RESULT:      -3.4      2.856      4.646
REMARK  Name = PhIP.pdbqt.pdb
REMARK  2 active torsions:
REMARK  status: ('A' for Active; 'I' for Inactive)
REMARK    1  A    between atoms: N_4  and  C_9
REMARK    2  A    between atoms: C_7  and  C_10
REMARK                            x       y       z     vdW  Elec       q    Type
REMARK                         _______ _______ _______ _____ _____    ______ ____
ROOT
ATOM      1  N   UNL     1      18.405   9.990  59.483  0.00  0.00    +0.000 N 
ATOM      2  N   UNL     1      17.218  11.935  58.787  0.00  0.00    +0.000 NA
ATOM      3  N   UNL     1      17.217  11.442  56.411  0.00  0.00    +0.000 NA
ATOM      4  C   UNL     1      18.247   9.892  58.134  0.00  0.00    +0.000 C 
ATOM      5  C   UNL     1      17.486  11.172  57.759  0.00  0.00    +0.000 C 
ATOM      6  C   UNL     1      18.592   9.484  55.758  0.00  0.00    +0.000 C 
ATOM      7  C   UNL     1      18.765   9.217  57.152  0.00  0.00    +0.000 C 
ATOM      8  C   UNL     1      17.812  11.212  59.809  0.00  0.00    +0.000 C 
ATOM      9  C   UNL     1      19.581   9.486  60.170  0.00  0.00    +0.000 C 
ATOM     10  C   UNL     1      17.766  10.658  55.721  0.00  0.00    +0.000 C 
ENDROOT
BRANCH   6  11
ATOM     11  C   UNL     1      19.074   8.702  54.635  0.00  0.00    +0.000 A 
ATOM     12  C   UNL     1      18.212   8.339  53.599  0.00  0.00    +0.000 A 
ATOM     13  C   UNL     1      20.409   8.299  54.570  0.00  0.00    +0.000 A 
ATOM     14  C   UNL     1      18.672   7.588  52.518  0.00  0.00    +0.000 A 
ATOM     15  C   UNL     1      20.875   7.548  53.492  0.00  0.00    +0.000 A 
ATOM     16  C   UNL     1      20.004   7.192  52.466  0.00  0.00    +0.000 A 
ENDBRANCH   6  11
BRANCH   8  17
ATOM     17  N   UNL     1      17.849  11.818  61.076  0.00  0.00    +0.000 NA
ATOM     18  H   UNL     1      16.993  11.700  61.607  0.00  0.00    +0.000 HD
ATOM     19  H   UNL     1      18.690  11.594  61.594  0.00  0.00    +0.000 HD
ENDBRANCH   8  17
TORSDOF 2
ENDMDL
MODEL 7
REMARK VINA RESULT:      -3.4     19.505     21.167
REMARK  Name = PhIP.pdbqt.pdb
REMARK  2 active torsions:
REMARK  status: ('A' for Active; 'I' for Inactive)
REMARK    1  A    between atoms: N_4  and  C_9
REMARK    2  A    between atoms: C_7  and  C_10
REMARK                            x       y       z     vdW  Elec       q    Type
REMARK                         _______ _______ _______ _____ _____    ______ ____
ROOT
ATOM      1  N   UNL     1       6.086   6.873  77.695  0.00  0.00    +0.000 N 
ATOM      2  N   UNL     1       6.166   6.199  79.979  0.00  0.00    +0.000 NA
ATOM      3  N   UNL     1       8.069   4.706  79.777  0.00  0.00    +0.000 NA
ATOM      4  C   UNL     1       7.153   6.034  77.820  0.00  0.00    +0.000 C 
ATOM      5  C   UNL     1       7.138   5.640  79.304  0.00  0.00    +0.000 C 
ATOM      6  C   UNL     1       8.836   4.314  77.451  0.00  0.00    +0.000 C 
ATOM      7  C   UNL     1       7.920   5.333  77.041  0.00  0.00    +0.000 C 
ATOM      8  C   UNL     1       5.530   6.913  78.976  0.00  0.00    +0.000 C 
ATOM      9  C   UNL     1       5.277   6.932  76.490  0.00  0.00    +0.000 C 
ATOM     10  C   UNL     1       8.674   4.243  78.876  0.00  0.00    +0.000 C 
ENDROOT
BRANCH   6  11
ATOM     11  C   UNL     1       9.775   3.577  76.626  0.00  0.00    +0.000 A 
ATOM     12  C   UNL     1      10.938   4.188  76.152  0.00  0.00    +0.000 A 
ATOM     13  C   UNL     1       9.533   2.243  76.293  0.00  0.00    +0.000 A 
ATOM     14  C   UNL     1      11.841   3.481  75.360  0.00  0.00    +0.000 A 
ATOM     15  C   UNL     1      10.433   1.532  75.501  0.00  0.00    +0.000 A 
ATOM     16  C   UNL     1      11.588   2.153  75.035  0.00  0.00    +0.000 A 
ENDBRANCH   6  11
BRANCH   8  17
ATOM     17  N   UNL     1       4.320   7.543  79.314  0.00  0.00    +0.000 NA
ATOM     18  H   UNL     1       4.353   8.031  80.202  0.00  0.00    +0.000 HD
ATOM     19  H   UNL     1       3.938   8.092  78.554  0.00  0.00    +0.000 HD
ENDBRANCH   8  17
TORSDOF 2
ENDMDL
MODEL 8
REMARK VINA RESULT:      -3.4      4.622      6.679
REMARK  Name = PhIP.pdbqt.pdb
REMARK  2 active torsions:
REMARK  status: ('A' for Active; 'I' for Inactive)
REMARK    1  A    between atoms: N_4  and  C_9
REMARK    2  A    between atoms: C_7  and  C_10
REMARK                            x       y       z     vdW  Elec       q    Type
REMARK                         _______ _______ _______ _____ _____    ______ ____
ROOT
ATOM      1  N   UNL     1      20.239   8.549  53.225  0.00  0.00    +0.000 N 
ATOM      2  N   UNL     1      17.967   8.949  52.632  0.00  0.00    +0.000 NA
ATOM      3  N   UNL     1      17.185   9.542  54.852  0.00  0.00    +0.000 NA
ATOM      4  C   UNL     1      19.602   8.954  54.360  0.00  0.00    +0.000 C 
ATOM      5  C   UNL     1      18.154   9.186  53.905  0.00  0.00    +0.000 C 
ATOM      6  C   UNL     1      18.848   9.200  56.662  0.00  0.00    +0.000 C 
ATOM      7  C   UNL     1      19.810   8.922  55.641  0.00  0.00    +0.000 C 
ATOM      8  C   UNL     1      19.234   8.537  52.255  0.00  0.00    +0.000 C 
ATOM      9  C   UNL     1      21.321   7.580  53.240  0.00  0.00    +0.000 C 
ATOM     10  C   UNL     1      17.637   9.478  55.940  0.00  0.00    +0.000 C 
ENDROOT
BRANCH   6  11
ATOM     11  C   UNL     1      19.062   9.267  58.094  0.00  0.00    +0.000 A 
ATOM     12  C   UNL     1      20.338   9.085  58.632  0.00  0.00    +0.000 A 
ATOM     13  C   UNL     1      17.997   9.516  58.963  0.00  0.00    +0.000 A 
ATOM     14  C   UNL     1      20.548   9.149  60.008  0.00  0.00    +0.000 A 
ATOM     15  C   UNL     1      18.201   9.580  60.340  0.00  0.00    +0.000 A 
ATOM     16  C   UNL     1      19.478   9.396  60.862  0.00  0.00    +0.000 A 
ENDBRANCH   6  11
BRANCH   8  17
ATOM     17  N   UNL     1      19.380   8.049  50.945  0.00  0.00    +0.000 NA
ATOM     18  H   UNL     1      20.245   7.543  50.795  0.00  0.00    +0.000 HD
ATOM     19  H   UNL     1      18.555   7.566  50.612  0.00  0.00    +0.000 HD
ENDBRANCH   8  17
TORSDOF 2
ENDMDL
MODEL 9
REMARK VINA RESULT:      -3.3      6.120      8.631
REMARK  Name = PhIP.pdbqt.pdb
REMARK  2 active torsions:
REMARK  status: ('A' for Active; 'I' for Inactive)
REMARK    1  A    between atoms: N_4  and  C_9
REMARK    2  A    between atoms: C_7  and  C_10
REMARK                            x       y       z     vdW  Elec       q    Type
REMARK                         _______ _______ _______ _____ _____    ______ ____
ROOT
ATOM      1  N   UNL     1       6.803  10.648  60.582  0.00  0.00    +0.000 N 
ATOM      2  N   UNL     1       6.198  11.580  62.689  0.00  0.00    +0.000 NA
ATOM      3  N   UNL     1       8.273  12.773  63.088  0.00  0.00    +0.000 NA
ATOM      4  C   UNL     1       7.849  11.424  60.983  0.00  0.00    +0.000 C 
ATOM      5  C   UNL     1       7.393  11.981  62.339  0.00  0.00    +0.000 C 
ATOM      6  C   UNL     1      10.073  12.300  61.448  0.00  0.00    +0.000 C 
ATOM      7  C   UNL     1       9.105  11.569  60.689  0.00  0.00    +0.000 C 
ATOM      8  C   UNL     1       5.880  10.753  61.625  0.00  0.00    +0.000 C 
ATOM      9  C   UNL     1       6.985   9.426  59.819  0.00  0.00    +0.000 C 
ATOM     10  C   UNL     1       9.341  12.781  62.586  0.00  0.00    +0.000 C 
ENDROOT
BRANCH   6  11
ATOM     11  C   UNL     1      11.458  12.564  61.107  0.00  0.00    +0.000 A 
ATOM     12  C   UNL     1      12.321  13.146  62.037  0.00  0.00    +0.000 A 
ATOM     13  C   UNL     1      11.953  12.238  59.843  0.00  0.00    +0.000 A 
ATOM     14  C   UNL     1      13.652  13.400  61.712  0.00  0.00    +0.000 A 
ATOM     15  C   UNL     1      13.284  12.491  59.512  0.00  0.00    +0.000 A 
ATOM     16  C   UNL     1      14.133  13.073  60.449  0.00  0.00    +0.000 A 
ENDBRANCH   6  11
BRANCH   8  17
ATOM     17  N   UNL     1       4.690  10.011  61.730  0.00  0.00    +0.000 NA
ATOM     18  H   UNL     1       4.821   9.015  61.593  0.00  0.00    +0.000 HD
ATOM     19  H   UNL     1       4.151  10.247  62.553  0.00  0.00    +0.000 HD
ENDBRANCH   8  17
TORSDOF 2
ENDMDL
