MODEL 1
REMARK VINA RESULT:      -4.7      0.000      0.000
REMARK  Name = Piroxicam.pdbqt.pdb
REMARK  3 active torsions:
REMARK  status: ('A' for Active; 'I' for Inactive)
REMARK    1  A    between atoms: C_7  and  C_14
REMARK    2  A    between atoms: C_8  and  O_24
REMARK    3  A    between atoms: N_16  and  C_18
REMARK                            x       y       z     vdW  Elec       q    Type
REMARK                         _______ _______ _______ _____ _____    ______ ____
ROOT
ATOM      1  S   UNL     1      17.645  11.711  62.181  0.00  0.00    +0.000 S 
ATOM      2  O   UNL     1      18.793  12.566  61.944  0.00  0.00    +0.000 OA
ATOM      3  O   UNL     1      16.537  12.169  62.998  0.00  0.00    +0.000 OA
ATOM      4  N   UNL     1      17.073  11.129  60.665  0.00  0.00    +0.000 N 
ATOM      5  C   UNL     1      18.267  10.236  62.891  0.00  0.00    +0.000 A 
ATOM      6  C   UNL     1      18.813   9.288  62.028  0.00  0.00    +0.000 A 
ATOM      7  C   UNL     1      18.057  10.387  59.928  0.00  0.00    +0.000 C 
ATOM      8  C   UNL     1      18.878   9.525  60.573  0.00  0.00    +0.000 C 
ATOM      9  C   UNL     1      18.174  10.038  64.263  0.00  0.00    +0.000 A 
ATOM     10  C   UNL     1      15.743  10.498  60.607  0.00  0.00    +0.000 C 
ATOM     11  C   UNL     1      19.317   8.116  62.594  0.00  0.00    +0.000 A 
ATOM     12  C   UNL     1      18.671   8.858  64.802  0.00  0.00    +0.000 A 
ATOM     13  C   UNL     1      19.248   7.900  63.971  0.00  0.00    +0.000 A 
ENDROOT
BRANCH   7  14
ATOM     14  C   UNL     1      18.160  10.604  58.448  0.00  0.00    +0.000 C 
ATOM     15  O   UNL     1      18.417  11.728  58.020  0.00  0.00    +0.000 OA
ATOM     16  N   UNL     1      17.945   9.488  57.681  0.00  0.00    +0.000 N 
ATOM     17  H   UNL     1      17.804   8.584  58.117  0.00  0.00    +0.000 HD
BRANCH  16  18
ATOM     18  C   UNL     1      17.955   9.424  56.287  0.00  0.00    +0.000 A 
ATOM     19  N   UNL     1      16.910  10.038  55.696  0.00  0.00    +0.000 NA
ATOM     20  C   UNL     1      16.872  10.009  54.344  0.00  0.00    +0.000 A 
ATOM     21  C   UNL     1      17.827   9.401  53.549  0.00  0.00    +0.000 A 
ATOM     22  C   UNL     1      18.891   8.781  54.189  0.00  0.00    +0.000 A 
ATOM     23  C   UNL     1      18.964   8.789  55.577  0.00  0.00    +0.000 A 
ENDBRANCH  16  18
ENDBRANCH   7  14
BRANCH   8  24
ATOM     24  O   UNL     1      19.850   8.770  59.938  0.00  0.00    +0.000 OA
ATOM     25  H   UNL     1      20.679   8.783  60.469  0.00  0.00    +0.000 HD
ENDBRANCH   8  24
TORSDOF 3
ENDMDL
MODEL 2
REMARK VINA RESULT:      -4.4     18.456     20.091
REMARK  Name = Piroxicam.pdbqt.pdb
REMARK  3 active torsions:
REMARK  status: ('A' for Active; 'I' for Inactive)
REMARK    1  A    between atoms: C_7  and  C_14
REMARK    2  A    between atoms: C_8  and  O_24
REMARK    3  A    between atoms: N_16  and  C_18
REMARK                            x       y       z     vdW  Elec       q    Type
REMARK                         _______ _______ _______ _____ _____    ______ ____
ROOT
ATOM      1  S   UNL     1       1.440  10.322  72.198  0.00  0.00    +0.000 S 
ATOM      2  O   UNL     1       1.425   9.445  73.354  0.00  0.00    +0.000 OA
ATOM      3  O   UNL     1       0.446  11.366  72.047  0.00  0.00    +0.000 OA
ATOM      4  N   UNL     1       3.026  10.973  72.027  0.00  0.00    +0.000 N 
ATOM      5  C   UNL     1       1.354   9.284  70.791  0.00  0.00    +0.000 A 
ATOM      6  C   UNL     1       2.534   8.678  70.365  0.00  0.00    +0.000 A 
ATOM      7  C   UNL     1       4.041   9.973  71.861  0.00  0.00    +0.000 C 
ATOM      8  C   UNL     1       3.806   8.891  71.083  0.00  0.00    +0.000 C 
ATOM      9  C   UNL     1       0.143   9.119  70.129  0.00  0.00    +0.000 A 
ATOM     10  C   UNL     1       3.223  12.120  71.123  0.00  0.00    +0.000 C 
ATOM     11  C   UNL     1       2.464   7.842  69.248  0.00  0.00    +0.000 A 
ATOM     12  C   UNL     1       0.100   8.293  69.012  0.00  0.00    +0.000 A 
ATOM     13  C   UNL     1       1.257   7.650  68.575  0.00  0.00    +0.000 A 
ENDROOT
BRANCH   7  14
ATOM     14  C   UNL     1       5.346  10.148  72.579  0.00  0.00    +0.000 C 
ATOM     15  O   UNL     1       6.397  10.079  71.944  0.00  0.00    +0.000 OA
ATOM     16  N   UNL     1       5.241  10.372  73.928  0.00  0.00    +0.000 N 
ATOM     17  H   UNL     1       4.332  10.481  74.362  0.00  0.00    +0.000 HD
BRANCH  16  18
ATOM     18  C   UNL     1       6.296  10.540  74.826  0.00  0.00    +0.000 A 
ATOM     19  N   UNL     1       6.790   9.388  75.324  0.00  0.00    +0.000 NA
ATOM     20  C   UNL     1       7.818   9.492  76.197  0.00  0.00    +0.000 A 
ATOM     21  C   UNL     1       8.382  10.690  76.598  0.00  0.00    +0.000 A 
ATOM     22  C   UNL     1       7.853  11.856  76.065  0.00  0.00    +0.000 A 
ATOM     23  C   UNL     1       6.796  11.789  75.165  0.00  0.00    +0.000 A 
ENDBRANCH  16  18
ENDBRANCH   7  14
BRANCH   8  24
ATOM     24  O   UNL     1       4.731   7.883  70.868  0.00  0.00    +0.000 OA
ATOM     25  H   UNL     1       4.494   7.385  70.052  0.00  0.00    +0.000 HD
ENDBRANCH   8  24
TORSDOF 3
ENDMDL
MODEL 3
REMARK VINA RESULT:      -4.3     15.875     18.972
REMARK  Name = Piroxicam.pdbqt.pdb
REMARK  3 active torsions:
REMARK  status: ('A' for Active; 'I' for Inactive)
REMARK    1  A    between atoms: C_7  and  C_14
REMARK    2  A    between atoms: C_8  and  O_24
REMARK    3  A    between atoms: N_16  and  C_18
REMARK                            x       y       z     vdW  Elec       q    Type
REMARK                         _______ _______ _______ _____ _____    ______ ____
ROOT
ATOM      1  S   UNL     1       2.187  10.594  73.365  0.00  0.00    +0.000 S 
ATOM      2  O   UNL     1       2.381   9.553  74.359  0.00  0.00    +0.000 OA
ATOM      3  O   UNL     1       1.189  11.626  73.560  0.00  0.00    +0.000 OA
ATOM      4  N   UNL     1       3.717  11.298  73.004  0.00  0.00    +0.000 N 
ATOM      5  C   UNL     1       1.834   9.776  71.858  0.00  0.00    +0.000 A 
ATOM      6  C   UNL     1       2.910   9.266  71.135  0.00  0.00    +0.000 A 
ATOM      7  C   UNL     1       4.678  10.355  72.505  0.00  0.00    +0.000 C 
ATOM      8  C   UNL     1       4.294   9.397  71.629  0.00  0.00    +0.000 C 
ATOM      9  C   UNL     1       0.519   9.685  71.415  0.00  0.00    +0.000 A 
ATOM     10  C   UNL     1       3.750  12.571  72.264  0.00  0.00    +0.000 C 
ATOM     11  C   UNL     1       2.628   8.606  69.938  0.00  0.00    +0.000 A 
ATOM     12  C   UNL     1       0.264   9.035  70.213  0.00  0.00    +0.000 A 
ATOM     13  C   UNL     1       1.315   8.490  69.478  0.00  0.00    +0.000 A 
ENDROOT
BRANCH   7  14
ATOM     14  C   UNL     1       6.095  10.450  72.987  0.00  0.00    +0.000 C 
ATOM     15  O   UNL     1       6.382  10.016  74.101  0.00  0.00    +0.000 OA
ATOM     16  N   UNL     1       6.968  11.040  72.110  0.00  0.00    +0.000 N 
ATOM     17  H   UNL     1       6.662  11.311  71.182  0.00  0.00    +0.000 HD
BRANCH  16  18
ATOM     18  C   UNL     1       8.327  11.274  72.323  0.00  0.00    +0.000 A 
ATOM     19  N   UNL     1       9.147  10.474  71.612  0.00  0.00    +0.000 NA
ATOM     20  C   UNL     1      10.476  10.661  71.778  0.00  0.00    +0.000 A 
ATOM     21  C   UNL     1      11.032  11.610  72.617  0.00  0.00    +0.000 A 
ATOM     22  C   UNL     1      10.161  12.420  73.332  0.00  0.00    +0.000 A 
ATOM     23  C   UNL     1       8.788  12.256  73.188  0.00  0.00    +0.000 A 
ENDBRANCH  16  18
ENDBRANCH   7  14
BRANCH   8  24
ATOM     24  O   UNL     1       5.157   8.453  71.097  0.00  0.00    +0.000 OA
ATOM     25  H   UNL     1       4.769   8.077  70.274  0.00  0.00    +0.000 HD
ENDBRANCH   8  24
TORSDOF 3
ENDMDL
MODEL 4
REMARK VINA RESULT:      -4.3     20.332     21.567
REMARK  Name = Piroxicam.pdbqt.pdb
REMARK  3 active torsions:
REMARK  status: ('A' for Active; 'I' for Inactive)
REMARK    1  A    between atoms: C_7  and  C_14
REMARK    2  A    between atoms: C_8  and  O_24
REMARK    3  A    between atoms: N_16  and  C_18
REMARK                            x       y       z     vdW  Elec       q    Type
REMARK                         _______ _______ _______ _____ _____    ______ ____
ROOT
ATOM      1  S   UNL     1       6.680   6.848  77.506  0.00  0.00    +0.000 S 
ATOM      2  O   UNL     1       7.266   7.361  76.282  0.00  0.00    +0.000 OA
ATOM      3  O   UNL     1       7.009   7.439  78.788  0.00  0.00    +0.000 OA
ATOM      4  N   UNL     1       4.971   6.766  77.303  0.00  0.00    +0.000 N 
ATOM      5  C   UNL     1       7.088   5.147  77.573  0.00  0.00    +0.000 A 
ATOM      6  C   UNL     1       6.313   4.269  76.817  0.00  0.00    +0.000 A 
ATOM      7  C   UNL     1       4.564   5.930  76.210  0.00  0.00    +0.000 C 
ATOM      8  C   UNL     1       5.200   4.757  75.981  0.00  0.00    +0.000 C 
ATOM      9  C   UNL     1       8.133   4.720  78.385  0.00  0.00    +0.000 A 
ATOM     10  C   UNL     1       4.128   6.573  78.496  0.00  0.00    +0.000 C 
ATOM     11  C   UNL     1       6.644   2.914  76.863  0.00  0.00    +0.000 A 
ATOM     12  C   UNL     1       8.435   3.364  78.424  0.00  0.00    +0.000 A 
ATOM     13  C   UNL     1       7.697   2.462  77.660  0.00  0.00    +0.000 A 
ENDROOT
BRANCH   7  14
ATOM     14  C   UNL     1       3.440   6.393  75.332  0.00  0.00    +0.000 C 
ATOM     15  O   UNL     1       2.483   5.646  75.135  0.00  0.00    +0.000 OA
ATOM     16  N   UNL     1       3.594   7.650  74.806  0.00  0.00    +0.000 N 
ATOM     17  H   UNL     1       4.385   8.225  75.072  0.00  0.00    +0.000 HD
BRANCH  16  18
ATOM     18  C   UNL     1       2.714   8.302  73.941  0.00  0.00    +0.000 A 
ATOM     19  N   UNL     1       3.051   8.216  72.638  0.00  0.00    +0.000 NA
ATOM     20  C   UNL     1       2.229   8.827  71.755  0.00  0.00    +0.000 A 
ATOM     21  C   UNL     1       1.084   9.520  72.105  0.00  0.00    +0.000 A 
ATOM     22  C   UNL     1       0.764   9.586  73.453  0.00  0.00    +0.000 A 
ATOM     23  C   UNL     1       1.585   8.971  74.391  0.00  0.00    +0.000 A 
ENDBRANCH  16  18
ENDBRANCH   7  14
BRANCH   8  24
ATOM     24  O   UNL     1       4.868   3.891  74.952  0.00  0.00    +0.000 OA
ATOM     25  H   UNL     1       5.685   3.477  74.592  0.00  0.00    +0.000 HD
ENDBRANCH   8  24
TORSDOF 3
ENDMDL
MODEL 5
REMARK VINA RESULT:      -4.3     10.881     12.184
REMARK  Name = Piroxicam.pdbqt.pdb
REMARK  3 active torsions:
REMARK  status: ('A' for Active; 'I' for Inactive)
REMARK    1  A    between atoms: C_7  and  C_14
REMARK    2  A    between atoms: C_8  and  O_24
REMARK    3  A    between atoms: N_16  and  C_18
REMARK                            x       y       z     vdW  Elec       q    Type
REMARK                         _______ _______ _______ _____ _____    ______ ____
ROOT
ATOM      1  S   UNL     1      15.611  -0.026  53.016  0.00  0.00    +0.000 S 
ATOM      2  O   UNL     1      14.652   0.843  53.673  0.00  0.00    +0.000 OA
ATOM      3  O   UNL     1      15.457  -1.467  53.062  0.00  0.00    +0.000 OA
ATOM      4  N   UNL     1      15.808   0.505  51.389  0.00  0.00    +0.000 N 
ATOM      5  C   UNL     1      17.178   0.372  53.687  0.00  0.00    +0.000 A 
ATOM      6  C   UNL     1      17.828   1.496  53.181  0.00  0.00    +0.000 A 
ATOM      7  C   UNL     1      16.264   1.862  51.281  0.00  0.00    +0.000 C 
ATOM      8  C   UNL     1      17.211   2.327  52.129  0.00  0.00    +0.000 C 
ATOM      9  C   UNL     1      17.737  -0.442  54.666  0.00  0.00    +0.000 A 
ATOM     10  C   UNL     1      16.485  -0.387  50.433  0.00  0.00    +0.000 C 
ATOM     11  C   UNL     1      19.073   1.820  53.723  0.00  0.00    +0.000 A 
ATOM     12  C   UNL     1      18.983  -0.107  55.181  0.00  0.00    +0.000 A 
ATOM     13  C   UNL     1      19.649   1.025  54.715  0.00  0.00    +0.000 A 
ENDROOT
BRANCH   7  14
ATOM     14  C   UNL     1      15.658   2.742  50.229  0.00  0.00    +0.000 C 
ATOM     15  O   UNL     1      16.378   3.214  49.351  0.00  0.00    +0.000 OA
ATOM     16  N   UNL     1      14.308   2.950  50.353  0.00  0.00    +0.000 N 
ATOM     17  H   UNL     1      13.777   2.468  51.070  0.00  0.00    +0.000 HD
BRANCH  16  18
ATOM     18  C   UNL     1      13.512   3.745  49.528  0.00  0.00    +0.000 A 
ATOM     19  N   UNL     1      13.449   5.040  49.898  0.00  0.00    +0.000 NA
ATOM     20  C   UNL     1      12.693   5.858  49.130  0.00  0.00    +0.000 A 
ATOM     21  C   UNL     1      11.996   5.449  48.007  0.00  0.00    +0.000 A 
ATOM     22  C   UNL     1      12.084   4.111  47.652  0.00  0.00    +0.000 A 
ATOM     23  C   UNL     1      12.851   3.240  48.418  0.00  0.00    +0.000 A 
ENDBRANCH  16  18
ENDBRANCH   7  14
BRANCH   8  24
ATOM     24  O   UNL     1      17.708   3.619  52.091  0.00  0.00    +0.000 OA
ATOM     25  H   UNL     1      17.877   3.936  53.008  0.00  0.00    +0.000 HD
ENDBRANCH   8  24
TORSDOF 3
ENDMDL
MODEL 6
REMARK VINA RESULT:      -4.2      2.764      7.579
REMARK  Name = Piroxicam.pdbqt.pdb
REMARK  3 active torsions:
REMARK  status: ('A' for Active; 'I' for Inactive)
REMARK    1  A    between atoms: C_7  and  C_14
REMARK    2  A    between atoms: C_8  and  O_24
REMARK    3  A    between atoms: N_16  and  C_18
REMARK                            x       y       z     vdW  Elec       q    Type
REMARK                         _______ _______ _______ _____ _____    ______ ____
ROOT
ATOM      1  S   UNL     1      21.398   9.688  55.396  0.00  0.00    +0.000 S 
ATOM      2  O   UNL     1      21.209  11.100  55.124  0.00  0.00    +0.000 OA
ATOM      3  O   UNL     1      22.719   9.093  55.343  0.00  0.00    +0.000 OA
ATOM      4  N   UNL     1      20.631   9.311  56.892  0.00  0.00    +0.000 N 
ATOM      5  C   UNL     1      20.371   8.826  54.270  0.00  0.00    +0.000 A 
ATOM      6  C   UNL     1      19.017   8.721  54.585  0.00  0.00    +0.000 A 
ATOM      7  C   UNL     1      19.225   9.600  56.903  0.00  0.00    +0.000 C 
ATOM      8  C   UNL     1      18.468   9.326  55.814  0.00  0.00    +0.000 C 
ATOM      9  C   UNL     1      20.924   8.255  53.130  0.00  0.00    +0.000 A 
ATOM     10  C   UNL     1      20.939   8.024  57.538  0.00  0.00    +0.000 C 
ATOM     11  C   UNL     1      18.196   8.043  53.682  0.00  0.00    +0.000 A 
ATOM     12  C   UNL     1      20.089   7.573  52.253  0.00  0.00    +0.000 A 
ATOM     13  C   UNL     1      18.726   7.472  52.524  0.00  0.00    +0.000 A 
ENDROOT
BRANCH   7  14
ATOM     14  C   UNL     1      18.628  10.221  58.130  0.00  0.00    +0.000 C 
ATOM     15  O   UNL     1      18.407  11.431  58.147  0.00  0.00    +0.000 OA
ATOM     16  N   UNL     1      18.383   9.350  59.161  0.00  0.00    +0.000 N 
ATOM     17  H   UNL     1      18.533   8.355  59.040  0.00  0.00    +0.000 HD
BRANCH  16  18
ATOM     18  C   UNL     1      17.861   9.673  60.414  0.00  0.00    +0.000 A 
ATOM     19  N   UNL     1      18.770   9.672  61.410  0.00  0.00    +0.000 NA
ATOM     20  C   UNL     1      18.318   9.983  62.647  0.00  0.00    +0.000 A 
ATOM     21  C   UNL     1      17.004  10.298  62.942  0.00  0.00    +0.000 A 
ATOM     22  C   UNL     1      16.095  10.292  61.894  0.00  0.00    +0.000 A 
ATOM     23  C   UNL     1      16.521   9.977  60.609  0.00  0.00    +0.000 A 
ENDBRANCH  16  18
ENDBRANCH   7  14
BRANCH   8  24
ATOM     24  O   UNL     1      17.107   9.570  55.743  0.00  0.00    +0.000 OA
ATOM     25  H   UNL     1      16.950  10.455  55.341  0.00  0.00    +0.000 HD
ENDBRANCH   8  24
TORSDOF 3
ENDMDL
MODEL 7
REMARK VINA RESULT:      -4.0     12.371     15.401
REMARK  Name = Piroxicam.pdbqt.pdb
REMARK  3 active torsions:
REMARK  status: ('A' for Active; 'I' for Inactive)
REMARK    1  A    between atoms: C_7  and  C_14
REMARK    2  A    between atoms: C_8  and  O_24
REMARK    3  A    between atoms: N_16  and  C_18
REMARK                            x       y       z     vdW  Elec       q    Type
REMARK                         _______ _______ _______ _____ _____    ______ ____
ROOT
ATOM      1  S   UNL     1      13.467   5.962  75.815  0.00  0.00    +0.000 S 
ATOM      2  O   UNL     1      14.677   5.396  76.381  0.00  0.00    +0.000 OA
ATOM      3  O   UNL     1      12.940   7.221  76.304  0.00  0.00    +0.000 OA
ATOM      4  N   UNL     1      13.630   6.004  74.101  0.00  0.00    +0.000 N 
ATOM      5  C   UNL     1      12.221   4.745  76.000  0.00  0.00    +0.000 A 
ATOM      6  C   UNL     1      12.189   3.710  75.068  0.00  0.00    +0.000 A 
ATOM      7  C   UNL     1      13.854   4.713  73.515  0.00  0.00    +0.000 C 
ATOM      8  C   UNL     1      13.178   3.634  73.975  0.00  0.00    +0.000 C 
ATOM      9  C   UNL     1      11.295   4.857  77.031  0.00  0.00    +0.000 A 
ATOM     10  C   UNL     1      12.676   6.811  73.321  0.00  0.00    +0.000 C 
ATOM     11  C   UNL     1      11.202   2.735  75.221  0.00  0.00    +0.000 A 
ATOM     12  C   UNL     1      10.314   3.881  77.155  0.00  0.00    +0.000 A 
ATOM     13  C   UNL     1      10.270   2.818  76.256  0.00  0.00    +0.000 A 
ENDROOT
BRANCH   7  14
ATOM     14  C   UNL     1      14.856   4.591  72.406  0.00  0.00    +0.000 C 
ATOM     15  O   UNL     1      16.045   4.794  72.644  0.00  0.00    +0.000 OA
ATOM     16  N   UNL     1      14.331   4.259  71.184  0.00  0.00    +0.000 N 
ATOM     17  H   UNL     1      13.345   4.044  71.088  0.00  0.00    +0.000 HD
BRANCH  16  18
ATOM     18  C   UNL     1      15.038   4.111  69.989  0.00  0.00    +0.000 A 
ATOM     19  N   UNL     1      15.267   5.267  69.334  0.00  0.00    +0.000 NA
ATOM     20  C   UNL     1      15.953   5.183  68.171  0.00  0.00    +0.000 A 
ATOM     21  C   UNL     1      16.426   4.001  67.628  0.00  0.00    +0.000 A 
ATOM     22  C   UNL     1      16.175   2.830  68.329  0.00  0.00    +0.000 A 
ATOM     23  C   UNL     1      15.473   2.878  69.527  0.00  0.00    +0.000 A 
ENDBRANCH  16  18
ENDBRANCH   7  14
BRANCH   8  24
ATOM     24  O   UNL     1      13.332   2.356  73.465  0.00  0.00    +0.000 OA
ATOM     25  H   UNL     1      14.288   2.172  73.315  0.00  0.00    +0.000 HD
ENDBRANCH   8  24
TORSDOF 3
ENDMDL
MODEL 8
REMARK VINA RESULT:      -4.0      4.400      7.986
REMARK  Name = Piroxicam.pdbqt.pdb
REMARK  3 active torsions:
REMARK  status: ('A' for Active; 'I' for Inactive)
REMARK    1  A    between atoms: C_7  and  C_14
REMARK    2  A    between atoms: C_8  and  O_24
REMARK    3  A    between atoms: N_16  and  C_18
REMARK                            x       y       z     vdW  Elec       q    Type
REMARK                         _______ _______ _______ _____ _____    ______ ____
ROOT
ATOM      1  S   UNL     1      16.306  11.917  53.203  0.00  0.00    +0.000 S 
ATOM      2  O   UNL     1      14.935  11.542  53.497  0.00  0.00    +0.000 OA
ATOM      3  O   UNL     1      16.622  12.699  52.024  0.00  0.00    +0.000 OA
ATOM      4  N   UNL     1      16.988  12.644  54.607  0.00  0.00    +0.000 N 
ATOM      5  C   UNL     1      17.219  10.425  53.123  0.00  0.00    +0.000 A 
ATOM      6  C   UNL     1      17.620   9.852  54.328  0.00  0.00    +0.000 A 
ATOM      7  C   UNL     1      16.981  11.785  55.757  0.00  0.00    +0.000 C 
ATOM      8  C   UNL     1      17.274  10.470  55.623  0.00  0.00    +0.000 C 
ATOM      9  C   UNL     1      17.541   9.879  51.886  0.00  0.00    +0.000 A 
ATOM     10  C   UNL     1      18.255  13.384  54.473  0.00  0.00    +0.000 C 
ATOM     11  C   UNL     1      18.340   8.657  54.266  0.00  0.00    +0.000 A 
ATOM     12  C   UNL     1      18.270   8.696  51.849  0.00  0.00    +0.000 A 
ATOM     13  C   UNL     1      18.664   8.082  53.036  0.00  0.00    +0.000 A 
ENDROOT
BRANCH   7  14
ATOM     14  C   UNL     1      16.629  12.374  57.091  0.00  0.00    +0.000 C 
ATOM     15  O   UNL     1      17.452  13.076  57.676  0.00  0.00    +0.000 OA
ATOM     16  N   UNL     1      15.377  12.057  57.552  0.00  0.00    +0.000 N 
ATOM     17  H   UNL     1      14.735  11.525  56.976  0.00  0.00    +0.000 HD
BRANCH  16  18
ATOM     18  C   UNL     1      14.817  12.450  58.769  0.00  0.00    +0.000 A 
ATOM     19  N   UNL     1      14.169  13.631  58.725  0.00  0.00    +0.000 NA
ATOM     20  C   UNL     1      13.603  14.059  59.877  0.00  0.00    +0.000 A 
ATOM     21  C   UNL     1      13.648  13.365  61.073  0.00  0.00    +0.000 A 
ATOM     22  C   UNL     1      14.320  12.151  61.083  0.00  0.00    +0.000 A 
ATOM     23  C   UNL     1      14.915  11.680  59.919  0.00  0.00    +0.000 A 
ENDBRANCH  16  18
ENDBRANCH   7  14
BRANCH   8  24
ATOM     24  O   UNL     1      17.293   9.576  56.679  0.00  0.00    +0.000 OA
ATOM     25  H   UNL     1      16.814   9.961  57.448  0.00  0.00    +0.000 HD
ENDBRANCH   8  24
TORSDOF 3
ENDMDL
MODEL 9
REMARK VINA RESULT:      -3.9      3.536      8.017
REMARK  Name = Piroxicam.pdbqt.pdb
REMARK  3 active torsions:
REMARK  status: ('A' for Active; 'I' for Inactive)
REMARK    1  A    between atoms: C_7  and  C_14
REMARK    2  A    between atoms: C_8  and  O_24
REMARK    3  A    between atoms: N_16  and  C_18
REMARK                            x       y       z     vdW  Elec       q    Type
REMARK                         _______ _______ _______ _____ _____    ______ ____
ROOT
ATOM      1  S   UNL     1      15.987  12.283  53.291  0.00  0.00    +0.000 S 
ATOM      2  O   UNL     1      14.645  11.775  53.509  0.00  0.00    +0.000 OA
ATOM      3  O   UNL     1      16.234  13.323  52.311  0.00  0.00    +0.000 OA
ATOM      4  N   UNL     1      16.661  12.720  54.814  0.00  0.00    +0.000 N 
ATOM      5  C   UNL     1      16.976  10.900  52.874  0.00  0.00    +0.000 A 
ATOM      6  C   UNL     1      17.434  10.099  53.918  0.00  0.00    +0.000 A 
ATOM      7  C   UNL     1      16.726  11.630  55.746  0.00  0.00    +0.000 C 
ATOM      8  C   UNL     1      17.086  10.396  55.321  0.00  0.00    +0.000 C 
ATOM      9  C   UNL     1      17.299  10.659  51.544  0.00  0.00    +0.000 A 
ATOM     10  C   UNL     1      17.884  13.542  54.834  0.00  0.00    +0.000 C 
ATOM     11  C   UNL     1      18.216   8.991  53.585  0.00  0.00    +0.000 A 
ATOM     12  C   UNL     1      18.089   9.557  51.238  0.00  0.00    +0.000 A 
ATOM     13  C   UNL     1      18.542   8.720  52.255  0.00  0.00    +0.000 A 
ENDROOT
BRANCH   7  14
ATOM     14  C   UNL     1      16.373  11.889  57.180  0.00  0.00    +0.000 C 
ATOM     15  O   UNL     1      15.427  12.629  57.443  0.00  0.00    +0.000 OA
ATOM     16  N   UNL     1      17.173  11.258  58.098  0.00  0.00    +0.000 N 
ATOM     17  H   UNL     1      17.892  10.611  57.795  0.00  0.00    +0.000 HD
BRANCH  16  18
ATOM     18  C   UNL     1      17.077  11.352  59.487  0.00  0.00    +0.000 A 
ATOM     19  N   UNL     1      17.659  12.451  60.010  0.00  0.00    +0.000 NA
ATOM     20  C   UNL     1      17.592  12.595  61.353  0.00  0.00    +0.000 A 
ATOM     21  C   UNL     1      16.970  11.699  62.204  0.00  0.00    +0.000 A 
ATOM     22  C   UNL     1      16.379  10.580  61.634  0.00  0.00    +0.000 A 
ATOM     23  C   UNL     1      16.429  10.398  60.257  0.00  0.00    +0.000 A 
ENDBRANCH  16  18
ENDBRANCH   7  14
BRANCH   8  24
ATOM     24  O   UNL     1      17.176   9.293  56.153  0.00  0.00    +0.000 OA
ATOM     25  H   UNL     1      16.299   9.113  56.561  0.00  0.00    +0.000 HD
ENDBRANCH   8  24
TORSDOF 3
ENDMDL
