MODEL 1
REMARK VINA RESULT:      -4.5      0.000      0.000
REMARK  Name = PKR_Inhibitor.pdbqt.pdb
REMARK  0 active torsions:
REMARK  status: ('A' for Active; 'I' for Inactive)
REMARK                            x       y       z     vdW  Elec       q    Type
REMARK                         _______ _______ _______ _____ _____    ______ ____
ROOT
ATOM      1  S   UNL     1      18.624   2.873  51.967  0.00  0.00    +0.000 S 
ATOM      2  O   UNL     1      15.104  -1.119  54.225  0.00  0.00    +0.000 OA
ATOM      3  N   UNL     1      17.231  -0.645  55.096  0.00  0.00    +0.000 N 
ATOM      4  N   UNL     1      20.869   3.040  53.271  0.00  0.00    +0.000 NA
ATOM      5  C   UNL     1      17.938   0.995  53.676  0.00  0.00    +0.000 A 
ATOM      6  C   UNL     1      18.281   0.212  54.807  0.00  0.00    +0.000 A 
ATOM      7  C   UNL     1      16.573   0.567  53.259  0.00  0.00    +0.000 C 
ATOM      8  C   UNL     1      18.883   1.882  53.282  0.00  0.00    +0.000 A 
ATOM      9  C   UNL     1      16.154  -0.507  54.219  0.00  0.00    +0.000 C 
ATOM     10  C   UNL     1      20.107   2.064  53.889  0.00  0.00    +0.000 A 
ATOM     11  C   UNL     1      19.483   0.303  55.504  0.00  0.00    +0.000 A 
ATOM     12  C   UNL     1      15.828   0.982  52.284  0.00  0.00    +0.000 C 
ATOM     13  C   UNL     1      20.403   1.259  55.015  0.00  0.00    +0.000 A 
ATOM     14  C   UNL     1      20.183   3.524  52.256  0.00  0.00    +0.000 A 
ATOM     15  H   UNL     1      17.221  -1.311  55.857  0.00  0.00    +0.000 HD
ATOM     16  C   UNL     1      14.955   1.379  51.244  0.00  0.00    +0.000 C 
ATOM     17  N   UNL     1      13.712   0.856  51.021  0.00  0.00    +0.000 N 
ATOM     18  C   UNL     1      13.184   1.494  49.933  0.00  0.00    +0.000 C 
ATOM     19  H   UNL     1      13.259   0.130  51.558  0.00  0.00    +0.000 HD
ATOM     20  N   UNL     1      14.017   2.390  49.452  0.00  0.00    +0.000 NA
ATOM     21  C   UNL     1      15.125   2.327  50.262  0.00  0.00    +0.000 C 
ENDROOT
TORSDOF 0
ENDMDL
MODEL 2
REMARK VINA RESULT:      -4.3     15.108     16.299
REMARK  Name = PKR_Inhibitor.pdbqt.pdb
REMARK  0 active torsions:
REMARK  status: ('A' for Active; 'I' for Inactive)
REMARK                            x       y       z     vdW  Elec       q    Type
REMARK                         _______ _______ _______ _____ _____    ______ ____
ROOT
ATOM      1  S   UNL     1       4.893   4.371  60.165  0.00  0.00    +0.000 S 
ATOM      2  O   UNL     1       5.729   9.070  63.428  0.00  0.00    +0.000 OA
ATOM      3  N   UNL     1       6.888   8.677  61.426  0.00  0.00    +0.000 N 
ATOM      4  N   UNL     1       6.403   4.377  58.046  0.00  0.00    +0.000 NA
ATOM      5  C   UNL     1       6.000   6.675  60.783  0.00  0.00    +0.000 A 
ATOM      6  C   UNL     1       6.925   7.696  60.447  0.00  0.00    +0.000 A 
ATOM      7  C   UNL     1       5.362   7.083  62.067  0.00  0.00    +0.000 C 
ATOM      8  C   UNL     1       5.935   5.647  59.905  0.00  0.00    +0.000 A 
ATOM      9  C   UNL     1       5.976   8.398  62.445  0.00  0.00    +0.000 C 
ATOM     10  C   UNL     1       6.680   5.536  58.751  0.00  0.00    +0.000 A 
ATOM     11  C   UNL     1       7.732   7.698  59.313  0.00  0.00    +0.000 A 
ATOM     12  C   UNL     1       4.457   6.488  62.777  0.00  0.00    +0.000 C 
ATOM     13  C   UNL     1       7.589   6.581  58.459  0.00  0.00    +0.000 A 
ATOM     14  C   UNL     1       5.482   3.700  58.701  0.00  0.00    +0.000 A 
ATOM     15  H   UNL     1       7.451   9.516  61.425  0.00  0.00    +0.000 HD
ATOM     16  C   UNL     1       3.473   5.902  63.608  0.00  0.00    +0.000 C 
ATOM     17  N   UNL     1       3.007   6.444  64.773  0.00  0.00    +0.000 N 
ATOM     18  C   UNL     1       2.071   5.588  65.282  0.00  0.00    +0.000 C 
ATOM     19  H   UNL     1       3.297   7.319  65.189  0.00  0.00    +0.000 HD
ATOM     20  N   UNL     1       1.915   4.535  64.510  0.00  0.00    +0.000 NA
ATOM     21  C   UNL     1       2.785   4.720  63.463  0.00  0.00    +0.000 C 
ENDROOT
TORSDOF 0
ENDMDL
MODEL 3
REMARK VINA RESULT:      -4.2      2.211      3.614
REMARK  Name = PKR_Inhibitor.pdbqt.pdb
REMARK  0 active torsions:
REMARK  status: ('A' for Active; 'I' for Inactive)
REMARK                            x       y       z     vdW  Elec       q    Type
REMARK                         _______ _______ _______ _____ _____    ______ ____
ROOT
ATOM      1  S   UNL     1      16.947  -0.694  54.870  0.00  0.00    +0.000 S 
ATOM      2  O   UNL     1      18.905   3.451  51.347  0.00  0.00    +0.000 OA
ATOM      3  N   UNL     1      20.118   2.658  53.192  0.00  0.00    +0.000 N 
ATOM      4  N   UNL     1      18.641  -1.237  56.769  0.00  0.00    +0.000 NA
ATOM      5  C   UNL     1      18.689   1.085  54.022  0.00  0.00    +0.000 A 
ATOM      6  C   UNL     1      19.947   1.716  54.194  0.00  0.00    +0.000 A 
ATOM      7  C   UNL     1      18.062   1.703  52.820  0.00  0.00    +0.000 C 
ATOM      8  C   UNL     1      18.392   0.135  54.941  0.00  0.00    +0.000 A 
ATOM      9  C   UNL     1      19.036   2.725  52.313  0.00  0.00    +0.000 C 
ATOM     10  C   UNL     1      19.204  -0.241  55.990  0.00  0.00    +0.000 A 
ATOM     11  C   UNL     1      20.852   1.424  55.211  0.00  0.00    +0.000 A 
ATOM     12  C   UNL     1      16.919   1.468  52.259  0.00  0.00    +0.000 C 
ATOM     13  C   UNL     1      20.449   0.418  56.119  0.00  0.00    +0.000 A 
ATOM     14  C   UNL     1      17.462  -1.544  56.267  0.00  0.00    +0.000 A 
ATOM     15  H   UNL     1      20.933   3.247  53.086  0.00  0.00    +0.000 HD
ATOM     16  C   UNL     1      15.689   1.271  51.588  0.00  0.00    +0.000 C 
ATOM     17  N   UNL     1      15.286   1.951  50.473  0.00  0.00    +0.000 N 
ATOM     18  C   UNL     1      14.050   1.482  50.126  0.00  0.00    +0.000 C 
ATOM     19  H   UNL     1      15.802   2.673  49.988  0.00  0.00    +0.000 HD
ATOM     20  N   UNL     1      13.644   0.544  50.954  0.00  0.00    +0.000 NA
ATOM     21  C   UNL     1      14.658   0.404  51.870  0.00  0.00    +0.000 C 
ENDROOT
TORSDOF 0
ENDMDL
MODEL 4
REMARK VINA RESULT:      -4.1      8.778     10.256
REMARK  Name = PKR_Inhibitor.pdbqt.pdb
REMARK  0 active torsions:
REMARK  status: ('A' for Active; 'I' for Inactive)
REMARK                            x       y       z     vdW  Elec       q    Type
REMARK                         _______ _______ _______ _____ _____    ______ ____
ROOT
ATOM      1  S   UNL     1      21.873   8.292  58.867  0.00  0.00    +0.000 S 
ATOM      2  O   UNL     1      17.241   9.525  55.636  0.00  0.00    +0.000 OA
ATOM      3  N   UNL     1      19.273   8.780  54.731  0.00  0.00    +0.000 N 
ATOM      4  N   UNL     1      23.887   7.505  57.420  0.00  0.00    +0.000 NA
ATOM      5  C   UNL     1      20.536   8.532  56.616  0.00  0.00    +0.000 A 
ATOM      6  C   UNL     1      20.524   8.412  55.203  0.00  0.00    +0.000 A 
ATOM      7  C   UNL     1      19.182   9.010  57.015  0.00  0.00    +0.000 C 
ATOM      8  C   UNL     1      21.706   8.201  57.211  0.00  0.00    +0.000 A 
ATOM      9  C   UNL     1      18.394   9.157  55.747  0.00  0.00    +0.000 C 
ATOM     10  C   UNL     1      22.840   7.772  56.555  0.00  0.00    +0.000 A 
ATOM     11  C   UNL     1      21.602   7.991  54.430  0.00  0.00    +0.000 A 
ATOM     12  C   UNL     1      18.699   9.271  58.188  0.00  0.00    +0.000 C 
ATOM     13  C   UNL     1      22.778   7.668  55.145  0.00  0.00    +0.000 A 
ATOM     14  C   UNL     1      23.484   7.745  58.651  0.00  0.00    +0.000 A 
ATOM     15  H   UNL     1      19.001   8.783  53.757  0.00  0.00    +0.000 HD
ATOM     16  C   UNL     1      18.099   9.577  59.432  0.00  0.00    +0.000 C 
ATOM     17  N   UNL     1      16.813  10.010  59.597  0.00  0.00    +0.000 N 
ATOM     18  C   UNL     1      16.608  10.196  60.936  0.00  0.00    +0.000 C 
ATOM     19  H   UNL     1      16.133  10.168  58.866  0.00  0.00    +0.000 HD
ATOM     20  N   UNL     1      17.685   9.906  61.631  0.00  0.00    +0.000 NA
ATOM     21  C   UNL     1      18.622   9.519  60.703  0.00  0.00    +0.000 C 
ENDROOT
TORSDOF 0
ENDMDL
MODEL 5
REMARK VINA RESULT:      -4.1      2.706      4.656
REMARK  Name = PKR_Inhibitor.pdbqt.pdb
REMARK  0 active torsions:
REMARK  status: ('A' for Active; 'I' for Inactive)
REMARK                            x       y       z     vdW  Elec       q    Type
REMARK                         _______ _______ _______ _____ _____    ______ ____
ROOT
ATOM      1  S   UNL     1      16.903   1.230  52.600  0.00  0.00    +0.000 S 
ATOM      2  O   UNL     1      20.212  -0.440  57.037  0.00  0.00    +0.000 OA
ATOM      3  N   UNL     1      20.882   1.179  55.477  0.00  0.00    +0.000 N 
ATOM      4  N   UNL     1      18.069   3.046  51.146  0.00  0.00    +0.000 NA
ATOM      5  C   UNL     1      19.063   1.252  54.101  0.00  0.00    +0.000 A 
ATOM      6  C   UNL     1      20.354   1.783  54.346  0.00  0.00    +0.000 A 
ATOM      7  C   UNL     1      18.803   0.250  55.173  0.00  0.00    +0.000 C 
ATOM      8  C   UNL     1      18.429   1.758  53.016  0.00  0.00    +0.000 A 
ATOM      9  C   UNL     1      20.022   0.241  56.047  0.00  0.00    +0.000 C 
ATOM     10  C   UNL     1      18.940   2.719  52.171  0.00  0.00    +0.000 A 
ATOM     11  C   UNL     1      20.977   2.755  53.567  0.00  0.00    +0.000 A 
ATOM     12  C   UNL     1      17.768  -0.500  55.384  0.00  0.00    +0.000 C 
ATOM     13  C   UNL     1      20.232   3.219  52.458  0.00  0.00    +0.000 A 
ATOM     14  C   UNL     1      16.976   2.323  51.280  0.00  0.00    +0.000 A 
ATOM     15  H   UNL     1      21.792   1.381  55.868  0.00  0.00    +0.000 HD
ATOM     16  C   UNL     1      16.678  -1.352  55.682  0.00  0.00    +0.000 C 
ATOM     17  N   UNL     1      16.627  -2.219  56.737  0.00  0.00    +0.000 N 
ATOM     18  C   UNL     1      15.420  -2.860  56.687  0.00  0.00    +0.000 C 
ATOM     19  H   UNL     1      17.346  -2.366  57.432  0.00  0.00    +0.000 HD
ATOM     20  N   UNL     1      14.703  -2.451  55.663  0.00  0.00    +0.000 NA
ATOM     21  C   UNL     1      15.478  -1.510  55.029  0.00  0.00    +0.000 C 
ENDROOT
TORSDOF 0
ENDMDL
MODEL 6
REMARK VINA RESULT:      -4.0      2.802      4.349
REMARK  Name = PKR_Inhibitor.pdbqt.pdb
REMARK  0 active torsions:
REMARK  status: ('A' for Active; 'I' for Inactive)
REMARK                            x       y       z     vdW  Elec       q    Type
REMARK                         _______ _______ _______ _____ _____    ______ ____
ROOT
ATOM      1  S   UNL     1      16.595   0.148  53.714  0.00  0.00    +0.000 S 
ATOM      2  O   UNL     1      21.421   3.302  53.271  0.00  0.00    +0.000 OA
ATOM      3  N   UNL     1      21.080   1.710  54.961  0.00  0.00    +0.000 N 
ATOM      4  N   UNL     1      16.679  -1.479  55.743  0.00  0.00    +0.000 NA
ATOM      5  C   UNL     1      18.998   0.940  54.435  0.00  0.00    +0.000 A 
ATOM      6  C   UNL     1      20.084   0.823  55.338  0.00  0.00    +0.000 A 
ATOM      7  C   UNL     1      19.380   1.982  53.441  0.00  0.00    +0.000 C 
ATOM      8  C   UNL     1      17.947   0.124  54.689  0.00  0.00    +0.000 A 
ATOM      9  C   UNL     1      20.750   2.454  53.828  0.00  0.00    +0.000 C 
ATOM     10  C   UNL     1      17.873  -0.778  55.729  0.00  0.00    +0.000 A 
ATOM     11  C   UNL     1      20.127  -0.048  56.423  0.00  0.00    +0.000 A 
ATOM     12  C   UNL     1      18.728   2.446  52.422  0.00  0.00    +0.000 C 
ATOM     13  C   UNL     1      18.983  -0.858  56.603  0.00  0.00    +0.000 A 
ATOM     14  C   UNL     1      15.943  -1.069  54.730  0.00  0.00    +0.000 A 
ATOM     15  H   UNL     1      21.963   1.825  55.439  0.00  0.00    +0.000 HD
ATOM     16  C   UNL     1      18.081   3.004  51.294  0.00  0.00    +0.000 C 
ATOM     17  N   UNL     1      18.609   3.973  50.487  0.00  0.00    +0.000 N 
ATOM     18  C   UNL     1      17.689   4.246  49.513  0.00  0.00    +0.000 C 
ATOM     19  H   UNL     1      19.513   4.412  50.586  0.00  0.00    +0.000 HD
ATOM     20  N   UNL     1      16.609   3.509  49.654  0.00  0.00    +0.000 NA
ATOM     21  C   UNL     1      16.842   2.730  50.761  0.00  0.00    +0.000 C 
ENDROOT
TORSDOF 0
ENDMDL
MODEL 7
REMARK VINA RESULT:      -4.0      2.353      4.524
REMARK  Name = PKR_Inhibitor.pdbqt.pdb
REMARK  0 active torsions:
REMARK  status: ('A' for Active; 'I' for Inactive)
REMARK                            x       y       z     vdW  Elec       q    Type
REMARK                         _______ _______ _______ _____ _____    ______ ____
ROOT
ATOM      1  S   UNL     1      20.142   1.620  54.448  0.00  0.00    +0.000 S 
ATOM      2  O   UNL     1      15.591   2.720  51.056  0.00  0.00    +0.000 OA
ATOM      3  N   UNL     1      15.618   0.994  52.645  0.00  0.00    +0.000 N 
ATOM      4  N   UNL     1      19.701  -0.385  56.047  0.00  0.00    +0.000 NA
ATOM      5  C   UNL     1      17.709   1.232  53.526  0.00  0.00    +0.000 A 
ATOM      6  C   UNL     1      16.507   0.483  53.578  0.00  0.00    +0.000 A 
ATOM      7  C   UNL     1      17.519   2.272  52.476  0.00  0.00    +0.000 C 
ATOM      8  C   UNL     1      18.672   0.835  54.392  0.00  0.00    +0.000 A 
ATOM      9  C   UNL     1      16.136   2.075  51.930  0.00  0.00    +0.000 C 
ATOM     10  C   UNL     1      18.558  -0.208  55.286  0.00  0.00    +0.000 A 
ATOM     11  C   UNL     1      16.272  -0.589  54.434  0.00  0.00    +0.000 A 
ATOM     12  C   UNL     1      18.326   3.195  52.057  0.00  0.00    +0.000 C 
ATOM     13  C   UNL     1      17.338  -0.925  55.300  0.00  0.00    +0.000 A 
ATOM     14  C   UNL     1      20.588   0.521  55.686  0.00  0.00    +0.000 A 
ATOM     15  H   UNL     1      14.686   0.639  52.480  0.00  0.00    +0.000 HD
ATOM     16  C   UNL     1      19.146   4.227  51.545  0.00  0.00    +0.000 C 
ATOM     17  N   UNL     1      18.783   5.101  50.558  0.00  0.00    +0.000 N 
ATOM     18  C   UNL     1      19.839   5.943  50.343  0.00  0.00    +0.000 C 
ATOM     19  H   UNL     1      17.898   5.126  50.072  0.00  0.00    +0.000 HD
ATOM     20  N   UNL     1      20.850   5.656  51.133  0.00  0.00    +0.000 NA
ATOM     21  C   UNL     1      20.429   4.587  51.887  0.00  0.00    +0.000 C 
ENDROOT
TORSDOF 0
ENDMDL
MODEL 8
REMARK VINA RESULT:      -3.9     10.734     11.955
REMARK  Name = PKR_Inhibitor.pdbqt.pdb
REMARK  0 active torsions:
REMARK  status: ('A' for Active; 'I' for Inactive)
REMARK                            x       y       z     vdW  Elec       q    Type
REMARK                         _______ _______ _______ _____ _____    ______ ____
ROOT
ATOM      1  S   UNL     1      20.780   8.611  61.156  0.00  0.00    +0.000 S 
ATOM      2  O   UNL     1      15.510  10.825  60.286  0.00  0.00    +0.000 OA
ATOM      3  N   UNL     1      16.432  10.510  62.420  0.00  0.00    +0.000 N 
ATOM      4  N   UNL     1      21.364   8.455  63.687  0.00  0.00    +0.000 NA
ATOM      5  C   UNL     1      18.469   9.623  61.900  0.00  0.00    +0.000 A 
ATOM      6  C   UNL     1      17.615  10.026  62.957  0.00  0.00    +0.000 A 
ATOM      7  C   UNL     1      17.734   9.890  60.632  0.00  0.00    +0.000 C 
ATOM      8  C   UNL     1      19.668   9.126  62.287  0.00  0.00    +0.000 A 
ATOM      9  C   UNL     1      16.407  10.470  61.026  0.00  0.00    +0.000 C 
ATOM     10  C   UNL     1      20.092   8.994  63.591  0.00  0.00    +0.000 A 
ATOM     11  C   UNL     1      17.929   9.942  64.311  0.00  0.00    +0.000 A 
ATOM     12  C   UNL     1      18.089   9.694  59.402  0.00  0.00    +0.000 C 
ATOM     13  C   UNL     1      19.204   9.410  64.611  0.00  0.00    +0.000 A 
ATOM     14  C   UNL     1      21.811   8.221  62.470  0.00  0.00    +0.000 A 
ATOM     15  H   UNL     1      15.654  10.862  62.961  0.00  0.00    +0.000 HD
ATOM     16  C   UNL     1      18.401   9.511  58.034  0.00  0.00    +0.000 C 
ATOM     17  N   UNL     1      17.575   9.826  56.992  0.00  0.00    +0.000 N 
ATOM     18  C   UNL     1      18.228   9.505  55.834  0.00  0.00    +0.000 C 
ATOM     19  H   UNL     1      16.648  10.224  57.057  0.00  0.00    +0.000 HD
ATOM     20  N   UNL     1      19.419   9.005  56.079  0.00  0.00    +0.000 NA
ATOM     21  C   UNL     1      19.538   9.003  57.448  0.00  0.00    +0.000 C 
ENDROOT
TORSDOF 0
ENDMDL
MODEL 9
REMARK VINA RESULT:      -3.9     18.211     20.292
REMARK  Name = PKR_Inhibitor.pdbqt.pdb
REMARK  0 active torsions:
REMARK  status: ('A' for Active; 'I' for Inactive)
REMARK                            x       y       z     vdW  Elec       q    Type
REMARK                         _______ _______ _______ _____ _____    ______ ____
ROOT
ATOM      1  S   UNL     1       6.137  -1.840  68.612  0.00  0.00    +0.000 S 
ATOM      2  O   UNL     1      10.735  -0.865  71.979  0.00  0.00    +0.000 OA
ATOM      3  N   UNL     1      10.764  -0.565  69.652  0.00  0.00    +0.000 N 
ATOM      4  N   UNL     1       6.651  -1.371  66.105  0.00  0.00    +0.000 NA
ATOM      5  C   UNL     1       8.627  -1.145  69.102  0.00  0.00    +0.000 A 
ATOM      6  C   UNL     1       9.875  -0.703  68.597  0.00  0.00    +0.000 A 
ATOM      7  C   UNL     1       8.787  -1.281  70.577  0.00  0.00    +0.000 C 
ATOM      8  C   UNL     1       7.660  -1.323  68.170  0.00  0.00    +0.000 A 
ATOM      9  C   UNL     1      10.201  -0.890  70.887  0.00  0.00    +0.000 C 
ATOM     10  C   UNL     1       7.809  -1.108  66.817  0.00  0.00    +0.000 A 
ATOM     11  C   UNL     1      10.148  -0.452  67.255  0.00  0.00    +0.000 A 
ATOM     12  C   UNL     1       7.936  -1.652  71.480  0.00  0.00    +0.000 C 
ATOM     13  C   UNL     1       9.074  -0.666  66.362  0.00  0.00    +0.000 A 
ATOM     14  C   UNL     1       5.719  -1.759  66.951  0.00  0.00    +0.000 A 
ATOM     15  H   UNL     1      11.724  -0.262  69.563  0.00  0.00    +0.000 HD
ATOM     16  C   UNL     1       7.067  -2.047  72.525  0.00  0.00    +0.000 C 
ATOM     17  N   UNL     1       7.407  -2.108  73.847  0.00  0.00    +0.000 N 
ATOM     18  C   UNL     1       6.306  -2.530  74.539  0.00  0.00    +0.000 C 
ATOM     19  H   UNL     1       8.308  -1.884  74.248  0.00  0.00    +0.000 HD
ATOM     20  N   UNL     1       5.287  -2.740  73.735  0.00  0.00    +0.000 NA
ATOM     21  C   UNL     1       5.750  -2.443  72.476  0.00  0.00    +0.000 C 
ENDROOT
TORSDOF 0
ENDMDL
