MODEL 1
REMARK VINA RESULT:      -4.7      0.000      0.000
REMARK  Name = 
REMARK  14 active torsions:
REMARK  status: ('A' for Active; 'I' for Inactive)
REMARK    1  A    between atoms: O_1  and  C_14
REMARK    2  A    between atoms: O_1  and  C_15
REMARK    3  A    between atoms: O_4  and  C_16
REMARK    4  A    between atoms: O_5  and  C_18
REMARK    5  A    between atoms: O_6  and  C_26
REMARK    6  A    between atoms: O_7  and  C_29
REMARK    7  A    between atoms: O_8  and  C_35
REMARK    8  A    between atoms: O_9  and  C_36
REMARK    9  A    between atoms: O_10  and  C_39
REMARK   10  A    between atoms: O_11  and  C_40
REMARK   11  A    between atoms: O_12  and  C_41
REMARK   12  A    between atoms: O_13  and  C_43
REMARK   13  A    between atoms: C_14  and  C_20
REMARK   14  A    between atoms: C_17  and  C_24
REMARK                            x       y       z     vdW  Elec       q    Type
REMARK                         _______ _______ _______ _____ _____    ______ ____
ROOT
ATOM      1  O   UNL     1       3.466   6.869  61.095  0.00  0.00    +0.000 OA
ATOM      2  C   UNL     1       4.578   7.160  61.953  0.00  0.00    +0.000 C 
ATOM      3  C   UNL     1       4.416   6.462  63.338  0.00  0.00    +0.000 C 
ATOM      4  C   UNL     1       3.090   6.854  63.982  0.00  0.00    +0.000 C 
ATOM      5  C   UNL     1       1.954   6.728  63.011  0.00  0.00    +0.000 A 
ATOM      6  C   UNL     1       2.216   6.756  61.638  0.00  0.00    +0.000 A 
ATOM      7  C   UNL     1       0.619   6.625  63.428  0.00  0.00    +0.000 A 
ATOM      8  C   UNL     1       1.173   6.664  60.714  0.00  0.00    +0.000 A 
ATOM      9  C   UNL     1      -0.429   6.553  62.516  0.00  0.00    +0.000 A 
ATOM     10  C   UNL     1      -0.141   6.569  61.159  0.00  0.00    +0.000 A 
ENDROOT
BRANCH   2  11
ATOM     11  C   UNL     1       4.827   8.671  62.123  0.00  0.00    +0.000 A 
ATOM     12  C   UNL     1       5.818   9.142  63.013  0.00  0.00    +0.000 A 
ATOM     13  C   UNL     1       4.089   9.624  61.388  0.00  0.00    +0.000 A 
ATOM     14  C   UNL     1       6.039  10.508  63.159  0.00  0.00    +0.000 A 
ATOM     15  C   UNL     1       4.309  10.995  61.553  0.00  0.00    +0.000 A 
ATOM     16  C   UNL     1       5.278  11.423  62.442  0.00  0.00    +0.000 A 
BRANCH  14  17
ATOM     17  O   UNL     1       7.000  11.010  63.991  0.00  0.00    +0.000 OA
ATOM     18  H   UNL     1       7.039  11.983  63.896  0.00  0.00    +0.000 HD
ENDBRANCH  14  17
BRANCH  16  19
ATOM     19  O   UNL     1       5.496  12.762  62.599  0.00  0.00    +0.000 OA
ATOM     20  H   UNL     1       5.809  12.850  63.523  0.00  0.00    +0.000 HD
ENDBRANCH  16  19
ENDBRANCH   2  11
BRANCH   3  21
ATOM     21  O   UNL     1       4.461   5.011  63.227  0.00  0.00    +0.000 OA
ATOM     22  H   UNL     1       5.222   4.741  63.781  0.00  0.00    +0.000 HD
ENDBRANCH   3  21
BRANCH   4  23
ATOM     23  O   UNL     1       2.840   6.008  65.119  0.00  0.00    +0.000 OA
ATOM     24  H   UNL     1       2.860   6.625  65.884  0.00  0.00    +0.000 HD
ENDBRANCH   4  23
BRANCH   7  25
ATOM     25  O   UNL     1       0.285   6.571  64.755  0.00  0.00    +0.000 OA
ATOM     26  H   UNL     1      -0.341   7.308  64.926  0.00  0.00    +0.000 HD
ENDBRANCH   7  25
BRANCH  10  27
ATOM     27  O   UNL     1      -1.128   6.493  60.221  0.00  0.00    +0.000 OA
ATOM     28  H   UNL     1      -1.139   7.325  59.718  0.00  0.00    +0.000 HD
ENDBRANCH  10  27
BRANCH   2  29
ATOM     29  O   UNL     1       5.760   6.518  61.398  0.00  0.00    +0.000 OA
BRANCH  29  31
ATOM     30  O   UNL     1       6.912   6.266  57.885  0.00  0.00    +0.000 OA
ATOM     31  C   UNL     1       5.686   6.082  60.026  0.00  0.00    +0.000 C 
ATOM     32  C   UNL     1       6.944   6.593  59.281  0.00  0.00    +0.000 C 
ATOM     33  C   UNL     1       5.676   4.554  59.916  0.00  0.00    +0.000 C 
ATOM     34  C   UNL     1       6.086   4.074  58.552  0.00  0.00    +0.000 A 
ATOM     35  C   UNL     1       6.669   4.945  57.627  0.00  0.00    +0.000 A 
ATOM     36  C   UNL     1       5.897   2.736  58.181  0.00  0.00    +0.000 A 
ATOM     37  C   UNL     1       7.013   4.504  56.346  0.00  0.00    +0.000 A 
ATOM     38  C   UNL     1       6.251   2.281  56.913  0.00  0.00    +0.000 A 
ATOM     39  C   UNL     1       6.802   3.173  56.003  0.00  0.00    +0.000 A 
BRANCH  32  40
ATOM     40  C   UNL     1       7.072   8.107  59.393  0.00  0.00    +0.000 A 
ATOM     41  C   UNL     1       8.015   8.690  60.253  0.00  0.00    +0.000 A 
ATOM     42  C   UNL     1       6.296   8.939  58.567  0.00  0.00    +0.000 A 
ATOM     43  C   UNL     1       8.204  10.071  60.245  0.00  0.00    +0.000 A 
ATOM     44  C   UNL     1       6.477  10.325  58.577  0.00  0.00    +0.000 A 
ATOM     45  C   UNL     1       7.444  10.883  59.406  0.00  0.00    +0.000 A 
BRANCH  43  46
ATOM     46  O   UNL     1       9.186  10.635  61.009  0.00  0.00    +0.000 OA
ATOM     47  H   UNL     1       9.952  10.835  60.445  0.00  0.00    +0.000 HD
ENDBRANCH  43  46
BRANCH  45  48
ATOM     48  O   UNL     1       7.681  12.228  59.386  0.00  0.00    +0.000 OA
ATOM     49  H   UNL     1       8.635  12.383  59.485  0.00  0.00    +0.000 HD
ENDBRANCH  45  48
ENDBRANCH  32  40
BRANCH  36  50
ATOM     50  O   UNL     1       5.351   1.877  59.092  0.00  0.00    +0.000 OA
ATOM     51  H   UNL     1       4.798   1.229  58.622  0.00  0.00    +0.000 HD
ENDBRANCH  36  50
BRANCH  39  52
ATOM     52  O   UNL     1       7.130   2.698  54.767  0.00  0.00    +0.000 OA
ATOM     53  H   UNL     1       8.082   2.836  54.623  0.00  0.00    +0.000 HD
ENDBRANCH  39  52
ENDBRANCH  29  31
ENDBRANCH   2  29
TORSDOF 14
ENDMDL
MODEL 2
REMARK VINA RESULT:      -4.6      4.377      9.024
REMARK  Name = 
REMARK  14 active torsions:
REMARK  status: ('A' for Active; 'I' for Inactive)
REMARK    1  A    between atoms: O_1  and  C_14
REMARK    2  A    between atoms: O_1  and  C_15
REMARK    3  A    between atoms: O_4  and  C_16
REMARK    4  A    between atoms: O_5  and  C_18
REMARK    5  A    between atoms: O_6  and  C_26
REMARK    6  A    between atoms: O_7  and  C_29
REMARK    7  A    between atoms: O_8  and  C_35
REMARK    8  A    between atoms: O_9  and  C_36
REMARK    9  A    between atoms: O_10  and  C_39
REMARK   10  A    between atoms: O_11  and  C_40
REMARK   11  A    between atoms: O_12  and  C_41
REMARK   12  A    between atoms: O_13  and  C_43
REMARK   13  A    between atoms: C_14  and  C_20
REMARK   14  A    between atoms: C_17  and  C_24
REMARK                            x       y       z     vdW  Elec       q    Type
REMARK                         _______ _______ _______ _____ _____    ______ ____
ROOT
ATOM      1  O   UNL     1       1.833   7.082  67.434  0.00  0.00    +0.000 OA
ATOM      2  C   UNL     1       0.560   6.974  66.783  0.00  0.00    +0.000 C 
ATOM      3  C   UNL     1      -0.318   8.233  67.055  0.00  0.00    +0.000 C 
ATOM      4  C   UNL     1      -0.470   8.465  68.555  0.00  0.00    +0.000 C 
ATOM      5  C   UNL     1       0.853   8.384  69.255  0.00  0.00    +0.000 A 
ATOM      6  C   UNL     1       1.909   7.691  68.655  0.00  0.00    +0.000 A 
ATOM      7  C   UNL     1       1.066   8.947  70.523  0.00  0.00    +0.000 A 
ATOM      8  C   UNL     1       3.144   7.582  69.299  0.00  0.00    +0.000 A 
ATOM      9  C   UNL     1       2.286   8.826  71.181  0.00  0.00    +0.000 A 
ATOM     10  C   UNL     1       3.321   8.146  70.557  0.00  0.00    +0.000 A 
ENDROOT
BRANCH   2  11
ATOM     11  C   UNL     1      -0.196   5.683  67.153  0.00  0.00    +0.000 A 
ATOM     12  C   UNL     1       0.377   4.743  68.039  0.00  0.00    +0.000 A 
ATOM     13  C   UNL     1      -1.479   5.409  66.634  0.00  0.00    +0.000 A 
ATOM     14  C   UNL     1      -0.313   3.580  68.370  0.00  0.00    +0.000 A 
ATOM     15  C   UNL     1      -2.157   4.232  66.962  0.00  0.00    +0.000 A 
ATOM     16  C   UNL     1      -1.564   3.326  67.822  0.00  0.00    +0.000 A 
BRANCH  14  17
ATOM     17  O   UNL     1       0.190   2.652  69.238  0.00  0.00    +0.000 OA
ATOM     18  H   UNL     1      -0.154   1.767  69.004  0.00  0.00    +0.000 HD
ENDBRANCH  14  17
BRANCH  16  19
ATOM     19  O   UNL     1      -2.228   2.177  68.146  0.00  0.00    +0.000 OA
ATOM     20  H   UNL     1      -2.500   2.308  69.077  0.00  0.00    +0.000 HD
ENDBRANCH  16  19
ENDBRANCH   2  11
BRANCH   3  21
ATOM     21  O   UNL     1       0.250   9.435  66.461  0.00  0.00    +0.000 OA
ATOM     22  H   UNL     1       1.165   9.476  66.805  0.00  0.00    +0.000 HD
ENDBRANCH   3  21
BRANCH   4  23
ATOM     23  O   UNL     1      -1.052   9.760  68.784  0.00  0.00    +0.000 OA
ATOM     24  H   UNL     1      -1.598   9.921  67.982  0.00  0.00    +0.000 HD
ENDBRANCH   4  23
BRANCH   7  25
ATOM     25  O   UNL     1       0.088   9.658  71.165  0.00  0.00    +0.000 OA
ATOM     26  H   UNL     1      -0.247   9.093  71.896  0.00  0.00    +0.000 HD
ENDBRANCH   7  25
BRANCH  10  27
ATOM     27  O   UNL     1       4.541   8.005  71.153  0.00  0.00    +0.000 OA
ATOM     28  H   UNL     1       4.862   7.103  70.984  0.00  0.00    +0.000 HD
ENDBRANCH  10  27
BRANCH   2  29
ATOM     29  O   UNL     1       0.779   7.030  65.345  0.00  0.00    +0.000 OA
BRANCH  29  31
ATOM     30  O   UNL     1       3.576   5.784  63.259  0.00  0.00    +0.000 OA
ATOM     31  C   UNL     1       2.144   6.976  64.887  0.00  0.00    +0.000 C 
ATOM     32  C   UNL     1       2.230   5.955  63.724  0.00  0.00    +0.000 C 
ATOM     33  C   UNL     1       2.615   8.330  64.346  0.00  0.00    +0.000 C 
ATOM     34  C   UNL     1       3.808   8.202  63.439  0.00  0.00    +0.000 A 
ATOM     35  C   UNL     1       4.216   6.955  62.957  0.00  0.00    +0.000 A 
ATOM     36  C   UNL     1       4.533   9.336  63.053  0.00  0.00    +0.000 A 
ATOM     37  C   UNL     1       5.347   6.836  62.146  0.00  0.00    +0.000 A 
ATOM     38  C   UNL     1       5.653   9.232  62.231  0.00  0.00    +0.000 A 
ATOM     39  C   UNL     1       6.054   7.978  61.789  0.00  0.00    +0.000 A 
BRANCH  32  40
ATOM     40  C   UNL     1       1.717   4.588  64.154  0.00  0.00    +0.000 A 
ATOM     41  C   UNL     1       2.422   3.813  65.089  0.00  0.00    +0.000 A 
ATOM     42  C   UNL     1       0.478   4.121  63.677  0.00  0.00    +0.000 A 
ATOM     43  C   UNL     1       1.870   2.625  65.565  0.00  0.00    +0.000 A 
ATOM     44  C   UNL     1      -0.060   2.919  64.144  0.00  0.00    +0.000 A 
ATOM     45  C   UNL     1       0.633   2.184  65.100  0.00  0.00    +0.000 A 
BRANCH  43  46
ATOM     46  O   UNL     1       2.506   1.916  66.544  0.00  0.00    +0.000 OA
ATOM     47  H   UNL     1       3.319   2.384  66.798  0.00  0.00    +0.000 HD
ENDBRANCH  43  46
BRANCH  45  48
ATOM     48  O   UNL     1       0.096   1.039  65.617  0.00  0.00    +0.000 OA
ATOM     49  H   UNL     1       0.798   0.529  66.053  0.00  0.00    +0.000 HD
ENDBRANCH  45  48
ENDBRANCH  32  40
BRANCH  36  50
ATOM     50  O   UNL     1       4.122  10.559  63.502  0.00  0.00    +0.000 OA
ATOM     51  H   UNL     1       4.904  11.109  63.680  0.00  0.00    +0.000 HD
ENDBRANCH  36  50
BRANCH  39  52
ATOM     52  O   UNL     1       7.160   7.910  60.993  0.00  0.00    +0.000 OA
ATOM     53  H   UNL     1       7.693   8.712  61.129  0.00  0.00    +0.000 HD
ENDBRANCH  39  52
ENDBRANCH  29  31
ENDBRANCH   2  29
TORSDOF 14
ENDMDL
MODEL 3
REMARK VINA RESULT:      -4.5      2.409      6.314
REMARK  Name = 
REMARK  14 active torsions:
REMARK  status: ('A' for Active; 'I' for Inactive)
REMARK    1  A    between atoms: O_1  and  C_14
REMARK    2  A    between atoms: O_1  and  C_15
REMARK    3  A    between atoms: O_4  and  C_16
REMARK    4  A    between atoms: O_5  and  C_18
REMARK    5  A    between atoms: O_6  and  C_26
REMARK    6  A    between atoms: O_7  and  C_29
REMARK    7  A    between atoms: O_8  and  C_35
REMARK    8  A    between atoms: O_9  and  C_36
REMARK    9  A    between atoms: O_10  and  C_39
REMARK   10  A    between atoms: O_11  and  C_40
REMARK   11  A    between atoms: O_12  and  C_41
REMARK   12  A    between atoms: O_13  and  C_43
REMARK   13  A    between atoms: C_14  and  C_20
REMARK   14  A    between atoms: C_17  and  C_24
REMARK                            x       y       z     vdW  Elec       q    Type
REMARK                         _______ _______ _______ _____ _____    ______ ____
ROOT
ATOM      1  O   UNL     1       4.304   7.257  62.196  0.00  0.00    +0.000 OA
ATOM      2  C   UNL     1       3.020   6.737  61.823  0.00  0.00    +0.000 C 
ATOM      3  C   UNL     1       2.202   7.788  61.013  0.00  0.00    +0.000 C 
ATOM      4  C   UNL     1       2.076   9.089  61.800  0.00  0.00    +0.000 C 
ATOM      5  C   UNL     1       3.402   9.523  62.350  0.00  0.00    +0.000 A 
ATOM      6  C   UNL     1       4.419   8.580  62.521  0.00  0.00    +0.000 A 
ATOM      7  C   UNL     1       3.652  10.846  62.744  0.00  0.00    +0.000 A 
ATOM      8  C   UNL     1       5.654   8.956  63.054  0.00  0.00    +0.000 A 
ATOM      9  C   UNL     1       4.873  11.226  63.295  0.00  0.00    +0.000 A 
ATOM     10  C   UNL     1       5.870  10.273  63.441  0.00  0.00    +0.000 A 
ENDROOT
BRANCH   2  11
ATOM     11  C   UNL     1       2.211   6.216  63.026  0.00  0.00    +0.000 A 
ATOM     12  C   UNL     1       2.759   6.242  64.328  0.00  0.00    +0.000 A 
ATOM     13  C   UNL     1       0.902   5.713  62.869  0.00  0.00    +0.000 A 
ATOM     14  C   UNL     1       2.022   5.772  65.411  0.00  0.00    +0.000 A 
ATOM     15  C   UNL     1       0.174   5.230  63.961  0.00  0.00    +0.000 A 
ATOM     16  C   UNL     1       0.745   5.258  65.220  0.00  0.00    +0.000 A 
BRANCH  14  17
ATOM     17  O   UNL     1       2.501   5.797  66.690  0.00  0.00    +0.000 OA
ATOM     18  H   UNL     1       1.951   5.219  67.256  0.00  0.00    +0.000 HD
ENDBRANCH  14  17
BRANCH  16  19
ATOM     19  O   UNL     1       0.033   4.790  66.287  0.00  0.00    +0.000 OA
ATOM     20  H   UNL     1       0.702   4.348  66.850  0.00  0.00    +0.000 HD
ENDBRANCH  16  19
ENDBRANCH   2  11
BRANCH   3  21
ATOM     21  O   UNL     1       2.817   8.088  59.728  0.00  0.00    +0.000 OA
ATOM     22  H   UNL     1       2.066   8.233  59.118  0.00  0.00    +0.000 HD
ENDBRANCH   3  21
BRANCH   4  23
ATOM     23  O   UNL     1       1.555  10.120  60.943  0.00  0.00    +0.000 OA
ATOM     24  H   UNL     1       2.300  10.755  60.852  0.00  0.00    +0.000 HD
ENDBRANCH   4  23
BRANCH   7  25
ATOM     25  O   UNL     1       2.714  11.831  62.589  0.00  0.00    +0.000 OA
ATOM     26  H   UNL     1       2.550  12.217  63.478  0.00  0.00    +0.000 HD
ENDBRANCH   7  25
BRANCH  10  27
ATOM     27  O   UNL     1       7.088  10.592  63.966  0.00  0.00    +0.000 OA
ATOM     28  H   UNL     1       7.038  11.492  64.332  0.00  0.00    +0.000 HD
ENDBRANCH  10  27
BRANCH   2  29
ATOM     29  O   UNL     1       3.226   5.667  60.858  0.00  0.00    +0.000 OA
BRANCH  29  31
ATOM     30  O   UNL     1       5.764   2.981  60.589  0.00  0.00    +0.000 OA
ATOM     31  C   UNL     1       4.561   5.137  60.742  0.00  0.00    +0.000 C 
ATOM     32  C   UNL     1       4.468   3.595  60.632  0.00  0.00    +0.000 C 
ATOM     33  C   UNL     1       5.265   5.647  59.480  0.00  0.00    +0.000 C 
ATOM     34  C   UNL     1       6.419   4.772  59.073  0.00  0.00    +0.000 A 
ATOM     35  C   UNL     1       6.601   3.509  59.644  0.00  0.00    +0.000 A 
ATOM     36  C   UNL     1       7.333   5.204  58.105  0.00  0.00    +0.000 A 
ATOM     37  C   UNL     1       7.696   2.715  59.292  0.00  0.00    +0.000 A 
ATOM     38  C   UNL     1       8.419   4.415  57.733  0.00  0.00    +0.000 A 
ATOM     39  C   UNL     1       8.594   3.177  58.337  0.00  0.00    +0.000 A 
BRANCH  32  40
ATOM     40  C   UNL     1       3.722   3.003  61.820  0.00  0.00    +0.000 A 
ATOM     41  C   UNL     1       4.269   3.047  63.112  0.00  0.00    +0.000 A 
ATOM     42  C   UNL     1       2.429   2.477  61.645  0.00  0.00    +0.000 A 
ATOM     43  C   UNL     1       3.514   2.618  64.202  0.00  0.00    +0.000 A 
ATOM     44  C   UNL     1       1.685   2.031  62.740  0.00  0.00    +0.000 A 
ATOM     45  C   UNL     1       2.226   2.118  64.018  0.00  0.00    +0.000 A 
BRANCH  43  46
ATOM     46  O   UNL     1       4.004   2.747  65.470  0.00  0.00    +0.000 OA
ATOM     47  H   UNL     1       4.459   1.926  65.720  0.00  0.00    +0.000 HD
ENDBRANCH  43  46
BRANCH  45  48
ATOM     48  O   UNL     1       1.493   1.747  65.108  0.00  0.00    +0.000 OA
ATOM     49  H   UNL     1       0.731   2.342  65.196  0.00  0.00    +0.000 HD
ENDBRANCH  45  48
ENDBRANCH  32  40
BRANCH  36  50
ATOM     50  O   UNL     1       7.143   6.427  57.526  0.00  0.00    +0.000 OA
ATOM     51  H   UNL     1       6.435   6.894  58.002  0.00  0.00    +0.000 HD
ENDBRANCH  36  50
BRANCH  39  52
ATOM     52  O   UNL     1       9.672   2.432  57.957  0.00  0.00    +0.000 OA
ATOM     53  H   UNL     1       9.593   1.546  58.350  0.00  0.00    +0.000 HD
ENDBRANCH  39  52
ENDBRANCH  29  31
ENDBRANCH   2  29
TORSDOF 14
ENDMDL
MODEL 4
REMARK VINA RESULT:      -4.4      2.256      6.692
REMARK  Name = 
REMARK  14 active torsions:
REMARK  status: ('A' for Active; 'I' for Inactive)
REMARK    1  A    between atoms: O_1  and  C_14
REMARK    2  A    between atoms: O_1  and  C_15
REMARK    3  A    between atoms: O_4  and  C_16
REMARK    4  A    between atoms: O_5  and  C_18
REMARK    5  A    between atoms: O_6  and  C_26
REMARK    6  A    between atoms: O_7  and  C_29
REMARK    7  A    between atoms: O_8  and  C_35
REMARK    8  A    between atoms: O_9  and  C_36
REMARK    9  A    between atoms: O_10  and  C_39
REMARK   10  A    between atoms: O_11  and  C_40
REMARK   11  A    between atoms: O_12  and  C_41
REMARK   12  A    between atoms: O_13  and  C_43
REMARK   13  A    between atoms: C_14  and  C_20
REMARK   14  A    between atoms: C_17  and  C_24
REMARK                            x       y       z     vdW  Elec       q    Type
REMARK                         _______ _______ _______ _____ _____    ______ ____
ROOT
ATOM      1  O   UNL     1       4.428   7.900  60.593  0.00  0.00    +0.000 OA
ATOM      2  C   UNL     1       5.779   7.421  60.589  0.00  0.00    +0.000 C 
ATOM      3  C   UNL     1       6.716   8.373  61.393  0.00  0.00    +0.000 C 
ATOM      4  C   UNL     1       6.621   9.797  60.853  0.00  0.00    +0.000 C 
ATOM      5  C   UNL     1       5.193  10.219  60.680  0.00  0.00    +0.000 A 
ATOM      6  C   UNL     1       4.197   9.247  60.551  0.00  0.00    +0.000 A 
ATOM      7  C   UNL     1       4.815  11.568  60.599  0.00  0.00    +0.000 A 
ATOM      8  C   UNL     1       2.863   9.616  60.365  0.00  0.00    +0.000 A 
ATOM      9  C   UNL     1       3.491  11.946  60.394  0.00  0.00    +0.000 A 
ATOM     10  C   UNL     1       2.521  10.961  60.283  0.00  0.00    +0.000 A 
ENDROOT
BRANCH   2  11
ATOM     11  C   UNL     1       6.326   7.179  59.168  0.00  0.00    +0.000 A 
ATOM     12  C   UNL     1       7.606   6.612  58.977  0.00  0.00    +0.000 A 
ATOM     13  C   UNL     1       5.565   7.499  58.024  0.00  0.00    +0.000 A 
ATOM     14  C   UNL     1       8.092   6.394  57.691  0.00  0.00    +0.000 A 
ATOM     15  C   UNL     1       6.068   7.289  56.737  0.00  0.00    +0.000 A 
ATOM     16  C   UNL     1       7.330   6.745  56.583  0.00  0.00    +0.000 A 
BRANCH  14  17
ATOM     17  O   UNL     1       9.314   5.829  57.456  0.00  0.00    +0.000 OA
ATOM     18  H   UNL     1       9.266   5.268  56.656  0.00  0.00    +0.000 HD
ENDBRANCH  14  17
BRANCH  16  19
ATOM     19  O   UNL     1       7.820   6.536  55.326  0.00  0.00    +0.000 OA
ATOM     20  H   UNL     1       8.674   7.015  55.316  0.00  0.00    +0.000 HD
ENDBRANCH  16  19
ENDBRANCH   2  11
BRANCH   3  21
ATOM     21  O   UNL     1       6.384   8.397  62.810  0.00  0.00    +0.000 OA
ATOM     22  H   UNL     1       6.209   9.339  63.011  0.00  0.00    +0.000 HD
ENDBRANCH   3  21
BRANCH   4  23
ATOM     23  O   UNL     1       7.278  10.699  61.760  0.00  0.00    +0.000 OA
ATOM     24  H   UNL     1       6.745  10.639  62.584  0.00  0.00    +0.000 HD
ENDBRANCH   4  23
BRANCH   7  25
ATOM     25  O   UNL     1       5.729  12.579  60.737  0.00  0.00    +0.000 OA
ATOM     26  H   UNL     1       5.378  13.355  60.248  0.00  0.00    +0.000 HD
ENDBRANCH   7  25
BRANCH  10  27
ATOM     27  O   UNL     1       1.208  11.275  60.090  0.00  0.00    +0.000 OA
ATOM     28  H   UNL     1       0.712  10.450  59.956  0.00  0.00    +0.000 HD
ENDBRANCH  10  27
BRANCH   2  29
ATOM     29  O   UNL     1       5.826   6.186  61.359  0.00  0.00    +0.000 OA
BRANCH  29  31
ATOM     30  O   UNL     1       3.518   3.302  61.643  0.00  0.00    +0.000 OA
ATOM     31  C   UNL     1       4.569   5.542  61.642  0.00  0.00    +0.000 C 
ATOM     32  C   UNL     1       4.748   4.015  61.454  0.00  0.00    +0.000 C 
ATOM     33  C   UNL     1       4.123   5.779  63.088  0.00  0.00    +0.000 C 
ATOM     34  C   UNL     1       3.118   4.761  63.553  0.00  0.00    +0.000 A 
ATOM     35  C   UNL     1       2.874   3.600  62.814  0.00  0.00    +0.000 A 
ATOM     36  C   UNL     1       2.409   4.954  64.745  0.00  0.00    +0.000 A 
ATOM     37  C   UNL     1       1.912   2.676  63.229  0.00  0.00    +0.000 A 
ATOM     38  C   UNL     1       1.459   4.032  65.178  0.00  0.00    +0.000 A 
ATOM     39  C   UNL     1       1.215   2.901  64.410  0.00  0.00    +0.000 A 
BRANCH  32  40
ATOM     40  C   UNL     1       5.255   3.688  60.056  0.00  0.00    +0.000 A 
ATOM     41  C   UNL     1       4.498   4.013  58.919  0.00  0.00    +0.000 A 
ATOM     42  C   UNL     1       6.534   3.129  59.886  0.00  0.00    +0.000 A 
ATOM     43  C   UNL     1       5.037   3.824  57.648  0.00  0.00    +0.000 A 
ATOM     44  C   UNL     1       7.061   2.924  58.608  0.00  0.00    +0.000 A 
ATOM     45  C   UNL     1       6.313   3.289  57.493  0.00  0.00    +0.000 A 
BRANCH  43  46
ATOM     46  O   UNL     1       4.344   4.227  56.542  0.00  0.00    +0.000 OA
ATOM     47  H   UNL     1       3.514   3.725  56.487  0.00  0.00    +0.000 HD
ENDBRANCH  43  46
BRANCH  45  48
ATOM     48  O   UNL     1       6.833   3.156  56.237  0.00  0.00    +0.000 OA
ATOM     49  H   UNL     1       6.779   4.011  55.780  0.00  0.00    +0.000 HD
ENDBRANCH  45  48
ENDBRANCH  32  40
BRANCH  36  50
ATOM     50  O   UNL     1       2.663   6.076  65.483  0.00  0.00    +0.000 OA
ATOM     51  H   UNL     1       2.408   5.910  66.406  0.00  0.00    +0.000 HD
ENDBRANCH  36  50
BRANCH  39  52
ATOM     52  O   UNL     1       0.273   2.021  64.857  0.00  0.00    +0.000 OA
ATOM     53  H   UNL     1       0.452   1.147  64.469  0.00  0.00    +0.000 HD
ENDBRANCH  39  52
ENDBRANCH  29  31
ENDBRANCH   2  29
TORSDOF 14
ENDMDL
MODEL 5
REMARK VINA RESULT:      -4.4     13.003     15.568
REMARK  Name = 
REMARK  14 active torsions:
REMARK  status: ('A' for Active; 'I' for Inactive)
REMARK    1  A    between atoms: O_1  and  C_14
REMARK    2  A    between atoms: O_1  and  C_15
REMARK    3  A    between atoms: O_4  and  C_16
REMARK    4  A    between atoms: O_5  and  C_18
REMARK    5  A    between atoms: O_6  and  C_26
REMARK    6  A    between atoms: O_7  and  C_29
REMARK    7  A    between atoms: O_8  and  C_35
REMARK    8  A    between atoms: O_9  and  C_36
REMARK    9  A    between atoms: O_10  and  C_39
REMARK   10  A    between atoms: O_11  and  C_40
REMARK   11  A    between atoms: O_12  and  C_41
REMARK   12  A    between atoms: O_13  and  C_43
REMARK   13  A    between atoms: C_14  and  C_20
REMARK   14  A    between atoms: C_17  and  C_24
REMARK                            x       y       z     vdW  Elec       q    Type
REMARK                         _______ _______ _______ _____ _____    ______ ____
ROOT
ATOM      1  O   UNL     1      17.805   5.394  67.305  0.00  0.00    +0.000 OA
ATOM      2  C   UNL     1      18.575   6.075  68.306  0.00  0.00    +0.000 C 
ATOM      3  C   UNL     1      19.950   5.375  68.529  0.00  0.00    +0.000 C 
ATOM      4  C   UNL     1      19.750   3.903  68.876  0.00  0.00    +0.000 C 
ATOM      5  C   UNL     1      18.788   3.247  67.932  0.00  0.00    +0.000 A 
ATOM      6  C   UNL     1      17.876   4.032  67.221  0.00  0.00    +0.000 A 
ATOM      7  C   UNL     1      18.738   1.855  67.761  0.00  0.00    +0.000 A 
ATOM      8  C   UNL     1      16.955   3.441  66.352  0.00  0.00    +0.000 A 
ATOM      9  C   UNL     1      17.811   1.255  66.914  0.00  0.00    +0.000 A 
ATOM     10  C   UNL     1      16.926   2.059  66.210  0.00  0.00    +0.000 A 
ENDROOT
BRANCH   2  11
ATOM     11  C   UNL     1      17.816   6.240  69.637  0.00  0.00    +0.000 A 
ATOM     12  C   UNL     1      16.516   5.711  69.795  0.00  0.00    +0.000 A 
ATOM     13  C   UNL     1      18.399   6.907  70.736  0.00  0.00    +0.000 A 
ATOM     14  C   UNL     1      15.838   5.862  71.000  0.00  0.00    +0.000 A 
ATOM     15  C   UNL     1      17.704   7.065  71.939  0.00  0.00    +0.000 A 
ATOM     16  C   UNL     1      16.427   6.547  72.057  0.00  0.00    +0.000 A 
BRANCH  14  17
ATOM     17  O   UNL     1      14.588   5.350  71.207  0.00  0.00    +0.000 OA
ATOM     18  H   UNL     1      14.636   4.626  71.864  0.00  0.00    +0.000 HD
ENDBRANCH  14  17
BRANCH  16  19
ATOM     19  O   UNL     1      15.749   6.698  73.232  0.00  0.00    +0.000 OA
ATOM     20  H   UNL     1      14.868   7.030  72.964  0.00  0.00    +0.000 HD
ENDBRANCH  16  19
ENDBRANCH   2  11
BRANCH   3  21
ATOM     21  O   UNL     1      20.803   5.457  67.352  0.00  0.00    +0.000 OA
ATOM     22  H   UNL     1      20.746   6.391  67.066  0.00  0.00    +0.000 HD
ENDBRANCH   3  21
BRANCH   4  23
ATOM     23  O   UNL     1      21.015   3.221  68.820  0.00  0.00    +0.000 OA
ATOM     24  H   UNL     1      21.659   3.930  68.596  0.00  0.00    +0.000 HD
ENDBRANCH   4  23
BRANCH   7  25
ATOM     25  O   UNL     1      19.612   1.021  68.407  0.00  0.00    +0.000 OA
ATOM     26  H   UNL     1      20.054   1.551  69.106  0.00  0.00    +0.000 HD
ENDBRANCH   7  25
BRANCH  10  27
ATOM     27  O   UNL     1      16.003   1.524  65.359  0.00  0.00    +0.000 OA
ATOM     28  H   UNL     1      15.156   1.454  65.831  0.00  0.00    +0.000 HD
ENDBRANCH  10  27
BRANCH   2  29
ATOM     29  O   UNL     1      18.951   7.379  67.780  0.00  0.00    +0.000 OA
BRANCH  29  31
ATOM     30  O   UNL     1      17.152   9.816  65.646  0.00  0.00    +0.000 OA
ATOM     31  C   UNL     1      18.279   7.824  66.586  0.00  0.00    +0.000 C 
ATOM     32  C   UNL     1      17.896   9.314  66.765  0.00  0.00    +0.000 C 
ATOM     33  C   UNL     1      19.186   7.727  65.355  0.00  0.00    +0.000 C 
ATOM     34  C   UNL     1      18.720   8.607  64.228  0.00  0.00    +0.000 A 
ATOM     35  C   UNL     1      17.742   9.585  64.434  0.00  0.00    +0.000 A 
ATOM     36  C   UNL     1      19.264   8.468  62.945  0.00  0.00    +0.000 A 
ATOM     37  C   UNL     1      17.284  10.373  63.376  0.00  0.00    +0.000 A 
ATOM     38  C   UNL     1      18.828   9.260  61.885  0.00  0.00    +0.000 A 
ATOM     39  C   UNL     1      17.834  10.204  62.111  0.00  0.00    +0.000 A 
BRANCH  32  40
ATOM     40  C   UNL     1      17.042   9.517  68.010  0.00  0.00    +0.000 A 
ATOM     41  C   UNL     1      15.766   8.941  68.112  0.00  0.00    +0.000 A 
ATOM     42  C   UNL     1      17.563  10.219  69.112  0.00  0.00    +0.000 A 
ATOM     43  C   UNL     1      15.057   9.030  69.308  0.00  0.00    +0.000 A 
ATOM     44  C   UNL     1      16.839  10.321  70.302  0.00  0.00    +0.000 A 
ATOM     45  C   UNL     1      15.592   9.711  70.399  0.00  0.00    +0.000 A 
BRANCH  43  46
ATOM     46  O   UNL     1      13.857   8.391  69.444  0.00  0.00    +0.000 OA
ATOM     47  H   UNL     1      13.270   8.932  69.998  0.00  0.00    +0.000 HD
ENDBRANCH  43  46
BRANCH  45  48
ATOM     48  O   UNL     1      14.894   9.744  71.572  0.00  0.00    +0.000 OA
ATOM     49  H   UNL     1      15.391  10.267  72.222  0.00  0.00    +0.000 HD
ENDBRANCH  45  48
ENDBRANCH  32  40
BRANCH  36  50
ATOM     50  O   UNL     1      20.238   7.530  62.746  0.00  0.00    +0.000 OA
ATOM     51  H   UNL     1      21.033   7.970  62.400  0.00  0.00    +0.000 HD
ENDBRANCH  36  50
BRANCH  39  52
ATOM     52  O   UNL     1      17.423  10.958  61.050  0.00  0.00    +0.000 OA
ATOM     53  H   UNL     1      17.386  10.392  60.261  0.00  0.00    +0.000 HD
ENDBRANCH  39  52
ENDBRANCH  29  31
ENDBRANCH   2  29
TORSDOF 14
ENDMDL
MODEL 6
REMARK VINA RESULT:      -4.3      4.154      8.421
REMARK  Name = 
REMARK  14 active torsions:
REMARK  status: ('A' for Active; 'I' for Inactive)
REMARK    1  A    between atoms: O_1  and  C_14
REMARK    2  A    between atoms: O_1  and  C_15
REMARK    3  A    between atoms: O_4  and  C_16
REMARK    4  A    between atoms: O_5  and  C_18
REMARK    5  A    between atoms: O_6  and  C_26
REMARK    6  A    between atoms: O_7  and  C_29
REMARK    7  A    between atoms: O_8  and  C_35
REMARK    8  A    between atoms: O_9  and  C_36
REMARK    9  A    between atoms: O_10  and  C_39
REMARK   10  A    between atoms: O_11  and  C_40
REMARK   11  A    between atoms: O_12  and  C_41
REMARK   12  A    between atoms: O_13  and  C_43
REMARK   13  A    between atoms: C_14  and  C_20
REMARK   14  A    between atoms: C_17  and  C_24
REMARK                            x       y       z     vdW  Elec       q    Type
REMARK                         _______ _______ _______ _____ _____    ______ ____
ROOT
ATOM      1  O   UNL     1       1.624   6.420  66.489  0.00  0.00    +0.000 OA
ATOM      2  C   UNL     1       0.804   5.509  65.742  0.00  0.00    +0.000 C 
ATOM      3  C   UNL     1      -0.666   6.020  65.655  0.00  0.00    +0.000 C 
ATOM      4  C   UNL     1      -1.229   6.270  67.051  0.00  0.00    +0.000 C 
ATOM      5  C   UNL     1      -0.272   7.064  67.889  0.00  0.00    +0.000 A 
ATOM      6  C   UNL     1       1.086   7.076  67.560  0.00  0.00    +0.000 A 
ATOM      7  C   UNL     1      -0.685   7.771  69.029  0.00  0.00    +0.000 A 
ATOM      8  C   UNL     1       1.999   7.790  68.340  0.00  0.00    +0.000 A 
ATOM      9  C   UNL     1       0.221   8.468  69.824  0.00  0.00    +0.000 A 
ATOM     10  C   UNL     1       1.561   8.475  69.467  0.00  0.00    +0.000 A 
ENDROOT
BRANCH   2  11
ATOM     11  C   UNL     1       0.857   4.069  66.287  0.00  0.00    +0.000 A 
ATOM     12  C   UNL     1       1.816   3.701  67.258  0.00  0.00    +0.000 A 
ATOM     13  C   UNL     1      -0.052   3.083  65.848  0.00  0.00    +0.000 A 
ATOM     14  C   UNL     1       1.856   2.399  67.747  0.00  0.00    +0.000 A 
ATOM     15  C   UNL     1       0.006   1.774  66.335  0.00  0.00    +0.000 A 
ATOM     16  C   UNL     1       0.964   1.444  67.275  0.00  0.00    +0.000 A 
BRANCH  14  17
ATOM     17  O   UNL     1       2.750   2.002  68.701  0.00  0.00    +0.000 OA
ATOM     18  H   UNL     1       2.520   2.416  69.558  0.00  0.00    +0.000 HD
ENDBRANCH  14  17
BRANCH  16  19
ATOM     19  O   UNL     1       1.019   0.166  67.754  0.00  0.00    +0.000 OA
ATOM     20  H   UNL     1       0.275  -0.291  67.312  0.00  0.00    +0.000 HD
ENDBRANCH  16  19
ENDBRANCH   2  11
BRANCH   3  21
ATOM     21  O   UNL     1      -0.772   7.254  64.890  0.00  0.00    +0.000 OA
ATOM     22  H   UNL     1      -0.424   7.948  65.485  0.00  0.00    +0.000 HD
ENDBRANCH   3  21
BRANCH   4  23
ATOM     23  O   UNL     1      -2.474   6.980  66.945  0.00  0.00    +0.000 OA
ATOM     24  H   UNL     1      -3.103   6.443  67.477  0.00  0.00    +0.000 HD
ENDBRANCH   4  23
BRANCH   7  25
ATOM     25  O   UNL     1      -2.001   7.823  69.404  0.00  0.00    +0.000 OA
ATOM     26  H   UNL     1      -2.523   7.404  68.684  0.00  0.00    +0.000 HD
ENDBRANCH   7  25
BRANCH  10  27
ATOM     27  O   UNL     1       2.490   9.150  70.204  0.00  0.00    +0.000 OA
ATOM     28  H   UNL     1       3.356   9.046  69.776  0.00  0.00    +0.000 HD
ENDBRANCH  10  27
BRANCH   2  29
ATOM     29  O   UNL     1       1.244   5.535  64.355  0.00  0.00    +0.000 OA
BRANCH  29  31
ATOM     30  O   UNL     1       4.542   5.322  62.678  0.00  0.00    +0.000 OA
ATOM     31  C   UNL     1       2.612   5.916  64.108  0.00  0.00    +0.000 C 
ATOM     32  C   UNL     1       3.156   5.057  62.939  0.00  0.00    +0.000 C 
ATOM     33  C   UNL     1       2.724   7.386  63.689  0.00  0.00    +0.000 C 
ATOM     34  C   UNL     1       4.011   7.681  62.970  0.00  0.00    +0.000 A 
ATOM     35  C   UNL     1       4.836   6.648  62.515  0.00  0.00    +0.000 A 
ATOM     36  C   UNL     1       4.408   9.003  62.735  0.00  0.00    +0.000 A 
ATOM     37  C   UNL     1       6.050   6.927  61.882  0.00  0.00    +0.000 A 
ATOM     38  C   UNL     1       5.608   9.294  62.090  0.00  0.00    +0.000 A 
ATOM     39  C   UNL     1       6.423   8.249  61.674  0.00  0.00    +0.000 A 
BRANCH  32  40
ATOM     40  C   UNL     1       3.024   3.570  63.242  0.00  0.00    +0.000 A 
ATOM     41  C   UNL     1       3.834   2.956  64.210  0.00  0.00    +0.000 A 
ATOM     42  C   UNL     1       2.023   2.812  62.609  0.00  0.00    +0.000 A 
ATOM     43  C   UNL     1       3.609   1.627  64.563  0.00  0.00    +0.000 A 
ATOM     44  C   UNL     1       1.815   1.474  62.954  0.00  0.00    +0.000 A 
ATOM     45  C   UNL     1       2.601   0.891  63.943  0.00  0.00    +0.000 A 
BRANCH  43  46
ATOM     46  O   UNL     1       4.330   1.052  65.570  0.00  0.00    +0.000 OA
ATOM     47  H   UNL     1       5.190   0.762  65.221  0.00  0.00    +0.000 HD
ENDBRANCH  43  46
BRANCH  45  48
ATOM     48  O   UNL     1       2.373  -0.395  64.340  0.00  0.00    +0.000 OA
ATOM     49  H   UNL     1       2.100  -0.396  65.272  0.00  0.00    +0.000 HD
ENDBRANCH  45  48
ENDBRANCH  32  40
BRANCH  36  50
ATOM     50  O   UNL     1       3.592  10.016  63.156  0.00  0.00    +0.000 OA
ATOM     51  H   UNL     1       2.805   9.631  63.577  0.00  0.00    +0.000 HD
ENDBRANCH  36  50
BRANCH  39  52
ATOM     52  O   UNL     1       7.595   8.567  61.053  0.00  0.00    +0.000 OA
ATOM     53  H   UNL     1       7.874   7.812  60.507  0.00  0.00    +0.000 HD
ENDBRANCH  39  52
ENDBRANCH  29  31
ENDBRANCH   2  29
TORSDOF 14
ENDMDL
MODEL 7
REMARK VINA RESULT:      -4.2      7.665     11.598
REMARK  Name = 
REMARK  14 active torsions:
REMARK  status: ('A' for Active; 'I' for Inactive)
REMARK    1  A    between atoms: O_1  and  C_14
REMARK    2  A    between atoms: O_1  and  C_15
REMARK    3  A    between atoms: O_4  and  C_16
REMARK    4  A    between atoms: O_5  and  C_18
REMARK    5  A    between atoms: O_6  and  C_26
REMARK    6  A    between atoms: O_7  and  C_29
REMARK    7  A    between atoms: O_8  and  C_35
REMARK    8  A    between atoms: O_9  and  C_36
REMARK    9  A    between atoms: O_10  and  C_39
REMARK   10  A    between atoms: O_11  and  C_40
REMARK   11  A    between atoms: O_12  and  C_41
REMARK   12  A    between atoms: O_13  and  C_43
REMARK   13  A    between atoms: C_14  and  C_20
REMARK   14  A    between atoms: C_17  and  C_24
REMARK                            x       y       z     vdW  Elec       q    Type
REMARK                         _______ _______ _______ _____ _____    ______ ____
ROOT
ATOM      1  O   UNL     1      14.068  12.614  59.746  0.00  0.00    +0.000 OA
ATOM      2  C   UNL     1      13.281  13.746  60.142  0.00  0.00    +0.000 C 
ATOM      3  C   UNL     1      14.136  14.769  60.950  0.00  0.00    +0.000 C 
ATOM      4  C   UNL     1      14.789  14.090  62.149  0.00  0.00    +0.000 C 
ATOM      5  C   UNL     1      15.448  12.802  61.754  0.00  0.00    +0.000 A 
ATOM      6  C   UNL     1      15.037  12.147  60.590  0.00  0.00    +0.000 A 
ATOM      7  C   UNL     1      16.444  12.199  62.537  0.00  0.00    +0.000 A 
ATOM      8  C   UNL     1      15.619  10.935  60.213  0.00  0.00    +0.000 A 
ATOM      9  C   UNL     1      17.016  10.981  62.181  0.00  0.00    +0.000 A 
ATOM     10  C   UNL     1      16.599  10.359  61.013  0.00  0.00    +0.000 A 
ENDROOT
BRANCH   2  11
ATOM     11  C   UNL     1      12.010  13.352  60.920  0.00  0.00    +0.000 A 
ATOM     12  C   UNL     1      11.291  12.185  60.579  0.00  0.00    +0.000 A 
ATOM     13  C   UNL     1      11.538  14.130  61.998  0.00  0.00    +0.000 A 
ATOM     14  C   UNL     1      10.146  11.834  61.287  0.00  0.00    +0.000 A 
ATOM     15  C   UNL     1      10.379  13.777  62.694  0.00  0.00    +0.000 A 
ATOM     16  C   UNL     1       9.690  12.636  62.328  0.00  0.00    +0.000 A 
BRANCH  14  17
ATOM     17  O   UNL     1       9.429  10.705  61.009  0.00  0.00    +0.000 OA
ATOM     18  H   UNL     1       8.817  10.515  61.748  0.00  0.00    +0.000 HD
ENDBRANCH  14  17
BRANCH  16  19
ATOM     19  O   UNL     1       8.560  12.288  63.010  0.00  0.00    +0.000 OA
ATOM     20  H   UNL     1       8.459  12.988  63.687  0.00  0.00    +0.000 HD
ENDBRANCH  16  19
ENDBRANCH   2  11
BRANCH   3  21
ATOM     21  O   UNL     1      15.183  15.370  60.136  0.00  0.00    +0.000 OA
ATOM     22  H   UNL     1      15.164  14.870  59.294  0.00  0.00    +0.000 HD
ENDBRANCH   3  21
BRANCH   4  23
ATOM     23  O   UNL     1      15.771  14.971  62.723  0.00  0.00    +0.000 OA
ATOM     24  H   UNL     1      15.786  14.725  63.675  0.00  0.00    +0.000 HD
ENDBRANCH   4  23
BRANCH   7  25
ATOM     25  O   UNL     1      16.914  12.790  63.679  0.00  0.00    +0.000 OA
ATOM     26  H   UNL     1      16.133  13.118  64.177  0.00  0.00    +0.000 HD
ENDBRANCH   7  25
BRANCH  10  27
ATOM     27  O   UNL     1      17.132   9.169  60.612  0.00  0.00    +0.000 OA
ATOM     28  H   UNL     1      18.101   9.252  60.609  0.00  0.00    +0.000 HD
ENDBRANCH  10  27
BRANCH   2  29
ATOM     29  O   UNL     1      12.922  14.491  58.944  0.00  0.00    +0.000 OA
BRANCH  29  31
ATOM     30  O   UNL     1      11.518  13.559  55.644  0.00  0.00    +0.000 OA
ATOM     31  C   UNL     1      12.872  13.756  57.705  0.00  0.00    +0.000 C 
ATOM     32  C   UNL     1      11.685  14.292  56.865  0.00  0.00    +0.000 C 
ATOM     33  C   UNL     1      14.146  13.951  56.878  0.00  0.00    +0.000 C 
ATOM     34  C   UNL     1      13.943  13.625  55.424  0.00  0.00    +0.000 A 
ATOM     35  C   UNL     1      12.660  13.447  54.899  0.00  0.00    +0.000 A 
ATOM     36  C   UNL     1      15.039  13.498  54.563  0.00  0.00    +0.000 A 
ATOM     37  C   UNL     1      12.477  13.105  53.556  0.00  0.00    +0.000 A 
ATOM     38  C   UNL     1      14.869  13.174  53.219  0.00  0.00    +0.000 A 
ATOM     39  C   UNL     1      13.585  12.974  52.728  0.00  0.00    +0.000 A 
BRANCH  32  40
ATOM     40  C   UNL     1      10.377  14.197  57.639  0.00  0.00    +0.000 A 
ATOM     41  C   UNL     1       9.600  13.029  57.603  0.00  0.00    +0.000 A 
ATOM     42  C   UNL     1       9.975  15.258  58.470  0.00  0.00    +0.000 A 
ATOM     43  C   UNL     1       8.476  12.916  58.418  0.00  0.00    +0.000 A 
ATOM     44  C   UNL     1       8.836  15.146  59.271  0.00  0.00    +0.000 A 
ATOM     45  C   UNL     1       8.099  13.966  59.253  0.00  0.00    +0.000 A 
BRANCH  43  46
ATOM     46  O   UNL     1       7.770  11.747  58.458  0.00  0.00    +0.000 OA
ATOM     47  H   UNL     1       7.451  11.538  57.565  0.00  0.00    +0.000 HD
ENDBRANCH  43  46
BRANCH  45  48
ATOM     48  O   UNL     1       7.019  13.811  60.074  0.00  0.00    +0.000 OA
ATOM     49  H   UNL     1       7.326  13.746  60.993  0.00  0.00    +0.000 HD
ENDBRANCH  45  48
ENDBRANCH  32  40
BRANCH  36  50
ATOM     50  O   UNL     1      16.294  13.696  55.068  0.00  0.00    +0.000 OA
ATOM     51  H   UNL     1      16.449  13.058  55.784  0.00  0.00    +0.000 HD
ENDBRANCH  36  50
BRANCH  39  52
ATOM     52  O   UNL     1      13.453  12.650  51.410  0.00  0.00    +0.000 OA
ATOM     53  H   UNL     1      12.607  12.187  51.286  0.00  0.00    +0.000 HD
ENDBRANCH  39  52
ENDBRANCH  29  31
ENDBRANCH   2  29
TORSDOF 14
ENDMDL
MODEL 8
REMARK VINA RESULT:      -4.1     12.440     14.835
REMARK  Name = 
REMARK  14 active torsions:
REMARK  status: ('A' for Active; 'I' for Inactive)
REMARK    1  A    between atoms: O_1  and  C_14
REMARK    2  A    between atoms: O_1  and  C_15
REMARK    3  A    between atoms: O_4  and  C_16
REMARK    4  A    between atoms: O_5  and  C_18
REMARK    5  A    between atoms: O_6  and  C_26
REMARK    6  A    between atoms: O_7  and  C_29
REMARK    7  A    between atoms: O_8  and  C_35
REMARK    8  A    between atoms: O_9  and  C_36
REMARK    9  A    between atoms: O_10  and  C_39
REMARK   10  A    between atoms: O_11  and  C_40
REMARK   11  A    between atoms: O_12  and  C_41
REMARK   12  A    between atoms: O_13  and  C_43
REMARK   13  A    between atoms: C_14  and  C_20
REMARK   14  A    between atoms: C_17  and  C_24
REMARK                            x       y       z     vdW  Elec       q    Type
REMARK                         _______ _______ _______ _____ _____    ______ ____
ROOT
ATOM      1  O   UNL     1      11.636  10.426  72.379  0.00  0.00    +0.000 OA
ATOM      2  C   UNL     1      12.906  11.043  72.632  0.00  0.00    +0.000 C 
ATOM      3  C   UNL     1      12.829  12.006  73.855  0.00  0.00    +0.000 C 
ATOM      4  C   UNL     1      11.730  13.044  73.650  0.00  0.00    +0.000 C 
ATOM      5  C   UNL     1      10.453  12.402  73.197  0.00  0.00    +0.000 A 
ATOM      6  C   UNL     1      10.493  11.147  72.584  0.00  0.00    +0.000 A 
ATOM      7  C   UNL     1       9.209  13.037  73.328  0.00  0.00    +0.000 A 
ATOM      8  C   UNL     1       9.318  10.539  72.133  0.00  0.00    +0.000 A 
ATOM      9  C   UNL     1       8.036  12.449  72.863  0.00  0.00    +0.000 A 
ATOM     10  C   UNL     1       8.101  11.196  72.271  0.00  0.00    +0.000 A 
ENDROOT
BRANCH   2  11
ATOM     11  C   UNL     1      13.481  11.763  71.397  0.00  0.00    +0.000 A 
ATOM     12  C   UNL     1      14.742  12.397  71.455  0.00  0.00    +0.000 A 
ATOM     13  C   UNL     1      12.777  11.799  70.174  0.00  0.00    +0.000 A 
ATOM     14  C   UNL     1      15.255  13.044  70.335  0.00  0.00    +0.000 A 
ATOM     15  C   UNL     1      13.295  12.464  69.059  0.00  0.00    +0.000 A 
ATOM     16  C   UNL     1      14.526  13.085  69.153  0.00  0.00    +0.000 A 
BRANCH  14  17
ATOM     17  O   UNL     1      16.479  13.652  70.337  0.00  0.00    +0.000 OA
ATOM     18  H   UNL     1      17.152  13.034  69.988  0.00  0.00    +0.000 HD
ENDBRANCH  14  17
BRANCH  16  19
ATOM     19  O   UNL     1      15.035  13.731  68.062  0.00  0.00    +0.000 OA
ATOM     20  H   UNL     1      15.827  14.195  68.402  0.00  0.00    +0.000 HD
ENDBRANCH  16  19
ENDBRANCH   2  11
BRANCH   3  21
ATOM     21  O   UNL     1      12.561  11.293  75.096  0.00  0.00    +0.000 OA
ATOM     22  H   UNL     1      12.946  10.403  74.962  0.00  0.00    +0.000 HD
ENDBRANCH   3  21
BRANCH   4  23
ATOM     23  O   UNL     1      11.500  13.748  74.882  0.00  0.00    +0.000 OA
ATOM     24  H   UNL     1      12.382  14.111  75.119  0.00  0.00    +0.000 HD
ENDBRANCH   4  23
BRANCH   7  25
ATOM     25  O   UNL     1       9.087  14.258  73.936  0.00  0.00    +0.000 OA
ATOM     26  H   UNL     1       8.166  14.321  74.274  0.00  0.00    +0.000 HD
ENDBRANCH   7  25
BRANCH  10  27
ATOM     27  O   UNL     1       6.982  10.570  71.806  0.00  0.00    +0.000 OA
ATOM     28  H   UNL     1       6.323  10.548  72.521  0.00  0.00    +0.000 HD
ENDBRANCH  10  27
BRANCH   2  29
ATOM     29  O   UNL     1      13.830  10.012  73.083  0.00  0.00    +0.000 OA
BRANCH  29  31
ATOM     30  O   UNL     1      14.326   6.481  72.075  0.00  0.00    +0.000 OA
ATOM     31  C   UNL     1      13.431   8.641  72.882  0.00  0.00    +0.000 C 
ATOM     32  C   UNL     1      14.658   7.844  72.374  0.00  0.00    +0.000 C 
ATOM     33  C   UNL     1      12.968   7.988  74.188  0.00  0.00    +0.000 C 
ATOM     34  C   UNL     1      13.016   6.487  74.128  0.00  0.00    +0.000 A 
ATOM     35  C   UNL     1      13.680   5.828  73.089  0.00  0.00    +0.000 A 
ATOM     36  C   UNL     1      12.399   5.714  75.120  0.00  0.00    +0.000 A 
ATOM     37  C   UNL     1      13.689   4.433  73.015  0.00  0.00    +0.000 A 
ATOM     38  C   UNL     1      12.415   4.322  75.067  0.00  0.00    +0.000 A 
ATOM     39  C   UNL     1      13.057   3.693  74.008  0.00  0.00    +0.000 A 
BRANCH  32  40
ATOM     40  C   UNL     1      15.229   8.464  71.105  0.00  0.00    +0.000 A 
ATOM     41  C   UNL     1      14.481   8.498  69.918  0.00  0.00    +0.000 A 
ATOM     42  C   UNL     1      16.490   9.087  71.135  0.00  0.00    +0.000 A 
ATOM     43  C   UNL     1      14.970   9.184  68.808  0.00  0.00    +0.000 A 
ATOM     44  C   UNL     1      16.983   9.757  70.012  0.00  0.00    +0.000 A 
ATOM     45  C   UNL     1      16.211   9.815  68.856  0.00  0.00    +0.000 A 
BRANCH  43  46
ATOM     46  O   UNL     1      14.206   9.302  67.682  0.00  0.00    +0.000 OA
ATOM     47  H   UNL     1      13.708  10.135  67.722  0.00  0.00    +0.000 HD
ENDBRANCH  43  46
BRANCH  45  48
ATOM     48  O   UNL     1      16.646  10.517  67.768  0.00  0.00    +0.000 OA
ATOM     49  H   UNL     1      15.879  10.898  67.310  0.00  0.00    +0.000 HD
ENDBRANCH  45  48
ENDBRANCH  32  40
BRANCH  36  50
ATOM     50  O   UNL     1      11.770   6.355  76.151  0.00  0.00    +0.000 OA
ATOM     51  H   UNL     1      10.841   6.070  76.179  0.00  0.00    +0.000 HD
ENDBRANCH  36  50
BRANCH  39  52
ATOM     52  O   UNL     1      13.049   2.329  73.981  0.00  0.00    +0.000 OA
ATOM     53  H   UNL     1      13.663   2.000  74.659  0.00  0.00    +0.000 HD
ENDBRANCH  39  52
ENDBRANCH  29  31
ENDBRANCH   2  29
TORSDOF 14
ENDMDL
MODEL 9
REMARK VINA RESULT:      -4.0      4.595      9.429
REMARK  Name = 
REMARK  14 active torsions:
REMARK  status: ('A' for Active; 'I' for Inactive)
REMARK    1  A    between atoms: O_1  and  C_14
REMARK    2  A    between atoms: O_1  and  C_15
REMARK    3  A    between atoms: O_4  and  C_16
REMARK    4  A    between atoms: O_5  and  C_18
REMARK    5  A    between atoms: O_6  and  C_26
REMARK    6  A    between atoms: O_7  and  C_29
REMARK    7  A    between atoms: O_8  and  C_35
REMARK    8  A    between atoms: O_9  and  C_36
REMARK    9  A    between atoms: O_10  and  C_39
REMARK   10  A    between atoms: O_11  and  C_40
REMARK   11  A    between atoms: O_12  and  C_41
REMARK   12  A    between atoms: O_13  and  C_43
REMARK   13  A    between atoms: C_14  and  C_20
REMARK   14  A    between atoms: C_17  and  C_24
REMARK                            x       y       z     vdW  Elec       q    Type
REMARK                         _______ _______ _______ _____ _____    ______ ____
ROOT
ATOM      1  O   UNL     1       1.706   8.360  68.020  0.00  0.00    +0.000 OA
ATOM      2  C   UNL     1       0.431   8.533  67.386  0.00  0.00    +0.000 C 
ATOM      3  C   UNL     1      -0.355   9.720  68.021  0.00  0.00    +0.000 C 
ATOM      4  C   UNL     1      -0.497   9.521  69.527  0.00  0.00    +0.000 C 
ATOM      5  C   UNL     1       0.814   9.149  70.153  0.00  0.00    +0.000 A 
ATOM      6  C   UNL     1       1.819   8.585  69.363  0.00  0.00    +0.000 A 
ATOM      7  C   UNL     1       1.060   9.308  71.525  0.00  0.00    +0.000 A 
ATOM      8  C   UNL     1       3.040   8.209  69.928  0.00  0.00    +0.000 A 
ATOM      9  C   UNL     1       2.265   8.917  72.102  0.00  0.00    +0.000 A 
ATOM     10  C   UNL     1       3.251   8.373  71.292  0.00  0.00    +0.000 A 
ENDROOT
BRANCH   2  11
ATOM     11  C   UNL     1      -0.418   7.248  67.382  0.00  0.00    +0.000 A 
ATOM     12  C   UNL     1       0.064   6.065  67.985  0.00  0.00    +0.000 A 
ATOM     13  C   UNL     1      -1.701   7.216  66.794  0.00  0.00    +0.000 A 
ATOM     14  C   UNL     1      -0.709   4.908  67.980  0.00  0.00    +0.000 A 
ATOM     15  C   UNL     1      -2.464   6.045  66.781  0.00  0.00    +0.000 A 
ATOM     16  C   UNL     1      -1.957   4.900  67.369  0.00  0.00    +0.000 A 
BRANCH  14  17
ATOM     17  O   UNL     1      -0.294   3.747  68.568  0.00  0.00    +0.000 OA
ATOM     18  H   UNL     1      -0.513   2.990  67.988  0.00  0.00    +0.000 HD
ENDBRANCH  14  17
BRANCH  16  19
ATOM     19  O   UNL     1      -2.704   3.757  67.361  0.00  0.00    +0.000 OA
ATOM     20  H   UNL     1      -2.814   3.545  66.411  0.00  0.00    +0.000 HD
ENDBRANCH  16  19
ENDBRANCH   2  11
BRANCH   3  21
ATOM     21  O   UNL     1       0.301  10.998  67.787  0.00  0.00    +0.000 OA
ATOM     22  H   UNL     1      -0.394  11.571  67.404  0.00  0.00    +0.000 HD
ENDBRANCH   3  21
BRANCH   4  23
ATOM     23  O   UNL     1      -0.985  10.734  70.127  0.00  0.00    +0.000 OA
ATOM     24  H   UNL     1      -1.921  10.787  69.831  0.00  0.00    +0.000 HD
ENDBRANCH   4  23
BRANCH   7  25
ATOM     25  O   UNL     1       0.133   9.872  72.360  0.00  0.00    +0.000 OA
ATOM     26  H   UNL     1       0.459  10.770  72.590  0.00  0.00    +0.000 HD
ENDBRANCH   7  25
BRANCH  10  27
ATOM     27  O   UNL     1       4.455   7.981  71.803  0.00  0.00    +0.000 OA
ATOM     28  H   UNL     1       5.110   8.672  71.608  0.00  0.00    +0.000 HD
ENDBRANCH  10  27
BRANCH   2  29
ATOM     29  O   UNL     1       0.660   8.985  66.021  0.00  0.00    +0.000 OA
BRANCH  29  31
ATOM     30  O   UNL     1       3.337   7.967  63.669  0.00  0.00    +0.000 OA
ATOM     31  C   UNL     1       2.013   8.923  65.528  0.00  0.00    +0.000 C 
ATOM     32  C   UNL     1       2.012   8.141  64.191  0.00  0.00    +0.000 C 
ATOM     33  C   UNL     1       2.578  10.319  65.245  0.00  0.00    +0.000 C 
ATOM     34  C   UNL     1       3.749  10.283  64.302  0.00  0.00    +0.000 A 
ATOM     35  C   UNL     1       4.059   9.126  63.581  0.00  0.00    +0.000 A 
ATOM     36  C   UNL     1       4.552  11.416  64.122  0.00  0.00    +0.000 A 
ATOM     37  C   UNL     1       5.170   9.086  62.736  0.00  0.00    +0.000 A 
ATOM     38  C   UNL     1       5.653  11.394  63.269  0.00  0.00    +0.000 A 
ATOM     39  C   UNL     1       5.956  10.222  62.587  0.00  0.00    +0.000 A 
BRANCH  32  40
ATOM     40  C   UNL     1       1.404   6.756  64.364  0.00  0.00    +0.000 A 
ATOM     41  C   UNL     1       0.158   6.438  63.801  0.00  0.00    +0.000 A 
ATOM     42  C   UNL     1       2.129   5.749  65.026  0.00  0.00    +0.000 A 
ATOM     43  C   UNL     1      -0.320   5.131  63.861  0.00  0.00    +0.000 A 
ATOM     44  C   UNL     1       1.636   4.444  65.100  0.00  0.00    +0.000 A 
ATOM     45  C   UNL     1       0.418   4.137  64.501  0.00  0.00    +0.000 A 
BRANCH  43  46
ATOM     46  O   UNL     1      -1.485   4.795  63.233  0.00  0.00    +0.000 OA
ATOM     47  H   UNL     1      -1.361   4.871  62.272  0.00  0.00    +0.000 HD
ENDBRANCH  43  46
BRANCH  45  48
ATOM     48  O   UNL     1      -0.053   2.855  64.506  0.00  0.00    +0.000 OA
ATOM     49  H   UNL     1       0.697   2.241  64.447  0.00  0.00    +0.000 HD
ENDBRANCH  45  48
ENDBRANCH  32  40
BRANCH  36  50
ATOM     50  O   UNL     1       4.236  12.557  64.806  0.00  0.00    +0.000 OA
ATOM     51  H   UNL     1       3.348  12.849  64.539  0.00  0.00    +0.000 HD
ENDBRANCH  36  50
BRANCH  39  52
ATOM     52  O   UNL     1       7.046  10.230  61.766  0.00  0.00    +0.000 OA
ATOM     53  H   UNL     1       6.795   9.840  60.911  0.00  0.00    +0.000 HD
ENDBRANCH  39  52
ENDBRANCH  29  31
ENDBRANCH   2  29
TORSDOF 14
ENDMDL
