MODEL 1
REMARK VINA RESULT:      -4.8      0.000      0.000
REMARK  Name = Progesterone.pdbqt.pdb
REMARK  1 active torsions:
REMARK  status: ('A' for Active; 'I' for Inactive)
REMARK    1  A    between atoms: C_7  and  C_21
REMARK                            x       y       z     vdW  Elec       q    Type
REMARK                         _______ _______ _______ _____ _____    ______ ____
ROOT
ATOM      1  O   UNL     1       8.425  -1.718  69.310  0.00  0.00    +0.000 OA
ATOM      2  C   UNL     1      10.795   1.556  75.813  0.00  0.00    +0.000 C 
ATOM      3  C   UNL     1       9.763   1.954  77.002  0.00  0.00    +0.000 C 
ATOM      4  C   UNL     1      10.520   0.464  74.858  0.00  0.00    +0.000 C 
ATOM      5  C   UNL     1       9.201  -0.231  74.665  0.00  0.00    +0.000 C 
ATOM      6  C   UNL     1       8.995  -1.449  73.737  0.00  0.00    +0.000 C 
ATOM      7  C   UNL     1       9.780   3.454  76.972  0.00  0.00    +0.000 C 
ATOM      8  C   UNL     1       8.500   1.337  76.597  0.00  0.00    +0.000 C 
ATOM      9  C   UNL     1       8.213   0.304  75.536  0.00  0.00    +0.000 C 
ATOM     10  C   UNL     1      11.411   2.767  75.364  0.00  0.00    +0.000 C 
ATOM     11  C   UNL     1      11.488   0.060  73.910  0.00  0.00    +0.000 C 
ATOM     12  C   UNL     1      10.763   3.933  76.060  0.00  0.00    +0.000 C 
ATOM     13  C   UNL     1      10.140  -1.631  72.553  0.00  0.00    +0.000 C 
ATOM     14  C   UNL     1      10.365   1.399  78.314  0.00  0.00    +0.000 C 
ATOM     15  C   UNL     1      11.349  -0.933  72.796  0.00  0.00    +0.000 C 
ATOM     16  C   UNL     1       7.727  -1.296  72.949  0.00  0.00    +0.000 C 
ATOM     17  C   UNL     1       8.999  -2.755  74.576  0.00  0.00    +0.000 C 
ATOM     18  C   UNL     1       7.411  -1.394  71.440  0.00  0.00    +0.000 C 
ATOM     19  C   UNL     1       9.724  -1.729  71.308  0.00  0.00    +0.000 C 
ATOM     20  C   UNL     1       8.503  -1.645  70.521  0.00  0.00    +0.000 C 
ENDROOT
BRANCH   7  21
ATOM     21  C   UNL     1       8.940   4.286  77.797  0.00  0.00    +0.000 C 
ATOM     22  O   UNL     1       9.209   4.658  78.927  0.00  0.00    +0.000 OA
ATOM     23  C   UNL     1       7.654   4.890  77.336  0.00  0.00    +0.000 C 
ENDBRANCH   7  21
TORSDOF 1
ENDMDL
MODEL 2
REMARK VINA RESULT:      -4.7      2.377      6.538
REMARK  Name = Progesterone.pdbqt.pdb
REMARK  1 active torsions:
REMARK  status: ('A' for Active; 'I' for Inactive)
REMARK    1  A    between atoms: C_7  and  C_21
REMARK                            x       y       z     vdW  Elec       q    Type
REMARK                         _______ _______ _______ _____ _____    ______ ____
ROOT
ATOM      1  O   UNL     1       4.732   5.280  76.897  0.00  0.00    +0.000 OA
ATOM      2  C   UNL     1      10.102   0.074  75.262  0.00  0.00    +0.000 C 
ATOM      3  C   UNL     1      11.604   0.499  74.812  0.00  0.00    +0.000 C 
ATOM      4  C   UNL     1       9.254   0.939  76.107  0.00  0.00    +0.000 C 
ATOM      5  C   UNL     1       9.514   2.382  76.438  0.00  0.00    +0.000 C 
ATOM      6  C   UNL     1       8.660   3.209  77.423  0.00  0.00    +0.000 C 
ATOM      7  C   UNL     1      11.650   0.087  73.371  0.00  0.00    +0.000 C 
ATOM      8  C   UNL     1      11.651   1.942  75.050  0.00  0.00    +0.000 C 
ATOM      9  C   UNL     1      10.712   2.836  75.820  0.00  0.00    +0.000 C 
ATOM     10  C   UNL     1       9.527  -0.660  74.177  0.00  0.00    +0.000 C 
ATOM     11  C   UNL     1       8.000   0.492  76.583  0.00  0.00    +0.000 C 
ATOM     12  C   UNL     1      10.472  -0.624  73.006  0.00  0.00    +0.000 C 
ATOM     13  C   UNL     1       7.134   2.623  77.692  0.00  0.00    +0.000 C 
ATOM     14  C   UNL     1      12.576  -0.334  75.680  0.00  0.00    +0.000 C 
ATOM     15  C   UNL     1       6.960   1.261  77.341  0.00  0.00    +0.000 C 
ATOM     16  C   UNL     1       8.394   4.576  76.863  0.00  0.00    +0.000 C 
ATOM     17  C   UNL     1       9.368   3.279  78.802  0.00  0.00    +0.000 C 
ATOM     18  C   UNL     1       7.099   5.394  76.662  0.00  0.00    +0.000 C 
ATOM     19  C   UNL     1       6.120   3.441  77.506  0.00  0.00    +0.000 C 
ATOM     20  C   UNL     1       5.834   4.784  77.024  0.00  0.00    +0.000 C 
ENDROOT
BRANCH   7  21
ATOM     21  C   UNL     1      12.768   0.342  72.495  0.00  0.00    +0.000 C 
ATOM     22  O   UNL     1      13.889   0.657  72.858  0.00  0.00    +0.000 OA
ATOM     23  C   UNL     1      12.724   0.161  71.014  0.00  0.00    +0.000 C 
ENDBRANCH   7  21
TORSDOF 1
ENDMDL
MODEL 3
REMARK VINA RESULT:      -4.4      2.301      4.256
REMARK  Name = Progesterone.pdbqt.pdb
REMARK  1 active torsions:
REMARK  status: ('A' for Active; 'I' for Inactive)
REMARK    1  A    between atoms: C_7  and  C_21
REMARK                            x       y       z     vdW  Elec       q    Type
REMARK                         _______ _______ _______ _____ _____    ______ ____
ROOT
ATOM      1  O   UNL     1      10.261  -1.019  72.768  0.00  0.00    +0.000 OA
ATOM      2  C   UNL     1       7.859   4.495  77.505  0.00  0.00    +0.000 C 
ATOM      3  C   UNL     1       6.429   4.410  78.271  0.00  0.00    +0.000 C 
ATOM      4  C   UNL     1       8.602   3.293  77.079  0.00  0.00    +0.000 C 
ATOM      5  C   UNL     1       8.064   1.890  77.034  0.00  0.00    +0.000 C 
ATOM      6  C   UNL     1       8.919   0.648  76.694  0.00  0.00    +0.000 C 
ATOM      7  C   UNL     1       5.630   5.492  77.609  0.00  0.00    +0.000 C 
ATOM      8  C   UNL     1       5.968   3.046  78.010  0.00  0.00    +0.000 C 
ATOM      9  C   UNL     1       6.709   1.852  77.463  0.00  0.00    +0.000 C 
ATOM     10  C   UNL     1       7.821   5.654  76.666  0.00  0.00    +0.000 C 
ATOM     11  C   UNL     1       9.899   3.393  76.524  0.00  0.00    +0.000 C 
ATOM     12  C   UNL     1       6.439   6.247  76.712  0.00  0.00    +0.000 C 
ATOM     13  C   UNL     1      10.312   0.964  75.855  0.00  0.00    +0.000 C 
ATOM     14  C   UNL     1       6.706   4.728  79.759  0.00  0.00    +0.000 C 
ATOM     15  C   UNL     1      10.748   2.310  75.929  0.00  0.00    +0.000 C 
ATOM     16  C   UNL     1       8.171  -0.260  75.762  0.00  0.00    +0.000 C 
ATOM     17  C   UNL     1       9.331  -0.079  78.001  0.00  0.00    +0.000 C 
ATOM     18  C   UNL     1       8.541  -0.912  74.411  0.00  0.00    +0.000 C 
ATOM     19  C   UNL     1      10.511   0.313  74.728  0.00  0.00    +0.000 C 
ATOM     20  C   UNL     1       9.836  -0.614  73.832  0.00  0.00    +0.000 C 
ENDROOT
BRANCH   7  21
ATOM     21  C   UNL     1       4.239   5.753  77.888  0.00  0.00    +0.000 C 
ATOM     22  O   UNL     1       3.824   6.528  78.733  0.00  0.00    +0.000 OA
ATOM     23  C   UNL     1       3.108   5.171  77.105  0.00  0.00    +0.000 C 
ENDBRANCH   7  21
TORSDOF 1
ENDMDL
MODEL 4
REMARK VINA RESULT:      -4.4      3.542      4.832
REMARK  Name = Progesterone.pdbqt.pdb
REMARK  1 active torsions:
REMARK  status: ('A' for Active; 'I' for Inactive)
REMARK    1  A    between atoms: C_7  and  C_21
REMARK                            x       y       z     vdW  Elec       q    Type
REMARK                         _______ _______ _______ _____ _____    ______ ____
ROOT
ATOM      1  O   UNL     1      14.196   3.483  70.399  0.00  0.00    +0.000 OA
ATOM      2  C   UNL     1      10.243   3.809  76.948  0.00  0.00    +0.000 C 
ATOM      3  C   UNL     1       9.348   2.560  77.476  0.00  0.00    +0.000 C 
ATOM      4  C   UNL     1      11.418   3.627  76.073  0.00  0.00    +0.000 C 
ATOM      5  C   UNL     1      11.792   2.366  75.345  0.00  0.00    +0.000 C 
ATOM      6  C   UNL     1      13.097   2.191  74.536  0.00  0.00    +0.000 C 
ATOM      7  C   UNL     1       7.945   3.068  77.329  0.00  0.00    +0.000 C 
ATOM      8  C   UNL     1       9.710   1.461  76.581  0.00  0.00    +0.000 C 
ATOM      9  C   UNL     1      10.850   1.332  75.603  0.00  0.00    +0.000 C 
ATOM     10  C   UNL     1       9.352   4.909  76.738  0.00  0.00    +0.000 C 
ATOM     11  C   UNL     1      12.248   4.718  75.727  0.00  0.00    +0.000 C 
ATOM     12  C   UNL     1       7.937   4.440  76.947  0.00  0.00    +0.000 C 
ATOM     13  C   UNL     1      13.814   3.602  74.047  0.00  0.00    +0.000 C 
ATOM     14  C   UNL     1       9.728   2.342  78.959  0.00  0.00    +0.000 C 
ATOM     15  C   UNL     1      13.399   4.750  74.767  0.00  0.00    +0.000 C 
ATOM     16  C   UNL     1      12.816   1.495  73.237  0.00  0.00    +0.000 C 
ATOM     17  C   UNL     1      14.143   1.423  75.388  0.00  0.00    +0.000 C 
ATOM     18  C   UNL     1      13.167   1.830  71.770  0.00  0.00    +0.000 C 
ATOM     19  C   UNL     1      14.082   3.742  72.766  0.00  0.00    +0.000 C 
ATOM     20  C   UNL     1      13.877   3.064  71.495  0.00  0.00    +0.000 C 
ENDROOT
BRANCH   7  21
ATOM     21  C   UNL     1       6.769   2.275  77.590  0.00  0.00    +0.000 C 
ATOM     22  O   UNL     1       6.465   1.252  77.000  0.00  0.00    +0.000 OA
ATOM     23  C   UNL     1       5.804   2.552  78.696  0.00  0.00    +0.000 C 
ENDBRANCH   7  21
TORSDOF 1
ENDMDL
MODEL 5
REMARK VINA RESULT:      -4.3     20.320     21.735
REMARK  Name = Progesterone.pdbqt.pdb
REMARK  1 active torsions:
REMARK  status: ('A' for Active; 'I' for Inactive)
REMARK    1  A    between atoms: C_7  and  C_21
REMARK                            x       y       z     vdW  Elec       q    Type
REMARK                         _______ _______ _______ _____ _____    ______ ____
ROOT
ATOM      1  O   UNL     1      21.264  11.750  52.730  0.00  0.00    +0.000 OA
ATOM      2  C   UNL     1      18.367   9.642  59.496  0.00  0.00    +0.000 C 
ATOM      3  C   UNL     1      17.327  10.581  60.318  0.00  0.00    +0.000 C 
ATOM      4  C   UNL     1      18.495   9.699  58.027  0.00  0.00    +0.000 C 
ATOM      5  C   UNL     1      17.924  10.761  57.129  0.00  0.00    +0.000 C 
ATOM      6  C   UNL     1      17.984  10.711  55.586  0.00  0.00    +0.000 C 
ATOM      7  C   UNL     1      18.135  11.019  61.502  0.00  0.00    +0.000 C 
ATOM      8  C   UNL     1      16.983  11.642  59.371  0.00  0.00    +0.000 C 
ATOM      9  C   UNL     1      17.223  11.741  57.885  0.00  0.00    +0.000 C 
ATOM     10  C   UNL     1      19.530   9.483  60.315  0.00  0.00    +0.000 C 
ATOM     11  C   UNL     1      19.320   8.787  57.329  0.00  0.00    +0.000 C 
ATOM     12  C   UNL     1      19.394  10.355  61.534  0.00  0.00    +0.000 C 
ATOM     13  C   UNL     1      19.164   9.731  54.961  0.00  0.00    +0.000 C 
ATOM     14  C   UNL     1      16.146   9.673  60.732  0.00  0.00    +0.000 C 
ATOM     15  C   UNL     1      19.666   8.767  55.870  0.00  0.00    +0.000 C 
ATOM     16  C   UNL     1      18.348  12.059  55.035  0.00  0.00    +0.000 C 
ATOM     17  C   UNL     1      16.629  10.205  55.024  0.00  0.00    +0.000 C 
ATOM     18  C   UNL     1      19.429  12.526  54.035  0.00  0.00    +0.000 C 
ATOM     19  C   UNL     1      20.004  10.257  54.095  0.00  0.00    +0.000 C 
ATOM     20  C   UNL     1      20.345  11.539  53.497  0.00  0.00    +0.000 C 
ENDROOT
BRANCH   7  21
ATOM     21  C   UNL     1      17.667  11.955  62.495  0.00  0.00    +0.000 C 
ATOM     22  O   UNL     1      16.814  11.723  63.335  0.00  0.00    +0.000 OA
ATOM     23  C   UNL     1      18.241  13.320  62.690  0.00  0.00    +0.000 C 
ENDBRANCH   7  21
TORSDOF 1
ENDMDL
MODEL 6
REMARK VINA RESULT:      -4.1     21.212     22.829
REMARK  Name = Progesterone.pdbqt.pdb
REMARK  1 active torsions:
REMARK  status: ('A' for Active; 'I' for Inactive)
REMARK    1  A    between atoms: C_7  and  C_21
REMARK                            x       y       z     vdW  Elec       q    Type
REMARK                         _______ _______ _______ _____ _____    ______ ____
ROOT
ATOM      1  O   UNL     1      18.525  12.002  50.581  0.00  0.00    +0.000 OA
ATOM      2  C   UNL     1      18.701   9.395  57.778  0.00  0.00    +0.000 C 
ATOM      3  C   UNL     1      18.357  10.348  59.047  0.00  0.00    +0.000 C 
ATOM      4  C   UNL     1      18.150   9.641  56.430  0.00  0.00    +0.000 C 
ATOM      5  C   UNL     1      17.450  10.891  55.975  0.00  0.00    +0.000 C 
ATOM      6  C   UNL     1      16.786  11.053  54.590  0.00  0.00    +0.000 C 
ATOM      7  C   UNL     1      19.686  10.493  59.727  0.00  0.00    +0.000 C 
ATOM      8  C   UNL     1      17.831  11.571  58.440  0.00  0.00    +0.000 C 
ATOM      9  C   UNL     1      17.379  11.845  57.028  0.00  0.00    +0.000 C 
ATOM     10  C   UNL     1      20.054   8.955  57.933  0.00  0.00    +0.000 C 
ATOM     11  C   UNL     1      18.368   8.728  55.373  0.00  0.00    +0.000 C 
ATOM     12  C   UNL     1      20.663   9.655  59.118  0.00  0.00    +0.000 C 
ATOM     13  C   UNL     1      17.333  10.011  53.423  0.00  0.00    +0.000 C 
ATOM     14  C   UNL     1      17.345   9.571  59.921  0.00  0.00    +0.000 C 
ATOM     15  C   UNL     1      17.997   8.865  53.927  0.00  0.00    +0.000 C 
ATOM     16  C   UNL     1      17.111  12.398  54.009  0.00  0.00    +0.000 C 
ATOM     17  C   UNL     1      15.255  10.833  54.713  0.00  0.00    +0.000 C 
ATOM     18  C   UNL     1      17.681  12.842  52.643  0.00  0.00    +0.000 C 
ATOM     19  C   UNL     1      17.767  10.528  52.293  0.00  0.00    +0.000 C 
ATOM     20  C   UNL     1      18.038  11.819  51.679  0.00  0.00    +0.000 C 
ENDROOT
BRANCH   7  21
ATOM     21  C   UNL     1      19.917  11.336  60.874  0.00  0.00    +0.000 C 
ATOM     22  O   UNL     1      20.254  12.507  60.831  0.00  0.00    +0.000 OA
ATOM     23  C   UNL     1      19.678  10.908  62.285  0.00  0.00    +0.000 C 
ENDBRANCH   7  21
TORSDOF 1
ENDMDL
MODEL 7
REMARK VINA RESULT:      -4.0     10.946     14.098
REMARK  Name = Progesterone.pdbqt.pdb
REMARK  1 active torsions:
REMARK  status: ('A' for Active; 'I' for Inactive)
REMARK    1  A    between atoms: C_7  and  C_21
REMARK                            x       y       z     vdW  Elec       q    Type
REMARK                         _______ _______ _______ _____ _____    ______ ____
ROOT
ATOM      1  O   UNL     1       1.395   8.882  75.949  0.00  0.00    +0.000 OA
ATOM      2  C   UNL     1       1.984   7.852  68.386  0.00  0.00    +0.000 C 
ATOM      3  C   UNL     1       0.735   8.112  67.382  0.00  0.00    +0.000 C 
ATOM      4  C   UNL     1       2.118   8.548  69.681  0.00  0.00    +0.000 C 
ATOM      5  C   UNL     1       1.049   9.350  70.369  0.00  0.00    +0.000 C 
ATOM      6  C   UNL     1       1.275  10.158  71.666  0.00  0.00    +0.000 C 
ATOM      7  C   UNL     1       0.387   6.729  66.915  0.00  0.00    +0.000 C 
ATOM      8  C   UNL     1      -0.272   8.755  68.226  0.00  0.00    +0.000 C 
ATOM      9  C   UNL     1      -0.149   9.361  69.602  0.00  0.00    +0.000 C 
ATOM     10  C   UNL     1       2.340   6.470  68.271  0.00  0.00    +0.000 C 
ATOM     11  C   UNL     1       3.275   8.393  70.478  0.00  0.00    +0.000 C 
ATOM     12  C   UNL     1       1.337   5.779  67.386  0.00  0.00    +0.000 C 
ATOM     13  C   UNL     1       2.579   9.682  72.570  0.00  0.00    +0.000 C 
ATOM     14  C   UNL     1       1.271   8.990  66.228  0.00  0.00    +0.000 C 
ATOM     15  C   UNL     1       3.536   8.915  71.859  0.00  0.00    +0.000 C 
ATOM     16  C   UNL     1       0.127   9.959  72.611  0.00  0.00    +0.000 C 
ATOM     17  C   UNL     1       1.486  11.656  71.321  0.00  0.00    +0.000 C 
ATOM     18  C   UNL     1       0.053   9.552  74.100  0.00  0.00    +0.000 C 
ATOM     19  C   UNL     1       2.374   9.390  73.837  0.00  0.00    +0.000 C 
ATOM     20  C   UNL     1       1.288   9.246  74.795  0.00  0.00    +0.000 C 
ENDROOT
BRANCH   7  21
ATOM     21  C   UNL     1      -0.736   6.425  66.062  0.00  0.00    +0.000 C 
ATOM     22  O   UNL     1      -0.737   6.503  64.845  0.00  0.00    +0.000 OA
ATOM     23  C   UNL     1      -2.033   5.876  66.557  0.00  0.00    +0.000 C 
ENDBRANCH   7  21
TORSDOF 1
ENDMDL
MODEL 8
REMARK VINA RESULT:      -3.9     22.005     24.819
REMARK  Name = Progesterone.pdbqt.pdb
REMARK  1 active torsions:
REMARK  status: ('A' for Active; 'I' for Inactive)
REMARK    1  A    between atoms: C_7  and  C_21
REMARK                            x       y       z     vdW  Elec       q    Type
REMARK                         _______ _______ _______ _____ _____    ______ ____
ROOT
ATOM      1  O   UNL     1      16.568  -3.521  53.270  0.00  0.00    +0.000 OA
ATOM      2  C   UNL     1      20.941   2.764  53.318  0.00  0.00    +0.000 C 
ATOM      3  C   UNL     1      21.068   3.734  52.022  0.00  0.00    +0.000 C 
ATOM      4  C   UNL     1      19.749   1.931  53.571  0.00  0.00    +0.000 C 
ATOM      5  C   UNL     1      18.643   1.648  52.592  0.00  0.00    +0.000 C 
ATOM      6  C   UNL     1      17.357   0.868  52.944  0.00  0.00    +0.000 C 
ATOM      7  C   UNL     1      22.481   3.510  51.573  0.00  0.00    +0.000 C 
ATOM      8  C   UNL     1      20.038   3.241  51.108  0.00  0.00    +0.000 C 
ATOM      9  C   UNL     1      18.888   2.296  51.350  0.00  0.00    +0.000 C 
ATOM     10  C   UNL     1      22.249   2.250  53.592  0.00  0.00    +0.000 C 
ATOM     11  C   UNL     1      19.615   1.189  54.767  0.00  0.00    +0.000 C 
ATOM     12  C   UNL     1      23.186   2.690  52.499  0.00  0.00    +0.000 C 
ATOM     13  C   UNL     1      17.472  -0.110  54.276  0.00  0.00    +0.000 C 
ATOM     14  C   UNL     1      20.848   5.179  52.529  0.00  0.00    +0.000 C 
ATOM     15  C   UNL     1      18.547   0.206  55.143  0.00  0.00    +0.000 C 
ATOM     16  C   UNL     1      17.020  -0.102  51.850  0.00  0.00    +0.000 C 
ATOM     17  C   UNL     1      16.196   1.863  53.211  0.00  0.00    +0.000 C 
ATOM     18  C   UNL     1      16.704  -1.615  51.850  0.00  0.00    +0.000 C 
ATOM     19  C   UNL     1      17.144  -1.377  54.137  0.00  0.00    +0.000 C 
ATOM     20  C   UNL     1      16.757  -2.331  53.109  0.00  0.00    +0.000 C 
ENDROOT
BRANCH   7  21
ATOM     21  C   UNL     1      23.051   4.094  50.383  0.00  0.00    +0.000 C 
ATOM     22  O   UNL     1      23.578   5.192  50.321  0.00  0.00    +0.000 OA
ATOM     23  C   UNL     1      23.157   3.382  49.075  0.00  0.00    +0.000 C 
ENDBRANCH   7  21
TORSDOF 1
ENDMDL
MODEL 9
REMARK VINA RESULT:      -3.8      5.598      8.959
REMARK  Name = Progesterone.pdbqt.pdb
REMARK  1 active torsions:
REMARK  status: ('A' for Active; 'I' for Inactive)
REMARK    1  A    between atoms: C_7  and  C_21
REMARK                            x       y       z     vdW  Elec       q    Type
REMARK                         _______ _______ _______ _____ _____    ______ ____
ROOT
ATOM      1  O   UNL     1      16.754   3.628  70.593  0.00  0.00    +0.000 OA
ATOM      2  C   UNL     1      10.786  -1.088  69.714  0.00  0.00    +0.000 C 
ATOM      3  C   UNL     1      10.561  -1.947  68.355  0.00  0.00    +0.000 C 
ATOM      4  C   UNL     1      12.123  -0.651  70.162  0.00  0.00    +0.000 C 
ATOM      5  C   UNL     1      13.385  -0.683  69.345  0.00  0.00    +0.000 C 
ATOM      6  C   UNL     1      14.782  -0.325  69.900  0.00  0.00    +0.000 C 
ATOM      7  C   UNL     1       9.347  -1.306  67.751  0.00  0.00    +0.000 C 
ATOM      8  C   UNL     1      11.803  -1.758  67.605  0.00  0.00    +0.000 C 
ATOM      9  C   UNL     1      13.134  -1.200  68.045  0.00  0.00    +0.000 C 
ATOM     10  C   UNL     1       9.659  -0.219  69.858  0.00  0.00    +0.000 C 
ATOM     11  C   UNL     1      12.303  -0.009  71.410  0.00  0.00    +0.000 C 
ATOM     12  C   UNL     1       8.791  -0.337  68.633  0.00  0.00    +0.000 C 
ATOM     13  C   UNL     1      14.775   0.611  71.266  0.00  0.00    +0.000 C 
ATOM     14  C   UNL     1      10.283  -3.404  68.794  0.00  0.00    +0.000 C 
ATOM     15  C   UNL     1      13.548   0.606  71.974  0.00  0.00    +0.000 C 
ATOM     16  C   UNL     1      15.530   0.528  68.918  0.00  0.00    +0.000 C 
ATOM     17  C   UNL     1      15.558  -1.624  70.244  0.00  0.00    +0.000 C 
ATOM     18  C   UNL     1      16.266   1.880  69.050  0.00  0.00    +0.000 C 
ATOM     19  C   UNL     1      15.471   1.729  71.248  0.00  0.00    +0.000 C 
ATOM     20  C   UNL     1      16.252   2.551  70.336  0.00  0.00    +0.000 C 
ENDROOT
BRANCH   7  21
ATOM     21  C   UNL     1       8.799  -1.667  66.466  0.00  0.00    +0.000 C 
ATOM     22  O   UNL     1       9.235  -1.301  65.388  0.00  0.00    +0.000 OA
ATOM     23  C   UNL     1       7.669  -2.626  66.282  0.00  0.00    +0.000 C 
ENDBRANCH   7  21
TORSDOF 1
ENDMDL
