MODEL 1
REMARK VINA RESULT:      -4.2      0.000      0.000
REMARK  Name = Quercetin.pdbqt.pdb
REMARK  6 active torsions:
REMARK  status: ('A' for Active; 'I' for Inactive)
REMARK    1  A    between atoms: C_5  and  C_12
REMARK    2  A    between atoms: C_6  and  O_22
REMARK    3  A    between atoms: C_8  and  O_24
REMARK    4  A    between atoms: C_10  and  O_26
REMARK    5  A    between atoms: C_15  and  O_18
REMARK    6  A    between atoms: C_17  and  O_20
REMARK                            x       y       z     vdW  Elec       q    Type
REMARK                         _______ _______ _______ _____ _____    ______ ____
ROOT
ATOM      1  O   UNL     1      16.081   5.374  67.669  0.00  0.00    +0.000 OA
ATOM      2  O   UNL     1      15.205   2.954  70.815  0.00  0.00    +0.000 OA
ATOM      3  C   UNL     1      15.968   3.147  68.621  0.00  0.00    +0.000 A 
ATOM      4  C   UNL     1      16.248   4.019  67.575  0.00  0.00    +0.000 A 
ATOM      5  C   UNL     1      15.627   5.913  68.864  0.00  0.00    +0.000 A 
ATOM      6  C   UNL     1      15.304   5.187  69.956  0.00  0.00    +0.000 A 
ATOM      7  C   UNL     1      15.469   3.707  69.881  0.00  0.00    +0.000 A 
ATOM      8  C   UNL     1      16.162   1.770  68.454  0.00  0.00    +0.000 A 
ATOM      9  C   UNL     1      16.722   3.526  66.361  0.00  0.00    +0.000 A 
ATOM     10  C   UNL     1      16.912   2.157  66.206  0.00  0.00    +0.000 A 
ATOM     11  C   UNL     1      16.635   1.273  67.243  0.00  0.00    +0.000 A 
ENDROOT
BRANCH   5  12
ATOM     12  C   UNL     1      15.526   7.378  68.805  0.00  0.00    +0.000 A 
ATOM     13  C   UNL     1      14.354   8.001  68.366  0.00  0.00    +0.000 A 
ATOM     14  C   UNL     1      16.595   8.165  69.253  0.00  0.00    +0.000 A 
ATOM     15  C   UNL     1      14.272   9.388  68.356  0.00  0.00    +0.000 A 
ATOM     16  C   UNL     1      16.504   9.556  69.258  0.00  0.00    +0.000 A 
ATOM     17  C   UNL     1      15.331  10.159  68.823  0.00  0.00    +0.000 A 
BRANCH  15  18
ATOM     18  O   UNL     1      13.151   9.975  67.847  0.00  0.00    +0.000 OA
ATOM     19  H   UNL     1      12.389   9.605  68.331  0.00  0.00    +0.000 HD
ENDBRANCH  15  18
BRANCH  17  20
ATOM     20  O   UNL     1      15.223  11.517  68.881  0.00  0.00    +0.000 OA
ATOM     21  H   UNL     1      14.525  11.768  68.247  0.00  0.00    +0.000 HD
ENDBRANCH  17  20
ENDBRANCH   5  12
BRANCH   6  22
ATOM     22  O   UNL     1      14.814   5.700  71.141  0.00  0.00    +0.000 OA
ATOM     23  H   UNL     1      13.901   5.403  71.284  0.00  0.00    +0.000 HD
ENDBRANCH   6  22
BRANCH   8  24
ATOM     24  O   UNL     1      15.905   0.854  69.438  0.00  0.00    +0.000 OA
ATOM     25  H   UNL     1      16.555   0.992  70.167  0.00  0.00    +0.000 HD
ENDBRANCH   8  24
BRANCH  10  26
ATOM     26  O   UNL     1      17.377   1.698  65.008  0.00  0.00    +0.000 OA
ATOM     27  H   UNL     1      18.304   1.981  64.914  0.00  0.00    +0.000 HD
ENDBRANCH  10  26
TORSDOF 6
ENDMDL
MODEL 2
REMARK VINA RESULT:      -3.9     14.422     16.603
REMARK  Name = Quercetin.pdbqt.pdb
REMARK  6 active torsions:
REMARK  status: ('A' for Active; 'I' for Inactive)
REMARK    1  A    between atoms: C_5  and  C_12
REMARK    2  A    between atoms: C_6  and  O_22
REMARK    3  A    between atoms: C_8  and  O_24
REMARK    4  A    between atoms: C_10  and  O_26
REMARK    5  A    between atoms: C_15  and  O_18
REMARK    6  A    between atoms: C_17  and  O_20
REMARK                            x       y       z     vdW  Elec       q    Type
REMARK                         _______ _______ _______ _____ _____    ______ ____
ROOT
ATOM      1  O   UNL     1      17.156  -0.416  54.680  0.00  0.00    +0.000 OA
ATOM      2  O   UNL     1      18.533   2.550  52.266  0.00  0.00    +0.000 OA
ATOM      3  C   UNL     1      18.897   1.173  54.112  0.00  0.00    +0.000 A 
ATOM      4  C   UNL     1      18.376   0.159  54.908  0.00  0.00    +0.000 A 
ATOM      5  C   UNL     1      16.403   0.015  53.597  0.00  0.00    +0.000 A 
ATOM      6  C   UNL     1      16.776   0.998  52.750  0.00  0.00    +0.000 A 
ATOM      7  C   UNL     1      18.098   1.648  52.978  0.00  0.00    +0.000 A 
ATOM      8  C   UNL     1      20.154   1.716  54.405  0.00  0.00    +0.000 A 
ATOM      9  C   UNL     1      19.103  -0.319  55.997  0.00  0.00    +0.000 A 
ATOM     10  C   UNL     1      20.351   0.227  56.279  0.00  0.00    +0.000 A 
ATOM     11  C   UNL     1      20.884   1.243  55.491  0.00  0.00    +0.000 A 
ENDROOT
BRANCH   5  12
ATOM     12  C   UNL     1      15.134  -0.718  53.481  0.00  0.00    +0.000 A 
ATOM     13  C   UNL     1      13.963  -0.227  54.066  0.00  0.00    +0.000 A 
ATOM     14  C   UNL     1      15.080  -1.894  52.722  0.00  0.00    +0.000 A 
ATOM     15  C   UNL     1      12.770  -0.921  53.909  0.00  0.00    +0.000 A 
ATOM     16  C   UNL     1      13.878  -2.580  52.552  0.00  0.00    +0.000 A 
ATOM     17  C   UNL     1      12.724  -2.076  53.135  0.00  0.00    +0.000 A 
BRANCH  15  18
ATOM     18  O   UNL     1      11.657  -0.469  54.555  0.00  0.00    +0.000 OA
ATOM     19  H   UNL     1      11.359  -1.185  55.147  0.00  0.00    +0.000 HD
ENDBRANCH  15  18
BRANCH  17  20
ATOM     20  O   UNL     1      11.539  -2.716  52.921  0.00  0.00    +0.000 OA
ATOM     21  H   UNL     1      11.412  -2.750  51.954  0.00  0.00    +0.000 HD
ENDBRANCH  17  20
ENDBRANCH   5  12
BRANCH   6  22
ATOM     22  O   UNL     1      16.024   1.468  51.690  0.00  0.00    +0.000 OA
ATOM     23  H   UNL     1      15.329   2.065  52.011  0.00  0.00    +0.000 HD
ENDBRANCH   6  22
BRANCH   8  24
ATOM     24  O   UNL     1      20.726   2.717  53.667  0.00  0.00    +0.000 OA
ATOM     25  H   UNL     1      20.059   3.044  53.019  0.00  0.00    +0.000 HD
ENDBRANCH   8  24
BRANCH  10  26
ATOM     26  O   UNL     1      21.043  -0.257  57.350  0.00  0.00    +0.000 OA
ATOM     27  H   UNL     1      20.404  -0.466  58.054  0.00  0.00    +0.000 HD
ENDBRANCH  10  26
TORSDOF 6
ENDMDL
MODEL 3
REMARK VINA RESULT:      -3.9     11.817     12.851
REMARK  Name = Quercetin.pdbqt.pdb
REMARK  6 active torsions:
REMARK  status: ('A' for Active; 'I' for Inactive)
REMARK    1  A    between atoms: C_5  and  C_12
REMARK    2  A    between atoms: C_6  and  O_22
REMARK    3  A    between atoms: C_8  and  O_24
REMARK    4  A    between atoms: C_10  and  O_26
REMARK    5  A    between atoms: C_15  and  O_18
REMARK    6  A    between atoms: C_17  and  O_20
REMARK                            x       y       z     vdW  Elec       q    Type
REMARK                         _______ _______ _______ _____ _____    ______ ____
ROOT
ATOM      1  O   UNL     1       5.823   8.055  60.475  0.00  0.00    +0.000 OA
ATOM      2  O   UNL     1       5.400   4.120  61.402  0.00  0.00    +0.000 OA
ATOM      3  C   UNL     1       5.940   5.728  59.803  0.00  0.00    +0.000 A 
ATOM      4  C   UNL     1       6.066   7.088  59.538  0.00  0.00    +0.000 A 
ATOM      5  C   UNL     1       5.451   7.672  61.755  0.00  0.00    +0.000 A 
ATOM      6  C   UNL     1       5.278   6.391  62.149  0.00  0.00    +0.000 A 
ATOM      7  C   UNL     1       5.527   5.316  61.148  0.00  0.00    +0.000 A 
ATOM      8  C   UNL     1       6.204   4.792  58.795  0.00  0.00    +0.000 A 
ATOM      9  C   UNL     1       6.453   7.521  58.272  0.00  0.00    +0.000 A 
ATOM     10  C   UNL     1       6.714   6.583  57.278  0.00  0.00    +0.000 A 
ATOM     11  C   UNL     1       6.591   5.220  57.529  0.00  0.00    +0.000 A 
ENDROOT
BRANCH   5  12
ATOM     12  C   UNL     1       5.252   8.827  62.641  0.00  0.00    +0.000 A 
ATOM     13  C   UNL     1       6.326   9.644  63.009  0.00  0.00    +0.000 A 
ATOM     14  C   UNL     1       3.961   9.154  63.075  0.00  0.00    +0.000 A 
ATOM     15  C   UNL     1       6.104  10.752  63.818  0.00  0.00    +0.000 A 
ATOM     16  C   UNL     1       3.739  10.276  63.873  0.00  0.00    +0.000 A 
ATOM     17  C   UNL     1       4.815  11.079  64.225  0.00  0.00    +0.000 A 
BRANCH  15  18
ATOM     18  O   UNL     1       7.175  11.488  64.231  0.00  0.00    +0.000 OA
ATOM     19  H   UNL     1       7.046  12.394  63.895  0.00  0.00    +0.000 HD
ENDBRANCH  15  18
BRANCH  17  20
ATOM     20  O   UNL     1       4.588  12.207  64.958  0.00  0.00    +0.000 OA
ATOM     21  H   UNL     1       5.021  12.939  64.482  0.00  0.00    +0.000 HD
ENDBRANCH  17  20
ENDBRANCH   5  12
BRANCH   6  22
ATOM     22  O   UNL     1       4.869   5.991  63.407  0.00  0.00    +0.000 OA
ATOM     23  H   UNL     1       5.584   5.512  63.855  0.00  0.00    +0.000 HD
ENDBRANCH   6  22
BRANCH   8  24
ATOM     24  O   UNL     1       6.099   3.441  58.984  0.00  0.00    +0.000 OA
ATOM     25  H   UNL     1       5.660   3.051  58.191  0.00  0.00    +0.000 HD
ENDBRANCH   8  24
BRANCH  10  26
ATOM     26  O   UNL     1       7.091   7.031  56.046  0.00  0.00    +0.000 OA
ATOM     27  H   UNL     1       7.023   6.289  55.419  0.00  0.00    +0.000 HD
ENDBRANCH  10  26
TORSDOF 6
ENDMDL
MODEL 4
REMARK VINA RESULT:      -3.7      1.609      6.852
REMARK  Name = Quercetin.pdbqt.pdb
REMARK  6 active torsions:
REMARK  status: ('A' for Active; 'I' for Inactive)
REMARK    1  A    between atoms: C_5  and  C_12
REMARK    2  A    between atoms: C_6  and  O_22
REMARK    3  A    between atoms: C_8  and  O_24
REMARK    4  A    between atoms: C_10  and  O_26
REMARK    5  A    between atoms: C_15  and  O_18
REMARK    6  A    between atoms: C_17  and  O_20
REMARK                            x       y       z     vdW  Elec       q    Type
REMARK                         _______ _______ _______ _____ _____    ______ ____
ROOT
ATOM      1  O   UNL     1      15.260   6.651  68.271  0.00  0.00    +0.000 OA
ATOM      2  O   UNL     1      17.639   8.236  71.161  0.00  0.00    +0.000 OA
ATOM      3  C   UNL     1      15.844   8.520  69.701  0.00  0.00    +0.000 A 
ATOM      4  C   UNL     1      15.063   7.931  68.714  0.00  0.00    +0.000 A 
ATOM      5  C   UNL     1      16.273   5.894  68.841  0.00  0.00    +0.000 A 
ATOM      6  C   UNL     1      17.115   6.339  69.798  0.00  0.00    +0.000 A 
ATOM      7  C   UNL     1      16.930   7.733  70.294  0.00  0.00    +0.000 A 
ATOM      8  C   UNL     1      15.586   9.837  70.105  0.00  0.00    +0.000 A 
ATOM      9  C   UNL     1      14.024   8.647  68.124  0.00  0.00    +0.000 A 
ATOM     10  C   UNL     1      13.775   9.954  68.532  0.00  0.00    +0.000 A 
ATOM     11  C   UNL     1      14.549  10.556  69.519  0.00  0.00    +0.000 A 
ENDROOT
BRANCH   5  12
ATOM     12  C   UNL     1      16.335   4.539  68.273  0.00  0.00    +0.000 A 
ATOM     13  C   UNL     1      16.846   4.320  66.989  0.00  0.00    +0.000 A 
ATOM     14  C   UNL     1      15.935   3.444  69.048  0.00  0.00    +0.000 A 
ATOM     15  C   UNL     1      16.927   3.026  66.491  0.00  0.00    +0.000 A 
ATOM     16  C   UNL     1      16.034   2.144  68.552  0.00  0.00    +0.000 A 
ATOM     17  C   UNL     1      16.547   1.944  67.278  0.00  0.00    +0.000 A 
BRANCH  15  18
ATOM     18  O   UNL     1      17.351   2.842  65.208  0.00  0.00    +0.000 OA
ATOM     19  H   UNL     1      17.629   1.910  65.129  0.00  0.00    +0.000 HD
ENDBRANCH  15  18
BRANCH  17  20
ATOM     20  O   UNL     1      16.696   0.669  66.816  0.00  0.00    +0.000 OA
ATOM     21  H   UNL     1      16.990   0.742  65.889  0.00  0.00    +0.000 HD
ENDBRANCH  17  20
ENDBRANCH   5  12
BRANCH   6  22
ATOM     22  O   UNL     1      18.155   5.614  70.349  0.00  0.00    +0.000 OA
ATOM     23  H   UNL     1      18.991   6.095  70.245  0.00  0.00    +0.000 HD
ENDBRANCH   6  22
BRANCH   8  24
ATOM     24  O   UNL     1      16.315  10.480  71.068  0.00  0.00    +0.000 OA
ATOM     25  H   UNL     1      15.713  11.092  71.554  0.00  0.00    +0.000 HD
ENDBRANCH   8  24
BRANCH  10  26
ATOM     26  O   UNL     1      12.751  10.634  67.940  0.00  0.00    +0.000 OA
ATOM     27  H   UNL     1      12.259  11.107  68.635  0.00  0.00    +0.000 HD
ENDBRANCH  10  26
TORSDOF 6
ENDMDL
MODEL 5
REMARK VINA RESULT:      -3.4     13.266     15.181
REMARK  Name = Quercetin.pdbqt.pdb
REMARK  6 active torsions:
REMARK  status: ('A' for Active; 'I' for Inactive)
REMARK    1  A    between atoms: C_5  and  C_12
REMARK    2  A    between atoms: C_6  and  O_22
REMARK    3  A    between atoms: C_8  and  O_24
REMARK    4  A    between atoms: C_10  and  O_26
REMARK    5  A    between atoms: C_15  and  O_18
REMARK    6  A    between atoms: C_17  and  O_20
REMARK                            x       y       z     vdW  Elec       q    Type
REMARK                         _______ _______ _______ _____ _____    ______ ____
ROOT
ATOM      1  O   UNL     1      20.316   8.409  54.872  0.00  0.00    +0.000 OA
ATOM      2  O   UNL     1      18.145   9.460  58.144  0.00  0.00    +0.000 OA
ATOM      3  C   UNL     1      20.177   8.723  57.272  0.00  0.00    +0.000 A 
ATOM      4  C   UNL     1      20.873   8.371  56.121  0.00  0.00    +0.000 A 
ATOM      5  C   UNL     1      19.003   8.834  54.736  0.00  0.00    +0.000 A 
ATOM      6  C   UNL     1      18.205   9.193  55.766  0.00  0.00    +0.000 A 
ATOM      7  C   UNL     1      18.782   9.153  57.139  0.00  0.00    +0.000 A 
ATOM      8  C   UNL     1      20.811   8.658  58.520  0.00  0.00    +0.000 A 
ATOM      9  C   UNL     1      22.200   7.953  56.206  0.00  0.00    +0.000 A 
ATOM     10  C   UNL     1      22.821   7.893  57.450  0.00  0.00    +0.000 A 
ATOM     11  C   UNL     1      22.136   8.242  58.609  0.00  0.00    +0.000 A 
ENDROOT
BRANCH   5  12
ATOM     12  C   UNL     1      18.567   8.840  53.332  0.00  0.00    +0.000 A 
ATOM     13  C   UNL     1      18.259  10.037  52.679  0.00  0.00    +0.000 A 
ATOM     14  C   UNL     1      18.518   7.636  52.618  0.00  0.00    +0.000 A 
ATOM     15  C   UNL     1      17.886  10.017  51.341  0.00  0.00    +0.000 A 
ATOM     16  C   UNL     1      18.159   7.621  51.270  0.00  0.00    +0.000 A 
ATOM     17  C   UNL     1      17.862   8.819  50.636  0.00  0.00    +0.000 A 
BRANCH  15  18
ATOM     18  O   UNL     1      17.512  11.186  50.747  0.00  0.00    +0.000 OA
ATOM     19  H   UNL     1      17.122  10.955  49.882  0.00  0.00    +0.000 HD
ENDBRANCH  15  18
BRANCH  17  20
ATOM     20  O   UNL     1      17.566   8.808  49.304  0.00  0.00    +0.000 OA
ATOM     21  H   UNL     1      17.402   7.877  49.063  0.00  0.00    +0.000 HD
ENDBRANCH  17  20
ENDBRANCH   5  12
BRANCH   6  22
ATOM     22  O   UNL     1      16.883   9.581  55.655  0.00  0.00    +0.000 OA
ATOM     23  H   UNL     1      16.666   9.774  54.729  0.00  0.00    +0.000 HD
ENDBRANCH   6  22
BRANCH   8  24
ATOM     24  O   UNL     1      20.188   8.987  59.693  0.00  0.00    +0.000 OA
ATOM     25  H   UNL     1      19.225   9.098  59.512  0.00  0.00    +0.000 HD
ENDBRANCH   8  24
BRANCH  10  26
ATOM     26  O   UNL     1      24.120   7.482  57.507  0.00  0.00    +0.000 OA
ATOM     27  H   UNL     1      24.178   6.603  57.091  0.00  0.00    +0.000 HD
ENDBRANCH  10  26
TORSDOF 6
ENDMDL
MODEL 6
REMARK VINA RESULT:      -3.4     14.623     16.844
REMARK  Name = Quercetin.pdbqt.pdb
REMARK  6 active torsions:
REMARK  status: ('A' for Active; 'I' for Inactive)
REMARK    1  A    between atoms: C_5  and  C_12
REMARK    2  A    between atoms: C_6  and  O_22
REMARK    3  A    between atoms: C_8  and  O_24
REMARK    4  A    between atoms: C_10  and  O_26
REMARK    5  A    between atoms: C_15  and  O_18
REMARK    6  A    between atoms: C_17  and  O_20
REMARK                            x       y       z     vdW  Elec       q    Type
REMARK                         _______ _______ _______ _____ _____    ______ ____
ROOT
ATOM      1  O   UNL     1      15.989  -0.698  54.452  0.00  0.00    +0.000 OA
ATOM      2  O   UNL     1      17.719   2.428  52.513  0.00  0.00    +0.000 OA
ATOM      3  C   UNL     1      17.902   0.756  54.127  0.00  0.00    +0.000 A 
ATOM      4  C   UNL     1      17.262  -0.303  54.761  0.00  0.00    +0.000 A 
ATOM      5  C   UNL     1      15.304  -0.027  53.449  0.00  0.00    +0.000 A 
ATOM      6  C   UNL     1      15.795   1.025  52.759  0.00  0.00    +0.000 A 
ATOM      7  C   UNL     1      17.177   1.483  53.081  0.00  0.00    +0.000 A 
ATOM      8  C   UNL     1      19.207   1.107  54.496  0.00  0.00    +0.000 A 
ATOM      9  C   UNL     1      17.916  -1.017  55.763  0.00  0.00    +0.000 A 
ATOM     10  C   UNL     1      19.213  -0.661  56.122  0.00  0.00    +0.000 A 
ATOM     11  C   UNL     1      19.864   0.396  55.496  0.00  0.00    +0.000 A 
ENDROOT
BRANCH   5  12
ATOM     12  C   UNL     1      13.964  -0.589  53.226  0.00  0.00    +0.000 A 
ATOM     13  C   UNL     1      13.618  -1.158  51.996  0.00  0.00    +0.000 A 
ATOM     14  C   UNL     1      13.038  -0.613  54.277  0.00  0.00    +0.000 A 
ATOM     15  C   UNL     1      12.357  -1.715  51.825  0.00  0.00    +0.000 A 
ATOM     16  C   UNL     1      11.780  -1.189  54.107  0.00  0.00    +0.000 A 
ATOM     17  C   UNL     1      11.454  -1.752  52.882  0.00  0.00    +0.000 A 
BRANCH  15  18
ATOM     18  O   UNL     1      12.011  -2.190  50.594  0.00  0.00    +0.000 OA
ATOM     19  H   UNL     1      11.053  -2.373  50.616  0.00  0.00    +0.000 HD
ENDBRANCH  15  18
BRANCH  17  20
ATOM     20  O   UNL     1      10.244  -2.365  52.735  0.00  0.00    +0.000 OA
ATOM     21  H   UNL     1      10.339  -2.993  51.995  0.00  0.00    +0.000 HD
ENDBRANCH  17  20
ENDBRANCH   5  12
BRANCH   6  22
ATOM     22  O   UNL     1      15.114   1.731  51.786  0.00  0.00    +0.000 OA
ATOM     23  H   UNL     1      14.920   2.629  52.096  0.00  0.00    +0.000 HD
ENDBRANCH   6  22
BRANCH   8  24
ATOM     24  O   UNL     1      19.896   2.138  53.917  0.00  0.00    +0.000 OA
ATOM     25  H   UNL     1      19.278   2.633  53.331  0.00  0.00    +0.000 HD
ENDBRANCH   8  24
BRANCH  10  26
ATOM     26  O   UNL     1      19.832  -1.375  57.105  0.00  0.00    +0.000 OA
ATOM     27  H   UNL     1      19.315  -1.275  57.925  0.00  0.00    +0.000 HD
ENDBRANCH  10  26
TORSDOF 6
ENDMDL
MODEL 7
REMARK VINA RESULT:      -3.4      2.887      7.395
REMARK  Name = Quercetin.pdbqt.pdb
REMARK  6 active torsions:
REMARK  status: ('A' for Active; 'I' for Inactive)
REMARK    1  A    between atoms: C_5  and  C_12
REMARK    2  A    between atoms: C_6  and  O_22
REMARK    3  A    between atoms: C_8  and  O_24
REMARK    4  A    between atoms: C_10  and  O_26
REMARK    5  A    between atoms: C_15  and  O_18
REMARK    6  A    between atoms: C_17  and  O_20
REMARK                            x       y       z     vdW  Elec       q    Type
REMARK                         _______ _______ _______ _____ _____    ______ ____
ROOT
ATOM      1  O   UNL     1      14.702   7.541  70.607  0.00  0.00    +0.000 OA
ATOM      2  O   UNL     1      13.328  10.886  68.752  0.00  0.00    +0.000 OA
ATOM      3  C   UNL     1      13.391   9.579  70.681  0.00  0.00    +0.000 A 
ATOM      4  C   UNL     1      13.886   8.419  71.266  0.00  0.00    +0.000 A 
ATOM      5  C   UNL     1      15.072   7.821  69.300  0.00  0.00    +0.000 A 
ATOM      6  C   UNL     1      14.658   8.901  68.603  0.00  0.00    +0.000 A 
ATOM      7  C   UNL     1      13.761   9.872  69.293  0.00  0.00    +0.000 A 
ATOM      8  C   UNL     1      12.558  10.433  71.416  0.00  0.00    +0.000 A 
ATOM      9  C   UNL     1      13.555   8.103  72.583  0.00  0.00    +0.000 A 
ATOM     10  C   UNL     1      12.727   8.958  73.304  0.00  0.00    +0.000 A 
ATOM     11  C   UNL     1      12.225  10.122  72.731  0.00  0.00    +0.000 A 
ENDROOT
BRANCH   5  12
ATOM     12  C   UNL     1      15.967   6.794  68.748  0.00  0.00    +0.000 A 
ATOM     13  C   UNL     1      17.314   7.073  68.496  0.00  0.00    +0.000 A 
ATOM     14  C   UNL     1      15.482   5.498  68.528  0.00  0.00    +0.000 A 
ATOM     15  C   UNL     1      18.146   6.073  68.009  0.00  0.00    +0.000 A 
ATOM     16  C   UNL     1      16.324   4.492  68.056  0.00  0.00    +0.000 A 
ATOM     17  C   UNL     1      17.659   4.785  67.815  0.00  0.00    +0.000 A 
BRANCH  15  18
ATOM     18  O   UNL     1      19.435   6.388  67.692  0.00  0.00    +0.000 OA
ATOM     19  H   UNL     1      19.406   6.923  66.877  0.00  0.00    +0.000 HD
ENDBRANCH  15  18
BRANCH  17  20
ATOM     20  O   UNL     1      18.494   3.786  67.407  0.00  0.00    +0.000 OA
ATOM     21  H   UNL     1      18.783   4.016  66.504  0.00  0.00    +0.000 HD
ENDBRANCH  17  20
ENDBRANCH   5  12
BRANCH   6  22
ATOM     22  O   UNL     1      14.983   9.178  67.289  0.00  0.00    +0.000 OA
ATOM     23  H   UNL     1      14.978   8.362  66.764  0.00  0.00    +0.000 HD
ENDBRANCH   6  22
BRANCH   8  24
ATOM     24  O   UNL     1      12.033  11.588  70.904  0.00  0.00    +0.000 OA
ATOM     25  H   UNL     1      11.920  11.472  69.931  0.00  0.00    +0.000 HD
ENDBRANCH   8  24
BRANCH  10  26
ATOM     26  O   UNL     1      12.418   8.628  74.591  0.00  0.00    +0.000 OA
ATOM     27  H   UNL     1      11.702   9.216  74.891  0.00  0.00    +0.000 HD
ENDBRANCH  10  26
TORSDOF 6
ENDMDL
MODEL 8
REMARK VINA RESULT:      -3.4      2.230      6.371
REMARK  Name = Quercetin.pdbqt.pdb
REMARK  6 active torsions:
REMARK  status: ('A' for Active; 'I' for Inactive)
REMARK    1  A    between atoms: C_5  and  C_12
REMARK    2  A    between atoms: C_6  and  O_22
REMARK    3  A    between atoms: C_8  and  O_24
REMARK    4  A    between atoms: C_10  and  O_26
REMARK    5  A    between atoms: C_15  and  O_18
REMARK    6  A    between atoms: C_17  and  O_20
REMARK                            x       y       z     vdW  Elec       q    Type
REMARK                         _______ _______ _______ _____ _____    ______ ____
ROOT
ATOM      1  O   UNL     1      16.930   7.190  67.713  0.00  0.00    +0.000 OA
ATOM      2  O   UNL     1      15.357   5.335  70.970  0.00  0.00    +0.000 OA
ATOM      3  C   UNL     1      15.489   7.260  69.663  0.00  0.00    +0.000 A 
ATOM      4  C   UNL     1      16.059   7.848  68.539  0.00  0.00    +0.000 A 
ATOM      5  C   UNL     1      17.251   5.870  67.993  0.00  0.00    +0.000 A 
ATOM      6  C   UNL     1      16.784   5.178  69.055  0.00  0.00    +0.000 A 
ATOM      7  C   UNL     1      15.840   5.872  69.976  0.00  0.00    +0.000 A 
ATOM      8  C   UNL     1      14.606   7.995  70.464  0.00  0.00    +0.000 A 
ATOM      9  C   UNL     1      15.753   9.167  68.208  0.00  0.00    +0.000 A 
ATOM     10  C   UNL     1      14.874   9.887  69.011  0.00  0.00    +0.000 A 
ATOM     11  C   UNL     1      14.298   9.312  70.138  0.00  0.00    +0.000 A 
ENDROOT
BRANCH   5  12
ATOM     12  C   UNL     1      18.176   5.306  67.000  0.00  0.00    +0.000 A 
ATOM     13  C   UNL     1      17.698   4.605  65.888  0.00  0.00    +0.000 A 
ATOM     14  C   UNL     1      19.553   5.523  67.133  0.00  0.00    +0.000 A 
ATOM     15  C   UNL     1      18.592   4.114  64.945  0.00  0.00    +0.000 A 
ATOM     16  C   UNL     1      20.447   5.044  66.176  0.00  0.00    +0.000 A 
ATOM     17  C   UNL     1      19.955   4.355  65.076  0.00  0.00    +0.000 A 
BRANCH  15  18
ATOM     18  O   UNL     1      18.111   3.364  63.912  0.00  0.00    +0.000 OA
ATOM     19  H   UNL     1      17.376   3.866  63.512  0.00  0.00    +0.000 HD
ENDBRANCH  15  18
BRANCH  17  20
ATOM     20  O   UNL     1      20.826   3.936  64.113  0.00  0.00    +0.000 OA
ATOM     21  H   UNL     1      21.420   3.290  64.537  0.00  0.00    +0.000 HD
ENDBRANCH  17  20
ENDBRANCH   5  12
BRANCH   6  22
ATOM     22  O   UNL     1      17.123   3.876  69.372  0.00  0.00    +0.000 OA
ATOM     23  H   UNL     1      16.825   3.662  70.270  0.00  0.00    +0.000 HD
ENDBRANCH   6  22
BRANCH   8  24
ATOM     24  O   UNL     1      14.011   7.482  71.585  0.00  0.00    +0.000 OA
ATOM     25  H   UNL     1      14.256   6.530  71.657  0.00  0.00    +0.000 HD
ENDBRANCH   8  24
BRANCH  10  26
ATOM     26  O   UNL     1      14.590  11.177  68.666  0.00  0.00    +0.000 OA
ATOM     27  H   UNL     1      15.432  11.637  68.497  0.00  0.00    +0.000 HD
ENDBRANCH  10  26
TORSDOF 6
ENDMDL
MODEL 9
REMARK VINA RESULT:      -3.3     13.950     16.181
REMARK  Name = Quercetin.pdbqt.pdb
REMARK  6 active torsions:
REMARK  status: ('A' for Active; 'I' for Inactive)
REMARK    1  A    between atoms: C_5  and  C_12
REMARK    2  A    between atoms: C_6  and  O_22
REMARK    3  A    between atoms: C_8  and  O_24
REMARK    4  A    between atoms: C_10  and  O_26
REMARK    5  A    between atoms: C_15  and  O_18
REMARK    6  A    between atoms: C_17  and  O_20
REMARK                            x       y       z     vdW  Elec       q    Type
REMARK                         _______ _______ _______ _____ _____    ______ ____
ROOT
ATOM      1  O   UNL     1      16.328  -0.500  54.523  0.00  0.00    +0.000 OA
ATOM      2  O   UNL     1      12.309  -0.871  54.036  0.00  0.00    +0.000 OA
ATOM      3  C   UNL     1      14.198  -1.346  55.317  0.00  0.00    +0.000 A 
ATOM      4  C   UNL     1      15.575  -1.192  55.432  0.00  0.00    +0.000 A 
ATOM      5  C   UNL     1      15.694   0.093  53.441  0.00  0.00    +0.000 A 
ATOM      6  C   UNL     1      14.368   0.016  53.195  0.00  0.00    +0.000 A 
ATOM      7  C   UNL     1      13.524  -0.739  54.165  0.00  0.00    +0.000 A 
ATOM      8  C   UNL     1      13.491  -2.070  56.285  0.00  0.00    +0.000 A 
ATOM      9  C   UNL     1      16.254  -1.756  56.511  0.00  0.00    +0.000 A 
ATOM     10  C   UNL     1      15.542  -2.473  57.468  0.00  0.00    +0.000 A 
ATOM     11  C   UNL     1      14.165  -2.635  57.364  0.00  0.00    +0.000 A 
ENDROOT
BRANCH   5  12
ATOM     12  C   UNL     1      16.638   0.816  52.577  0.00  0.00    +0.000 A 
ATOM     13  C   UNL     1      16.750   2.208  52.639  0.00  0.00    +0.000 A 
ATOM     14  C   UNL     1      17.483   0.097  51.721  0.00  0.00    +0.000 A 
ATOM     15  C   UNL     1      17.678   2.862  51.838  0.00  0.00    +0.000 A 
ATOM     16  C   UNL     1      18.424   0.754  50.930  0.00  0.00    +0.000 A 
ATOM     17  C   UNL     1      18.526   2.136  51.008  0.00  0.00    +0.000 A 
BRANCH  15  18
ATOM     18  O   UNL     1      17.714   4.225  51.854  0.00  0.00    +0.000 OA
ATOM     19  H   UNL     1      18.287   4.505  51.115  0.00  0.00    +0.000 HD
ENDBRANCH  15  18
BRANCH  17  20
ATOM     20  O   UNL     1      19.485   2.772  50.276  0.00  0.00    +0.000 OA
ATOM     21  H   UNL     1      19.652   3.625  50.718  0.00  0.00    +0.000 HD
ENDBRANCH  17  20
ENDBRANCH   5  12
BRANCH   6  22
ATOM     22  O   UNL     1      13.724   0.566  52.103  0.00  0.00    +0.000 OA
ATOM     23  H   UNL     1      12.870   0.940  52.371  0.00  0.00    +0.000 HD
ENDBRANCH   6  22
BRANCH   8  24
ATOM     24  O   UNL     1      12.137  -2.263  56.234  0.00  0.00    +0.000 OA
ATOM     25  H   UNL     1      11.922  -3.081  56.740  0.00  0.00    +0.000 HD
ENDBRANCH   8  24
BRANCH  10  26
ATOM     26  O   UNL     1      16.229  -3.015  58.515  0.00  0.00    +0.000 OA
ATOM     27  H   UNL     1      16.871  -3.655  58.157  0.00  0.00    +0.000 HD
ENDBRANCH  10  26
TORSDOF 6
ENDMDL
