MODEL 1
REMARK VINA RESULT:      -4.7      0.000      0.000
REMARK  Name = 
REMARK  11 active torsions:
REMARK  status: ('A' for Active; 'I' for Inactive)
REMARK    1  A    between atoms: O_2  and  C_16
REMARK    2  A    between atoms: O_2  and  C_18
REMARK    3  A    between atoms: O_3  and  C_12
REMARK    4  A    between atoms: O_4  and  C_13
REMARK    5  A    between atoms: O_5  and  C_14
REMARK    6  A    between atoms: O_8  and  C_24
REMARK    7  A    between atoms: O_9  and  C_29
REMARK    8  A    between atoms: O_10  and  C_30
REMARK    9  A    between atoms: O_11  and  C_32
REMARK   10  A    between atoms: C_15  and  C_17
REMARK   11  A    between atoms: C_19  and  C_23
REMARK                            x       y       z     vdW  Elec       q    Type
REMARK                         _______ _______ _______ _____ _____    ______ ____
ROOT
ATOM      1  O   UNL     1      14.931   4.955  70.224  0.00  0.00    +0.000 OA
ATOM      2  O   UNL     1      16.596   2.187  67.769  0.00  0.00    +0.000 OA
ATOM      3  C   UNL     1      16.046   4.453  68.141  0.00  0.00    +0.000 A 
ATOM      4  C   UNL     1      15.573   5.322  69.056  0.00  0.00    +0.000 A 
ATOM      5  C   UNL     1      15.981   2.996  68.453  0.00  0.00    +0.000 A 
ATOM      6  C   UNL     1      15.176   2.606  69.633  0.00  0.00    +0.000 A 
ATOM      7  C   UNL     1      14.705   3.625  70.461  0.00  0.00    +0.000 A 
ATOM      8  C   UNL     1      14.883   1.274  69.959  0.00  0.00    +0.000 A 
ATOM      9  C   UNL     1      13.962   3.326  71.605  0.00  0.00    +0.000 A 
ATOM     10  C   UNL     1      14.136   0.968  71.102  0.00  0.00    +0.000 A 
ATOM     11  C   UNL     1      13.684   2.002  71.916  0.00  0.00    +0.000 A 
ENDROOT
BRANCH   4  12
ATOM     12  C   UNL     1      15.664   6.788  68.890  0.00  0.00    +0.000 A 
ATOM     13  C   UNL     1      14.551   7.504  68.415  0.00  0.00    +0.000 A 
ATOM     14  C   UNL     1      16.844   7.486  69.205  0.00  0.00    +0.000 A 
ATOM     15  C   UNL     1      14.641   8.880  68.240  0.00  0.00    +0.000 A 
ATOM     16  C   UNL     1      16.926   8.868  69.022  0.00  0.00    +0.000 A 
ATOM     17  C   UNL     1      15.823   9.551  68.537  0.00  0.00    +0.000 A 
BRANCH  15  18
ATOM     18  O   UNL     1      13.590   9.620  67.772  0.00  0.00    +0.000 OA
ATOM     19  H   UNL     1      13.002   9.826  68.520  0.00  0.00    +0.000 HD
ENDBRANCH  15  18
BRANCH  17  20
ATOM     20  O   UNL     1      15.906  10.901  68.354  0.00  0.00    +0.000 OA
ATOM     21  H   UNL     1      15.804  11.282  69.250  0.00  0.00    +0.000 HD
ENDBRANCH  17  20
ENDBRANCH   4  12
BRANCH   8  22
ATOM     22  O   UNL     1      15.300   0.250  69.158  0.00  0.00    +0.000 OA
ATOM     23  H   UNL     1      16.200   0.405  68.831  0.00  0.00    +0.000 HD
ENDBRANCH   8  22
BRANCH  11  24
ATOM     24  O   UNL     1      12.954   1.758  73.040  0.00  0.00    +0.000 OA
ATOM     25  H   UNL     1      12.936   2.556  73.595  0.00  0.00    +0.000 HD
ENDBRANCH  11  24
BRANCH   3  26
ATOM     26  O   UNL     1      16.687   4.834  66.971  0.00  0.00    +0.000 OA
BRANCH  26  32
ATOM     27  O   UNL     1      18.800   5.955  67.089  0.00  0.00    +0.000 OA
ATOM     28  C   UNL     1      18.588   4.502  64.607  0.00  0.00    +0.000 C 
ATOM     29  C   UNL     1      19.314   5.848  64.698  0.00  0.00    +0.000 C 
ATOM     30  C   UNL     1      18.615   3.773  65.952  0.00  0.00    +0.000 C 
ATOM     31  C   UNL     1      18.715   6.669  65.845  0.00  0.00    +0.000 C 
ATOM     32  C   UNL     1      18.111   4.701  67.079  0.00  0.00    +0.000 C 
ATOM     33  C   UNL     1      19.447   7.993  66.032  0.00  0.00    +0.000 C 
BRANCH  28  34
ATOM     34  O   UNL     1      19.236   3.701  63.600  0.00  0.00    +0.000 OA
ATOM     35  H   UNL     1      19.203   2.785  63.948  0.00  0.00    +0.000 HD
ENDBRANCH  28  34
BRANCH  29  36
ATOM     36  O   UNL     1      19.195   6.528  63.445  0.00  0.00    +0.000 OA
ATOM     37  H   UNL     1      19.896   7.209  63.450  0.00  0.00    +0.000 HD
ENDBRANCH  29  36
BRANCH  30  38
ATOM     38  O   UNL     1      19.971   3.331  66.176  0.00  0.00    +0.000 OA
ATOM     39  H   UNL     1      20.272   3.731  67.012  0.00  0.00    +0.000 HD
ENDBRANCH  30  38
ENDBRANCH  26  32
ENDBRANCH   3  26
TORSDOF 10
ENDMDL
MODEL 2
REMARK VINA RESULT:      -4.7     11.889     15.441
REMARK  Name = 
REMARK  11 active torsions:
REMARK  status: ('A' for Active; 'I' for Inactive)
REMARK    1  A    between atoms: O_2  and  C_16
REMARK    2  A    between atoms: O_2  and  C_18
REMARK    3  A    between atoms: O_3  and  C_12
REMARK    4  A    between atoms: O_4  and  C_13
REMARK    5  A    between atoms: O_5  and  C_14
REMARK    6  A    between atoms: O_8  and  C_24
REMARK    7  A    between atoms: O_9  and  C_29
REMARK    8  A    between atoms: O_10  and  C_30
REMARK    9  A    between atoms: O_11  and  C_32
REMARK   10  A    between atoms: C_15  and  C_17
REMARK   11  A    between atoms: C_19  and  C_23
REMARK                            x       y       z     vdW  Elec       q    Type
REMARK                         _______ _______ _______ _____ _____    ______ ____
ROOT
ATOM      1  O   UNL     1      16.770  -0.227  53.891  0.00  0.00    +0.000 OA
ATOM      2  O   UNL     1      18.774  -1.325  57.244  0.00  0.00    +0.000 OA
ATOM      3  C   UNL     1      16.754  -1.367  56.020  0.00  0.00    +0.000 A 
ATOM      4  C   UNL     1      16.193  -1.055  54.835  0.00  0.00    +0.000 A 
ATOM      5  C   UNL     1      18.139  -0.884  56.293  0.00  0.00    +0.000 A 
ATOM      6  C   UNL     1      18.695   0.108  55.345  0.00  0.00    +0.000 A 
ATOM      7  C   UNL     1      17.969   0.368  54.182  0.00  0.00    +0.000 A 
ATOM      8  C   UNL     1      19.909   0.777  55.553  0.00  0.00    +0.000 A 
ATOM      9  C   UNL     1      18.448   1.274  53.232  0.00  0.00    +0.000 A 
ATOM     10  C   UNL     1      20.393   1.688  54.607  0.00  0.00    +0.000 A 
ATOM     11  C   UNL     1      19.654   1.925  53.452  0.00  0.00    +0.000 A 
ENDROOT
BRANCH   4  12
ATOM     12  C   UNL     1      14.863  -1.551  54.425  0.00  0.00    +0.000 A 
ATOM     13  C   UNL     1      13.729  -0.744  54.626  0.00  0.00    +0.000 A 
ATOM     14  C   UNL     1      14.707  -2.815  53.828  0.00  0.00    +0.000 A 
ATOM     15  C   UNL     1      12.474  -1.216  54.258  0.00  0.00    +0.000 A 
ATOM     16  C   UNL     1      13.442  -3.282  53.465  0.00  0.00    +0.000 A 
ATOM     17  C   UNL     1      12.336  -2.479  53.688  0.00  0.00    +0.000 A 
BRANCH  15  18
ATOM     18  O   UNL     1      11.339  -0.475  54.441  0.00  0.00    +0.000 OA
ATOM     19  H   UNL     1      11.134  -0.015  53.609  0.00  0.00    +0.000 HD
ENDBRANCH  15  18
BRANCH  17  20
ATOM     20  O   UNL     1      11.099  -2.938  53.338  0.00  0.00    +0.000 OA
ATOM     21  H   UNL     1      11.136  -3.040  52.365  0.00  0.00    +0.000 HD
ENDBRANCH  17  20
ENDBRANCH   4  12
BRANCH   8  22
ATOM     22  O   UNL     1      20.633   0.572  56.692  0.00  0.00    +0.000 OA
ATOM     23  H   UNL     1      21.095   1.380  56.965  0.00  0.00    +0.000 HD
ENDBRANCH   8  22
BRANCH  11  24
ATOM     24  O   UNL     1      20.081   2.800  52.499  0.00  0.00    +0.000 OA
ATOM     25  H   UNL     1      20.408   2.308  51.728  0.00  0.00    +0.000 HD
ENDBRANCH  11  24
BRANCH   3  26
ATOM     26  O   UNL     1      16.164  -2.198  56.960  0.00  0.00    +0.000 OA
BRANCH  26  32
ATOM     27  O   UNL     1      16.169  -2.021  59.349  0.00  0.00    +0.000 OA
ATOM     28  C   UNL     1      13.521  -2.674  58.411  0.00  0.00    +0.000 C 
ATOM     29  C   UNL     1      14.073  -3.226  59.730  0.00  0.00    +0.000 C 
ATOM     30  C   UNL     1      14.179  -1.339  58.059  0.00  0.00    +0.000 C 
ATOM     31  C   UNL     1      15.601  -3.307  59.644  0.00  0.00    +0.000 C 
ATOM     32  C   UNL     1      15.718  -1.465  58.111  0.00  0.00    +0.000 C 
ATOM     33  C   UNL     1      16.214  -3.782  60.957  0.00  0.00    +0.000 C 
BRANCH  28  34
ATOM     34  O   UNL     1      12.098  -2.500  58.549  0.00  0.00    +0.000 OA
ATOM     35  H   UNL     1      11.991  -1.927  59.337  0.00  0.00    +0.000 HD
ENDBRANCH  28  34
BRANCH  29  36
ATOM     36  O   UNL     1      13.490  -4.509  59.977  0.00  0.00    +0.000 OA
ATOM     37  H   UNL     1      14.150  -5.160  59.664  0.00  0.00    +0.000 HD
ENDBRANCH  29  36
BRANCH  30  38
ATOM     38  O   UNL     1      13.682  -0.354  58.990  0.00  0.00    +0.000 OA
ATOM     39  H   UNL     1      13.841  -0.697  59.888  0.00  0.00    +0.000 HD
ENDBRANCH  30  38
ENDBRANCH  26  32
ENDBRANCH   3  26
TORSDOF 10
ENDMDL
MODEL 3
REMARK VINA RESULT:      -4.5      2.229      7.748
REMARK  Name = 
REMARK  11 active torsions:
REMARK  status: ('A' for Active; 'I' for Inactive)
REMARK    1  A    between atoms: O_2  and  C_16
REMARK    2  A    between atoms: O_2  and  C_18
REMARK    3  A    between atoms: O_3  and  C_12
REMARK    4  A    between atoms: O_4  and  C_13
REMARK    5  A    between atoms: O_5  and  C_14
REMARK    6  A    between atoms: O_8  and  C_24
REMARK    7  A    between atoms: O_9  and  C_29
REMARK    8  A    between atoms: O_10  and  C_30
REMARK    9  A    between atoms: O_11  and  C_32
REMARK   10  A    between atoms: C_15  and  C_17
REMARK   11  A    between atoms: C_19  and  C_23
REMARK                            x       y       z     vdW  Elec       q    Type
REMARK                         _______ _______ _______ _____ _____    ______ ____
ROOT
ATOM      1  O   UNL     1      18.535   6.036  66.647  0.00  0.00    +0.000 OA
ATOM      2  O   UNL     1      18.429  10.087  66.426  0.00  0.00    +0.000 OA
ATOM      3  C   UNL     1      17.755   8.131  67.564  0.00  0.00    +0.000 A 
ATOM      4  C   UNL     1      17.927   6.795  67.629  0.00  0.00    +0.000 A 
ATOM      5  C   UNL     1      18.359   8.864  66.414  0.00  0.00    +0.000 A 
ATOM      6  C   UNL     1      18.886   8.038  65.304  0.00  0.00    +0.000 A 
ATOM      7  C   UNL     1      18.952   6.658  65.499  0.00  0.00    +0.000 A 
ATOM      8  C   UNL     1      19.331   8.575  64.088  0.00  0.00    +0.000 A 
ATOM      9  C   UNL     1      19.463   5.822  64.503  0.00  0.00    +0.000 A 
ATOM     10  C   UNL     1      19.841   7.743  63.085  0.00  0.00    +0.000 A 
ATOM     11  C   UNL     1      19.904   6.371  63.307  0.00  0.00    +0.000 A 
ENDROOT
BRANCH   4  12
ATOM     12  C   UNL     1      17.447   5.981  68.765  0.00  0.00    +0.000 A 
ATOM     13  C   UNL     1      16.176   5.382  68.703  0.00  0.00    +0.000 A 
ATOM     14  C   UNL     1      18.241   5.785  69.910  0.00  0.00    +0.000 A 
ATOM     15  C   UNL     1      15.715   4.631  69.778  0.00  0.00    +0.000 A 
ATOM     16  C   UNL     1      17.767   5.033  70.987  0.00  0.00    +0.000 A 
ATOM     17  C   UNL     1      16.505   4.466  70.912  0.00  0.00    +0.000 A 
BRANCH  15  18
ATOM     18  O   UNL     1      14.483   4.037  69.771  0.00  0.00    +0.000 OA
ATOM     19  H   UNL     1      13.841   4.655  70.161  0.00  0.00    +0.000 HD
ENDBRANCH  15  18
BRANCH  17  20
ATOM     20  O   UNL     1      16.041   3.735  71.966  0.00  0.00    +0.000 OA
ATOM     21  H   UNL     1      15.449   4.344  72.452  0.00  0.00    +0.000 HD
ENDBRANCH  17  20
ENDBRANCH   4  12
BRANCH   8  22
ATOM     22  O   UNL     1      19.256   9.917  63.848  0.00  0.00    +0.000 OA
ATOM     23  H   UNL     1      18.968  10.095  62.939  0.00  0.00    +0.000 HD
ENDBRANCH   8  22
BRANCH  11  24
ATOM     24  O   UNL     1      20.392   5.517  62.364  0.00  0.00    +0.000 OA
ATOM     25  H   UNL     1      21.342   5.678  62.241  0.00  0.00    +0.000 HD
ENDBRANCH  11  24
BRANCH   3  26
ATOM     26  O   UNL     1      17.141   8.880  68.556  0.00  0.00    +0.000 OA
BRANCH  26  32
ATOM     27  O   UNL     1      15.731  10.807  68.375  0.00  0.00    +0.000 OA
ATOM     28  C   UNL     1      14.592   8.922  70.235  0.00  0.00    +0.000 C 
ATOM     29  C   UNL     1      14.469  10.436  70.439  0.00  0.00    +0.000 C 
ATOM     30  C   UNL     1      14.742   8.579  68.752  0.00  0.00    +0.000 C 
ATOM     31  C   UNL     1      15.660  11.134  69.772  0.00  0.00    +0.000 C 
ATOM     32  C   UNL     1      15.881   9.408  68.118  0.00  0.00    +0.000 C 
ATOM     33  C   UNL     1      15.554  12.651  69.878  0.00  0.00    +0.000 C 
BRANCH  28  34
ATOM     34  O   UNL     1      13.412   8.292  70.770  0.00  0.00    +0.000 OA
ATOM     35  H   UNL     1      13.628   7.336  70.795  0.00  0.00    +0.000 HD
ENDBRANCH  28  34
BRANCH  29  36
ATOM     36  O   UNL     1      14.413  10.714  71.841  0.00  0.00    +0.000 OA
ATOM     37  H   UNL     1      14.679   9.883  72.282  0.00  0.00    +0.000 HD
ENDBRANCH  29  36
BRANCH  30  38
ATOM     38  O   UNL     1      13.468   8.831  68.120  0.00  0.00    +0.000 OA
ATOM     39  H   UNL     1      13.034   9.547  68.618  0.00  0.00    +0.000 HD
ENDBRANCH  30  38
ENDBRANCH  26  32
ENDBRANCH   3  26
TORSDOF 10
ENDMDL
MODEL 4
REMARK VINA RESULT:      -4.4     13.752     15.937
REMARK  Name = 
REMARK  11 active torsions:
REMARK  status: ('A' for Active; 'I' for Inactive)
REMARK    1  A    between atoms: O_2  and  C_16
REMARK    2  A    between atoms: O_2  and  C_18
REMARK    3  A    between atoms: O_3  and  C_12
REMARK    4  A    between atoms: O_4  and  C_13
REMARK    5  A    between atoms: O_5  and  C_14
REMARK    6  A    between atoms: O_8  and  C_24
REMARK    7  A    between atoms: O_9  and  C_29
REMARK    8  A    between atoms: O_10  and  C_30
REMARK    9  A    between atoms: O_11  and  C_32
REMARK   10  A    between atoms: C_15  and  C_17
REMARK   11  A    between atoms: C_19  and  C_23
REMARK                            x       y       z     vdW  Elec       q    Type
REMARK                         _______ _______ _______ _____ _____    ______ ____
ROOT
ATOM      1  O   UNL     1       2.539   8.279  72.278  0.00  0.00    +0.000 OA
ATOM      2  O   UNL     1       4.533  11.780  72.768  0.00  0.00    +0.000 OA
ATOM      3  C   UNL     1       3.658   9.823  73.761  0.00  0.00    +0.000 A 
ATOM      4  C   UNL     1       3.085   8.632  73.498  0.00  0.00    +0.000 A 
ATOM      5  C   UNL     1       3.822  10.790  72.637  0.00  0.00    +0.000 A 
ATOM      6  C   UNL     1       3.119  10.465  71.375  0.00  0.00    +0.000 A 
ATOM      7  C   UNL     1       2.524   9.208  71.271  0.00  0.00    +0.000 A 
ATOM      8  C   UNL     1       3.039  11.348  70.288  0.00  0.00    +0.000 A 
ATOM      9  C   UNL     1       1.867   8.826  70.099  0.00  0.00    +0.000 A 
ATOM     10  C   UNL     1       2.380  10.973  69.113  0.00  0.00    +0.000 A 
ATOM     11  C   UNL     1       1.801   9.711  69.031  0.00  0.00    +0.000 A 
ENDROOT
BRANCH   4  12
ATOM     12  C   UNL     1       2.949   7.568  74.515  0.00  0.00    +0.000 A 
ATOM     13  C   UNL     1       3.780   6.436  74.450  0.00  0.00    +0.000 A 
ATOM     14  C   UNL     1       2.007   7.667  75.554  0.00  0.00    +0.000 A 
ATOM     15  C   UNL     1       3.641   5.424  75.393  0.00  0.00    +0.000 A 
ATOM     16  C   UNL     1       1.871   6.644  76.495  0.00  0.00    +0.000 A 
ATOM     17  C   UNL     1       2.688   5.529  76.402  0.00  0.00    +0.000 A 
BRANCH  15  18
ATOM     18  O   UNL     1       4.418   4.299  75.368  0.00  0.00    +0.000 OA
ATOM     19  H   UNL     1       4.028   3.641  75.970  0.00  0.00    +0.000 HD
ENDBRANCH  15  18
BRANCH  17  20
ATOM     20  O   UNL     1       2.553   4.527  77.320  0.00  0.00    +0.000 OA
ATOM     21  H   UNL     1       1.676   4.679  77.728  0.00  0.00    +0.000 HD
ENDBRANCH  17  20
ENDBRANCH   4  12
BRANCH   8  22
ATOM     22  O   UNL     1       3.584  12.598  70.363  0.00  0.00    +0.000 OA
ATOM     23  H   UNL     1       2.987  13.263  69.985  0.00  0.00    +0.000 HD
ENDBRANCH   8  22
BRANCH  11  24
ATOM     24  O   UNL     1       1.148   9.296  67.909  0.00  0.00    +0.000 OA
ATOM     25  H   UNL     1       0.305   9.774  67.829  0.00  0.00    +0.000 HD
ENDBRANCH  11  24
BRANCH   3  26
ATOM     26  O   UNL     1       4.200  10.166  74.991  0.00  0.00    +0.000 OA
BRANCH  26  32
ATOM     27  O   UNL     1       6.104   8.778  75.422  0.00  0.00    +0.000 OA
ATOM     28  C   UNL     1       6.010  10.945  77.322  0.00  0.00    +0.000 C 
ATOM     29  C   UNL     1       6.509   9.548  77.710  0.00  0.00    +0.000 C 
ATOM     30  C   UNL     1       6.223  11.209  75.831  0.00  0.00    +0.000 C 
ATOM     31  C   UNL     1       5.841   8.505  76.807  0.00  0.00    +0.000 C 
ATOM     32  C   UNL     1       5.631  10.057  74.988  0.00  0.00    +0.000 C 
ATOM     33  C   UNL     1       6.355   7.099  77.097  0.00  0.00    +0.000 C 
BRANCH  28  34
ATOM     34  O   UNL     1       6.728  11.919  78.103  0.00  0.00    +0.000 OA
ATOM     35  H   UNL     1       6.165  12.721  78.082  0.00  0.00    +0.000 HD
ENDBRANCH  28  34
BRANCH  29  36
ATOM     36  O   UNL     1       6.216   9.316  79.091  0.00  0.00    +0.000 OA
ATOM     37  H   UNL     1       6.659  10.040  79.576  0.00  0.00    +0.000 HD
ENDBRANCH  29  36
BRANCH  30  38
ATOM     38  O   UNL     1       7.643  11.364  75.619  0.00  0.00    +0.000 OA
ATOM     39  H   UNL     1       8.036  10.472  75.623  0.00  0.00    +0.000 HD
ENDBRANCH  30  38
ENDBRANCH  26  32
ENDBRANCH   3  26
TORSDOF 10
ENDMDL
MODEL 5
REMARK VINA RESULT:      -4.4      9.791     13.452
REMARK  Name = 
REMARK  11 active torsions:
REMARK  status: ('A' for Active; 'I' for Inactive)
REMARK    1  A    between atoms: O_2  and  C_16
REMARK    2  A    between atoms: O_2  and  C_18
REMARK    3  A    between atoms: O_3  and  C_12
REMARK    4  A    between atoms: O_4  and  C_13
REMARK    5  A    between atoms: O_5  and  C_14
REMARK    6  A    between atoms: O_8  and  C_24
REMARK    7  A    between atoms: O_9  and  C_29
REMARK    8  A    between atoms: O_10  and  C_30
REMARK    9  A    between atoms: O_11  and  C_32
REMARK   10  A    between atoms: C_15  and  C_17
REMARK   11  A    between atoms: C_19  and  C_23
REMARK                            x       y       z     vdW  Elec       q    Type
REMARK                         _______ _______ _______ _____ _____    ______ ____
ROOT
ATOM      1  O   UNL     1      14.341  11.435  60.803  0.00  0.00    +0.000 OA
ATOM      2  O   UNL     1      15.680  13.538  57.601  0.00  0.00    +0.000 OA
ATOM      3  C   UNL     1      13.872  12.997  59.020  0.00  0.00    +0.000 A 
ATOM      4  C   UNL     1      13.533  12.350  60.153  0.00  0.00    +0.000 A 
ATOM      5  C   UNL     1      15.252  12.807  58.486  0.00  0.00    +0.000 A 
ATOM      6  C   UNL     1      16.060  11.731  59.103  0.00  0.00    +0.000 A 
ATOM      7  C   UNL     1      15.550  11.112  60.246  0.00  0.00    +0.000 A 
ATOM      8  C   UNL     1      17.305  11.320  58.606  0.00  0.00    +0.000 A 
ATOM      9  C   UNL     1      16.272  10.108  60.893  0.00  0.00    +0.000 A 
ATOM     10  C   UNL     1      18.032  10.312  59.248  0.00  0.00    +0.000 A 
ATOM     11  C   UNL     1      17.506   9.716  60.390  0.00  0.00    +0.000 A 
ENDROOT
BRANCH   4  12
ATOM     12  C   UNL     1      12.225  12.530  60.818  0.00  0.00    +0.000 A 
ATOM     13  C   UNL     1      12.166  13.143  62.081  0.00  0.00    +0.000 A 
ATOM     14  C   UNL     1      11.032  12.106  60.206  0.00  0.00    +0.000 A 
ATOM     15  C   UNL     1      10.939  13.297  62.716  0.00  0.00    +0.000 A 
ATOM     16  C   UNL     1       9.804  12.260  60.853  0.00  0.00    +0.000 A 
ATOM     17  C   UNL     1       9.771  12.851  62.106  0.00  0.00    +0.000 A 
BRANCH  15  18
ATOM     18  O   UNL     1      10.830  13.878  63.950  0.00  0.00    +0.000 OA
ATOM     19  H   UNL     1      11.020  14.828  63.860  0.00  0.00    +0.000 HD
ENDBRANCH  15  18
BRANCH  17  20
ATOM     20  O   UNL     1       8.571  12.998  62.740  0.00  0.00    +0.000 OA
ATOM     21  H   UNL     1       8.641  12.438  63.540  0.00  0.00    +0.000 HD
ENDBRANCH  17  20
ENDBRANCH   4  12
BRANCH   8  22
ATOM     22  O   UNL     1      17.823  11.880  57.474  0.00  0.00    +0.000 OA
ATOM     23  H   UNL     1      18.605  12.418  57.675  0.00  0.00    +0.000 HD
ENDBRANCH   8  22
BRANCH  11  24
ATOM     24  O   UNL     1      18.173   8.731  61.053  0.00  0.00    +0.000 OA
ATOM     25  H   UNL     1      17.565   8.280  61.662  0.00  0.00    +0.000 HD
ENDBRANCH  11  24
BRANCH   3  26
ATOM     26  O   UNL     1      13.051  13.911  58.377  0.00  0.00    +0.000 OA
BRANCH  26  32
ATOM     27  O   UNL     1      12.429  15.706  59.835  0.00  0.00    +0.000 OA
ATOM     28  C   UNL     1      11.859  16.412  57.098  0.00  0.00    +0.000 C 
ATOM     29  C   UNL     1      10.960  16.863  58.255  0.00  0.00    +0.000 C 
ATOM     30  C   UNL     1      13.294  16.187  57.575  0.00  0.00    +0.000 C 
ATOM     31  C   UNL     1      11.067  15.851  59.401  0.00  0.00    +0.000 C 
ATOM     32  C   UNL     1      13.314  15.254  58.807  0.00  0.00    +0.000 C 
ATOM     33  C   UNL     1      10.249  16.285  60.613  0.00  0.00    +0.000 C 
BRANCH  28  34
ATOM     34  O   UNL     1      11.833  17.429  56.078  0.00  0.00    +0.000 OA
ATOM     35  H   UNL     1      11.213  17.087  55.400  0.00  0.00    +0.000 HD
ENDBRANCH  28  34
BRANCH  29  36
ATOM     36  O   UNL     1       9.616  16.983  57.781  0.00  0.00    +0.000 OA
ATOM     37  H   UNL     1       9.097  17.298  58.548  0.00  0.00    +0.000 HD
ENDBRANCH  29  36
BRANCH  30  38
ATOM     38  O   UNL     1      13.861  17.483  57.865  0.00  0.00    +0.000 OA
ATOM     39  H   UNL     1      13.498  18.111  57.214  0.00  0.00    +0.000 HD
ENDBRANCH  30  38
ENDBRANCH  26  32
ENDBRANCH   3  26
TORSDOF 10
ENDMDL
MODEL 6
REMARK VINA RESULT:      -4.3     13.284     15.625
REMARK  Name = 
REMARK  11 active torsions:
REMARK  status: ('A' for Active; 'I' for Inactive)
REMARK    1  A    between atoms: O_2  and  C_16
REMARK    2  A    between atoms: O_2  and  C_18
REMARK    3  A    between atoms: O_3  and  C_12
REMARK    4  A    between atoms: O_4  and  C_13
REMARK    5  A    between atoms: O_5  and  C_14
REMARK    6  A    between atoms: O_8  and  C_24
REMARK    7  A    between atoms: O_9  and  C_29
REMARK    8  A    between atoms: O_10  and  C_30
REMARK    9  A    between atoms: O_11  and  C_32
REMARK   10  A    between atoms: C_15  and  C_17
REMARK   11  A    between atoms: C_19  and  C_23
REMARK                            x       y       z     vdW  Elec       q    Type
REMARK                         _______ _______ _______ _____ _____    ______ ____
ROOT
ATOM      1  O   UNL     1       2.181   8.647  72.079  0.00  0.00    +0.000 OA
ATOM      2  O   UNL     1       5.597  10.785  71.606  0.00  0.00    +0.000 OA
ATOM      3  C   UNL     1       4.291   9.389  72.992  0.00  0.00    +0.000 A 
ATOM      4  C   UNL     1       3.185   8.620  73.029  0.00  0.00    +0.000 A 
ATOM      5  C   UNL     1       4.513  10.248  71.793  0.00  0.00    +0.000 A 
ATOM      6  C   UNL     1       3.378  10.376  70.850  0.00  0.00    +0.000 A 
ATOM      7  C   UNL     1       2.273   9.547  71.050  0.00  0.00    +0.000 A 
ATOM      8  C   UNL     1       3.370  11.271  69.770  0.00  0.00    +0.000 A 
ATOM      9  C   UNL     1       1.180   9.597  70.183  0.00  0.00    +0.000 A 
ATOM     10  C   UNL     1       2.276  11.328  68.900  0.00  0.00    +0.000 A 
ATOM     11  C   UNL     1       1.190  10.486  69.116  0.00  0.00    +0.000 A 
ENDROOT
BRANCH   4  12
ATOM     12  C   UNL     1       2.908   7.668  74.126  0.00  0.00    +0.000 A 
ATOM     13  C   UNL     1       3.705   6.519  74.266  0.00  0.00    +0.000 A 
ATOM     14  C   UNL     1       1.864   7.894  75.040  0.00  0.00    +0.000 A 
ATOM     15  C   UNL     1       3.434   5.613  75.285  0.00  0.00    +0.000 A 
ATOM     16  C   UNL     1       1.596   6.976  76.059  0.00  0.00    +0.000 A 
ATOM     17  C   UNL     1       2.383   5.841  76.168  0.00  0.00    +0.000 A 
BRANCH  15  18
ATOM     18  O   UNL     1       4.173   4.476  75.459  0.00  0.00    +0.000 OA
ATOM     19  H   UNL     1       3.602   3.794  75.852  0.00  0.00    +0.000 HD
ENDBRANCH  15  18
BRANCH  17  20
ATOM     20  O   UNL     1       2.118   4.943  77.161  0.00  0.00    +0.000 OA
ATOM     21  H   UNL     1       1.847   5.488  77.927  0.00  0.00    +0.000 HD
ENDBRANCH  17  20
ENDBRANCH   4  12
BRANCH   8  22
ATOM     22  O   UNL     1       4.419  12.119  69.559  0.00  0.00    +0.000 OA
ATOM     23  H   UNL     1       4.246  12.993  69.943  0.00  0.00    +0.000 HD
ENDBRANCH   8  22
BRANCH  11  24
ATOM     24  O   UNL     1       0.100  10.502  68.298  0.00  0.00    +0.000 OA
ATOM     25  H   UNL     1       0.311  10.992  67.486  0.00  0.00    +0.000 HD
ENDBRANCH  11  24
BRANCH   3  26
ATOM     26  O   UNL     1       5.290   9.353  73.953  0.00  0.00    +0.000 OA
BRANCH  26  32
ATOM     27  O   UNL     1       5.795  11.492  74.905  0.00  0.00    +0.000 OA
ATOM     28  C   UNL     1       6.768   9.390  76.623  0.00  0.00    +0.000 C 
ATOM     29  C   UNL     1       7.521  10.715  76.457  0.00  0.00    +0.000 C 
ATOM     30  C   UNL     1       5.272   9.575  76.368  0.00  0.00    +0.000 C 
ATOM     31  C   UNL     1       7.209  11.304  75.077  0.00  0.00    +0.000 C 
ATOM     32  C   UNL     1       5.037  10.284  75.016  0.00  0.00    +0.000 C 
ATOM     33  C   UNL     1       7.873  12.662  74.881  0.00  0.00    +0.000 C 
BRANCH  28  34
ATOM     34  O   UNL     1       6.984   8.908  77.963  0.00  0.00    +0.000 OA
ATOM     35  H   UNL     1       6.683   9.638  78.543  0.00  0.00    +0.000 HD
ENDBRANCH  28  34
BRANCH  29  36
ATOM     36  O   UNL     1       8.923  10.478  76.624  0.00  0.00    +0.000 OA
ATOM     37  H   UNL     1       9.125  10.753  77.541  0.00  0.00    +0.000 HD
ENDBRANCH  29  36
BRANCH  30  38
ATOM     38  O   UNL     1       4.735  10.328  77.477  0.00  0.00    +0.000 OA
ATOM     39  H   UNL     1       5.302  10.151  78.250  0.00  0.00    +0.000 HD
ENDBRANCH  30  38
ENDBRANCH  26  32
ENDBRANCH   3  26
TORSDOF 10
ENDMDL
MODEL 7
REMARK VINA RESULT:      -4.3      7.392     10.333
REMARK  Name = 
REMARK  11 active torsions:
REMARK  status: ('A' for Active; 'I' for Inactive)
REMARK    1  A    between atoms: O_2  and  C_16
REMARK    2  A    between atoms: O_2  and  C_18
REMARK    3  A    between atoms: O_3  and  C_12
REMARK    4  A    between atoms: O_4  and  C_13
REMARK    5  A    between atoms: O_5  and  C_14
REMARK    6  A    between atoms: O_8  and  C_24
REMARK    7  A    between atoms: O_9  and  C_29
REMARK    8  A    between atoms: O_10  and  C_30
REMARK    9  A    between atoms: O_11  and  C_32
REMARK   10  A    between atoms: C_15  and  C_17
REMARK   11  A    between atoms: C_19  and  C_23
REMARK                            x       y       z     vdW  Elec       q    Type
REMARK                         _______ _______ _______ _____ _____    ______ ____
ROOT
ATOM      1  O   UNL     1      16.830  10.814  63.108  0.00  0.00    +0.000 OA
ATOM      2  O   UNL     1      19.026   9.321  60.040  0.00  0.00    +0.000 OA
ATOM      3  C   UNL     1      17.142  10.570  60.725  0.00  0.00    +0.000 A 
ATOM      4  C   UNL     1      16.529  11.118  61.793  0.00  0.00    +0.000 A 
ATOM      5  C   UNL     1      18.300   9.660  60.966  0.00  0.00    +0.000 A 
ATOM      6  C   UNL     1      18.528   9.234  62.366  0.00  0.00    +0.000 A 
ATOM      7  C   UNL     1      17.775   9.856  63.363  0.00  0.00    +0.000 A 
ATOM      8  C   UNL     1      19.466   8.258  62.731  0.00  0.00    +0.000 A 
ATOM      9  C   UNL     1      17.959   9.521  64.706  0.00  0.00    +0.000 A 
ATOM     10  C   UNL     1      19.652   7.916  64.075  0.00  0.00    +0.000 A 
ATOM     11  C   UNL     1      18.895   8.555  65.051  0.00  0.00    +0.000 A 
ENDROOT
BRANCH   4  12
ATOM     12  C   UNL     1      15.430  12.097  61.670  0.00  0.00    +0.000 A 
ATOM     13  C   UNL     1      14.244  11.731  61.010  0.00  0.00    +0.000 A 
ATOM     14  C   UNL     1      15.542  13.392  62.207  0.00  0.00    +0.000 A 
ATOM     15  C   UNL     1      13.216  12.657  60.875  0.00  0.00    +0.000 A 
ATOM     16  C   UNL     1      14.506  14.317  62.064  0.00  0.00    +0.000 A 
ATOM     17  C   UNL     1      13.353  13.941  61.395  0.00  0.00    +0.000 A 
BRANCH  15  18
ATOM     18  O   UNL     1      12.047  12.353  60.234  0.00  0.00    +0.000 OA
ATOM     19  H   UNL     1      11.310  12.493  60.854  0.00  0.00    +0.000 HD
ENDBRANCH  15  18
BRANCH  17  20
ATOM     20  O   UNL     1      12.342  14.846  61.251  0.00  0.00    +0.000 OA
ATOM     21  H   UNL     1      12.646  15.451  60.544  0.00  0.00    +0.000 HD
ENDBRANCH  17  20
ENDBRANCH   4  12
BRANCH   8  22
ATOM     22  O   UNL     1      20.200   7.606  61.783  0.00  0.00    +0.000 OA
ATOM     23  H   UNL     1      19.904   6.688  61.679  0.00  0.00    +0.000 HD
ENDBRANCH   8  22
BRANCH  11  24
ATOM     24  O   UNL     1      19.037   8.259  66.373  0.00  0.00    +0.000 OA
ATOM     25  H   UNL     1      19.436   9.016  66.834  0.00  0.00    +0.000 HD
ENDBRANCH  11  24
BRANCH   3  26
ATOM     26  O   UNL     1      16.830  10.881  59.410  0.00  0.00    +0.000 OA
BRANCH  26  32
ATOM     27  O   UNL     1      16.999  13.229  58.967  0.00  0.00    +0.000 OA
ATOM     28  C   UNL     1      16.959  11.755  56.489  0.00  0.00    +0.000 C 
ATOM     29  C   UNL     1      16.295  13.130  56.625  0.00  0.00    +0.000 C 
ATOM     30  C   UNL     1      18.112  11.603  57.482  0.00  0.00    +0.000 C 
ATOM     31  C   UNL     1      15.873  13.345  58.082  0.00  0.00    +0.000 C 
ATOM     32  C   UNL     1      17.643  11.953  58.912  0.00  0.00    +0.000 C 
ATOM     33  C   UNL     1      15.270  14.729  58.295  0.00  0.00    +0.000 C 
BRANCH  28  34
ATOM     34  O   UNL     1      17.448  11.615  55.141  0.00  0.00    +0.000 OA
ATOM     35  H   UNL     1      17.627  10.657  55.038  0.00  0.00    +0.000 HD
ENDBRANCH  28  34
BRANCH  29  36
ATOM     36  O   UNL     1      15.175  13.196  55.736  0.00  0.00    +0.000 OA
ATOM     37  H   UNL     1      14.803  14.092  55.854  0.00  0.00    +0.000 HD
ENDBRANCH  29  36
BRANCH  30  38
ATOM     38  O   UNL     1      19.183  12.462  57.035  0.00  0.00    +0.000 OA
ATOM     39  H   UNL     1      18.906  12.852  56.185  0.00  0.00    +0.000 HD
ENDBRANCH  30  38
ENDBRANCH  26  32
ENDBRANCH   3  26
TORSDOF 10
ENDMDL
MODEL 8
REMARK VINA RESULT:      -4.3     13.386     16.334
REMARK  Name = 
REMARK  11 active torsions:
REMARK  status: ('A' for Active; 'I' for Inactive)
REMARK    1  A    between atoms: O_2  and  C_16
REMARK    2  A    between atoms: O_2  and  C_18
REMARK    3  A    between atoms: O_3  and  C_12
REMARK    4  A    between atoms: O_4  and  C_13
REMARK    5  A    between atoms: O_5  and  C_14
REMARK    6  A    between atoms: O_8  and  C_24
REMARK    7  A    between atoms: O_9  and  C_29
REMARK    8  A    between atoms: O_10  and  C_30
REMARK    9  A    between atoms: O_11  and  C_32
REMARK   10  A    between atoms: C_15  and  C_17
REMARK   11  A    between atoms: C_19  and  C_23
REMARK                            x       y       z     vdW  Elec       q    Type
REMARK                         _______ _______ _______ _____ _____    ______ ____
ROOT
ATOM      1  O   UNL     1      19.278  -0.057  55.754  0.00  0.00    +0.000 OA
ATOM      2  O   UNL     1      19.154   2.452  52.567  0.00  0.00    +0.000 OA
ATOM      3  C   UNL     1      18.303   0.516  53.619  0.00  0.00    +0.000 A 
ATOM      4  C   UNL     1      18.333  -0.206  54.757  0.00  0.00    +0.000 A 
ATOM      5  C   UNL     1      19.284   1.630  53.466  0.00  0.00    +0.000 A 
ATOM      6  C   UNL     1      20.372   1.698  54.467  0.00  0.00    +0.000 A 
ATOM      7  C   UNL     1      20.293   0.845  55.569  0.00  0.00    +0.000 A 
ATOM      8  C   UNL     1      21.458   2.579  54.367  0.00  0.00    +0.000 A 
ATOM      9  C   UNL     1      21.272   0.875  56.564  0.00  0.00    +0.000 A 
ATOM     10  C   UNL     1      22.444   2.612  55.358  0.00  0.00    +0.000 A 
ATOM     11  C   UNL     1      22.338   1.757  56.451  0.00  0.00    +0.000 A 
ENDROOT
BRANCH   4  12
ATOM     12  C   UNL     1      17.356  -1.276  55.051  0.00  0.00    +0.000 A 
ATOM     13  C   UNL     1      16.521  -1.163  56.177  0.00  0.00    +0.000 A 
ATOM     14  C   UNL     1      17.239  -2.405  54.221  0.00  0.00    +0.000 A 
ATOM     15  C   UNL     1      15.615  -2.177  56.466  0.00  0.00    +0.000 A 
ATOM     16  C   UNL     1      16.328  -3.421  54.522  0.00  0.00    +0.000 A 
ATOM     17  C   UNL     1      15.528  -3.298  55.646  0.00  0.00    +0.000 A 
BRANCH  15  18
ATOM     18  O   UNL     1      14.788  -2.120  57.554  0.00  0.00    +0.000 OA
ATOM     19  H   UNL     1      15.052  -1.361  58.102  0.00  0.00    +0.000 HD
ENDBRANCH  15  18
BRANCH  17  20
ATOM     20  O   UNL     1      14.641  -4.293  55.942  0.00  0.00    +0.000 OA
ATOM     21  H   UNL     1      14.632  -4.865  55.148  0.00  0.00    +0.000 HD
ENDBRANCH  17  20
ENDBRANCH   4  12
BRANCH   8  22
ATOM     22  O   UNL     1      21.587   3.408  53.289  0.00  0.00    +0.000 OA
ATOM     23  H   UNL     1      21.316   2.963  52.471  0.00  0.00    +0.000 HD
ENDBRANCH   8  22
BRANCH  11  24
ATOM     24  O   UNL     1      23.271   1.750  57.444  0.00  0.00    +0.000 OA
ATOM     25  H   UNL     1      24.160   1.718  57.054  0.00  0.00    +0.000 HD
ENDBRANCH  11  24
BRANCH   3  26
ATOM     26  O   UNL     1      17.350   0.354  52.625  0.00  0.00    +0.000 OA
BRANCH  26  32
ATOM     27  O   UNL     1      15.196   0.889  53.526  0.00  0.00    +0.000 OA
ATOM     28  C   UNL     1      15.036   0.645  50.657  0.00  0.00    +0.000 C 
ATOM     29  C   UNL     1      13.890   0.201  51.573  0.00  0.00    +0.000 C 
ATOM     30  C   UNL     1      15.864   1.751  51.312  0.00  0.00    +0.000 C 
ATOM     31  C   UNL     1      14.461  -0.196  52.940  0.00  0.00    +0.000 C 
ATOM     32  C   UNL     1      16.302   1.329  52.732  0.00  0.00    +0.000 C 
ATOM     33  C   UNL     1      13.358  -0.579  53.921  0.00  0.00    +0.000 C 
BRANCH  28  34
ATOM     34  O   UNL     1      14.472   1.119  49.419  0.00  0.00    +0.000 OA
ATOM     35  H   UNL     1      13.871   0.401  49.127  0.00  0.00    +0.000 HD
ENDBRANCH  28  34
BRANCH  29  36
ATOM     36  O   UNL     1      13.194  -0.887  50.956  0.00  0.00    +0.000 OA
ATOM     37  H   UNL     1      13.886  -1.533  50.712  0.00  0.00    +0.000 HD
ENDBRANCH  29  36
BRANCH  30  38
ATOM     38  O   UNL     1      15.054   2.946  51.325  0.00  0.00    +0.000 OA
ATOM     39  H   UNL     1      15.039   3.297  50.416  0.00  0.00    +0.000 HD
ENDBRANCH  30  38
ENDBRANCH  26  32
ENDBRANCH   3  26
TORSDOF 10
ENDMDL
MODEL 9
REMARK VINA RESULT:      -4.2      8.055     12.401
REMARK  Name = 
REMARK  11 active torsions:
REMARK  status: ('A' for Active; 'I' for Inactive)
REMARK    1  A    between atoms: O_2  and  C_16
REMARK    2  A    between atoms: O_2  and  C_18
REMARK    3  A    between atoms: O_3  and  C_12
REMARK    4  A    between atoms: O_4  and  C_13
REMARK    5  A    between atoms: O_5  and  C_14
REMARK    6  A    between atoms: O_8  and  C_24
REMARK    7  A    between atoms: O_9  and  C_29
REMARK    8  A    between atoms: O_10  and  C_30
REMARK    9  A    between atoms: O_11  and  C_32
REMARK   10  A    between atoms: C_15  and  C_17
REMARK   11  A    between atoms: C_19  and  C_23
REMARK                            x       y       z     vdW  Elec       q    Type
REMARK                         _______ _______ _______ _____ _____    ______ ____
ROOT
ATOM      1  O   UNL     1      20.114   9.014  60.584  0.00  0.00    +0.000 OA
ATOM      2  O   UNL     1      16.830  10.995  59.258  0.00  0.00    +0.000 OA
ATOM      3  C   UNL     1      19.008  10.208  58.798  0.00  0.00    +0.000 A 
ATOM      4  C   UNL     1      20.014   9.449  59.275  0.00  0.00    +0.000 A 
ATOM      5  C   UNL     1      17.862  10.510  59.704  0.00  0.00    +0.000 A 
ATOM      6  C   UNL     1      18.037  10.161  61.133  0.00  0.00    +0.000 A 
ATOM      7  C   UNL     1      19.162   9.415  61.484  0.00  0.00    +0.000 A 
ATOM      8  C   UNL     1      17.125  10.529  62.133  0.00  0.00    +0.000 A 
ATOM      9  C   UNL     1      19.375   9.029  62.810  0.00  0.00    +0.000 A 
ATOM     10  C   UNL     1      17.334  10.148  63.463  0.00  0.00    +0.000 A 
ATOM     11  C   UNL     1      18.460   9.398  63.787  0.00  0.00    +0.000 A 
ENDROOT
BRANCH   4  12
ATOM     12  C   UNL     1      21.156   9.017  58.442  0.00  0.00    +0.000 A 
ATOM     13  C   UNL     1      22.065   9.975  57.958  0.00  0.00    +0.000 A 
ATOM     14  C   UNL     1      21.358   7.661  58.126  0.00  0.00    +0.000 A 
ATOM     15  C   UNL     1      23.128   9.573  57.158  0.00  0.00    +0.000 A 
ATOM     16  C   UNL     1      22.427   7.268  57.318  0.00  0.00    +0.000 A 
ATOM     17  C   UNL     1      23.300   8.230  56.838  0.00  0.00    +0.000 A 
BRANCH  15  18
ATOM     18  O   UNL     1      24.034  10.467  56.655  0.00  0.00    +0.000 OA
ATOM     19  H   UNL     1      24.089  11.224  57.264  0.00  0.00    +0.000 HD
ENDBRANCH  15  18
BRANCH  17  20
ATOM     20  O   UNL     1      24.342   7.845  56.045  0.00  0.00    +0.000 OA
ATOM     21  H   UNL     1      24.712   8.681  55.695  0.00  0.00    +0.000 HD
ENDBRANCH  17  20
ENDBRANCH   4  12
BRANCH   8  22
ATOM     22  O   UNL     1      16.028  11.284  61.833  0.00  0.00    +0.000 OA
ATOM     23  H   UNL     1      15.246  10.972  62.315  0.00  0.00    +0.000 HD
ENDBRANCH   8  22
BRANCH  11  24
ATOM     24  O   UNL     1      18.710   9.001  65.066  0.00  0.00    +0.000 OA
ATOM     25  H   UNL     1      18.899   8.048  65.079  0.00  0.00    +0.000 HD
ENDBRANCH  11  24
BRANCH   3  26
ATOM     26  O   UNL     1      18.922  10.639  57.483  0.00  0.00    +0.000 OA
BRANCH  26  32
ATOM     27  O   UNL     1      18.885   8.787  55.965  0.00  0.00    +0.000 OA
ATOM     28  C   UNL     1      18.049  11.192  54.611  0.00  0.00    +0.000 C 
ATOM     29  C   UNL     1      18.868  10.106  53.903  0.00  0.00    +0.000 C 
ATOM     30  C   UNL     1      17.222  10.598  55.752  0.00  0.00    +0.000 C 
ATOM     31  C   UNL     1      19.713   9.355  54.938  0.00  0.00    +0.000 C 
ATOM     32  C   UNL     1      18.119   9.755  56.687  0.00  0.00    +0.000 C 
ATOM     33  C   UNL     1      20.496   8.212  54.303  0.00  0.00    +0.000 C 
BRANCH  28  34
ATOM     34  O   UNL     1      17.180  11.811  53.644  0.00  0.00    +0.000 OA
ATOM     35  H   UNL     1      16.331  11.941  54.116  0.00  0.00    +0.000 HD
ENDBRANCH  28  34
BRANCH  29  36
ATOM     36  O   UNL     1      19.683  10.718  52.899  0.00  0.00    +0.000 OA
ATOM     37  H   UNL     1      19.313  10.417  52.045  0.00  0.00    +0.000 HD
ENDBRANCH  29  36
BRANCH  30  38
ATOM     38  O   UNL     1      16.167   9.813  55.157  0.00  0.00    +0.000 OA
ATOM     39  H   UNL     1      15.640   9.436  55.885  0.00  0.00    +0.000 HD
ENDBRANCH  30  38
ENDBRANCH  26  32
ENDBRANCH   3  26
TORSDOF 10
ENDMDL
