MODEL 1
REMARK VINA RESULT:      -4.0      0.000      0.000
REMARK  Name = 
REMARK  14 active torsions:
REMARK  status: ('A' for Active; 'I' for Inactive)
REMARK    1  A    between atoms: O_1  and  C_24
REMARK    2  A    between atoms: O_1  and  C_36
REMARK    3  A    between atoms: O_4  and  C_30
REMARK    4  A    between atoms: O_4  and  C_37
REMARK    5  A    between atoms: O_7  and  C_33
REMARK    6  A    between atoms: O_7  and  C_38
REMARK    7  A    between atoms: N_10  and  C_23
REMARK    8  A    between atoms: C_15  and  C_26
REMARK    9  A    between atoms: C_16  and  C_24
REMARK   10  A    between atoms: C_31  and  C_34
REMARK   11  A    between atoms: C_32  and  C_35
REMARK   12  A    between atoms: C_36  and  C_39
REMARK   13  A    between atoms: C_39  and  C_40
REMARK   14  A    between atoms: C_41  and  C_42
REMARK                            x       y       z     vdW  Elec       q    Type
REMARK                         _______ _______ _______ _____ _____    ______ ____
ROOT
ATOM      1  O   UNL     1       1.641   5.800  61.850  0.00  0.00    +0.000 OA
ATOM      2  O   UNL     1       2.595  11.021  61.537  0.00  0.00    +0.000 OA
ATOM      3  O   UNL     1       5.097   2.952  60.552  0.00  0.00    +0.000 OA
ATOM      4  O   UNL     1       7.785   5.721  56.894  0.00  0.00    +0.000 OA
ATOM      5  N   UNL     1       4.104   7.373  58.262  0.00  0.00    +0.000 NA
ATOM      6  N   UNL     1       1.178   7.611  58.145  0.00  0.00    +0.000 NA
ATOM      7  C   UNL     1       3.196   6.269  58.671  0.00  0.00    +0.000 C 
ATOM      8  C   UNL     1       1.818   6.821  59.236  0.00  0.00    +0.000 C 
ATOM      9  C   UNL     1       2.027   8.794  57.851  0.00  0.00    +0.000 C 
ATOM     10  C   UNL     1       3.431   8.322  57.317  0.00  0.00    +0.000 C 
ATOM     11  C   UNL     1       5.473   6.974  57.831  0.00  0.00    +0.000 C 
ATOM     12  C   UNL     1       3.888   5.339  59.690  0.00  0.00    +0.000 C 
ATOM     13  C   UNL     1       2.188   9.721  59.088  0.00  0.00    +0.000 C 
ATOM     14  C   UNL     1       2.026   7.667  60.484  0.00  0.00    +0.000 C 
ATOM     15  C   UNL     1       2.217   8.993  60.408  0.00  0.00    +0.000 C 
ATOM     16  C   UNL     1       5.935   5.617  58.340  0.00  0.00    +0.000 C 
ATOM     17  C   UNL     1       5.229   4.880  59.205  0.00  0.00    +0.000 C 
ATOM     18  C   UNL     1      -0.223   7.930  58.398  0.00  0.00    +0.000 C 
ATOM     19  C   UNL     1       1.949   6.987  61.797  0.00  0.00    +0.000 C 
ATOM     20  C   UNL     1       2.431   9.809  61.621  0.00  0.00    +0.000 C 
ATOM     21  C   UNL     1       5.734   3.588  59.719  0.00  0.00    +0.000 C 
ATOM     22  C   UNL     1       7.213   5.101  57.784  0.00  0.00    +0.000 C 
ATOM     23  C   UNL     1       2.258   7.791  63.026  0.00  0.00    +0.000 C 
ATOM     24  C   UNL     1       2.458   9.115  62.935  0.00  0.00    +0.000 C 
ATOM     25  C   UNL     1       7.047   3.104  59.225  0.00  0.00    +0.000 C 
ATOM     26  C   UNL     1       7.757   3.815  58.334  0.00  0.00    +0.000 C 
ATOM     27  C   UNL     1       2.718  10.007  64.114  0.00  0.00    +0.000 C 
ATOM     28  C   UNL     1       7.494   1.790  59.798  0.00  0.00    +0.000 C 
ENDROOT
BRANCH  23  29
ATOM     29  O   UNL     1       2.278   7.194  64.281  0.00  0.00    +0.000 OA
ATOM     30  C   UNL     1       1.004   7.011  64.895  0.00  0.00    +0.000 C 
ENDBRANCH  23  29
BRANCH  26  31
ATOM     31  O   UNL     1       8.971   3.309  57.882  0.00  0.00    +0.000 OA
ATOM     32  C   UNL     1      10.127   3.901  58.472  0.00  0.00    +0.000 C 
ENDBRANCH  26  31
BRANCH  10  34
ATOM     33  N   UNL     1       3.148   7.418  54.839  0.00  0.00    +0.000 NA
ATOM     34  C   UNL     1       3.260   7.797  55.931  0.00  0.00    +0.000 C 
ENDBRANCH  10  34
BRANCH  11  35
ATOM     35  C   UNL     1       6.455   8.084  58.310  0.00  0.00    +0.000 C 
BRANCH  35  36
ATOM     36  O   UNL     1       6.041   8.554  59.611  0.00  0.00    +0.000 OA
BRANCH  36  38
ATOM     37  O   UNL     1       8.110   8.183  60.521  0.00  0.00    +0.000 OA
ATOM     38  C   UNL     1       6.896   8.263  60.619  0.00  0.00    +0.000 C 
BRANCH  38  39
ATOM     39  C   UNL     1       6.169   8.183  61.918  0.00  0.00    +0.000 C 
ATOM     40  C   UNL     1       5.654   6.805  62.226  0.00  0.00    +0.000 C 
ATOM     41  C   UNL     1       5.961   9.222  62.751  0.00  0.00    +0.000 C 
ATOM     42  C   UNL     1       6.315  10.661  62.547  0.00  0.00    +0.000 C 
ENDBRANCH  38  39
ENDBRANCH  36  38
ENDBRANCH  35  36
ENDBRANCH  11  35
TORSDOF 7
ENDMDL
MODEL 2
REMARK VINA RESULT:      -3.7     15.454     18.414
REMARK  Name = 
REMARK  14 active torsions:
REMARK  status: ('A' for Active; 'I' for Inactive)
REMARK    1  A    between atoms: O_1  and  C_24
REMARK    2  A    between atoms: O_1  and  C_36
REMARK    3  A    between atoms: O_4  and  C_30
REMARK    4  A    between atoms: O_4  and  C_37
REMARK    5  A    between atoms: O_7  and  C_33
REMARK    6  A    between atoms: O_7  and  C_38
REMARK    7  A    between atoms: N_10  and  C_23
REMARK    8  A    between atoms: C_15  and  C_26
REMARK    9  A    between atoms: C_16  and  C_24
REMARK   10  A    between atoms: C_31  and  C_34
REMARK   11  A    between atoms: C_32  and  C_35
REMARK   12  A    between atoms: C_36  and  C_39
REMARK   13  A    between atoms: C_39  and  C_40
REMARK   14  A    between atoms: C_41  and  C_42
REMARK                            x       y       z     vdW  Elec       q    Type
REMARK                         _______ _______ _______ _____ _____    ______ ____
ROOT
ATOM      1  O   UNL     1      10.184   8.372  77.277  0.00  0.00    +0.000 OA
ATOM      2  O   UNL     1       4.906   9.017  77.275  0.00  0.00    +0.000 OA
ATOM      3  O   UNL     1      11.801   4.295  75.692  0.00  0.00    +0.000 OA
ATOM      4  O   UNL     1       7.933   0.819  76.802  0.00  0.00    +0.000 OA
ATOM      5  N   UNL     1       7.526   4.751  78.393  0.00  0.00    +0.000 NA
ATOM      6  N   UNL     1       8.059   6.768  80.460  0.00  0.00    +0.000 NA
ATOM      7  C   UNL     1       8.877   5.330  78.613  0.00  0.00    +0.000 C 
ATOM      8  C   UNL     1       8.796   6.818  79.165  0.00  0.00    +0.000 C 
ATOM      9  C   UNL     1       6.664   6.330  80.200  0.00  0.00    +0.000 C 
ATOM     10  C   UNL     1       6.667   4.868  79.615  0.00  0.00    +0.000 C 
ATOM     11  C   UNL     1       7.483   3.403  77.761  0.00  0.00    +0.000 C 
ATOM     12  C   UNL     1       9.724   5.255  77.325  0.00  0.00    +0.000 C 
ATOM     13  C   UNL     1       5.911   7.304  79.252  0.00  0.00    +0.000 C 
ATOM     14  C   UNL     1       8.109   7.743  78.171  0.00  0.00    +0.000 C 
ATOM     15  C   UNL     1       6.783   7.945  78.202  0.00  0.00    +0.000 C 
ATOM     16  C   UNL     1       8.726   3.026  76.969  0.00  0.00    +0.000 C 
ATOM     17  C   UNL     1       9.738   3.873  76.747  0.00  0.00    +0.000 C 
ATOM     18  C   UNL     1       8.162   7.999  81.239  0.00  0.00    +0.000 C 
ATOM     19  C   UNL     1       8.963   8.467  77.201  0.00  0.00    +0.000 C 
ATOM     20  C   UNL     1       6.118   8.836  77.229  0.00  0.00    +0.000 C 
ATOM     21  C   UNL     1      10.909   3.488  75.929  0.00  0.00    +0.000 C 
ATOM     22  C   UNL     1       8.802   1.624  76.481  0.00  0.00    +0.000 C 
ATOM     23  C   UNL     1       8.287   9.298  76.152  0.00  0.00    +0.000 C 
ATOM     24  C   UNL     1       6.957   9.484  76.187  0.00  0.00    +0.000 C 
ATOM     25  C   UNL     1      10.953   2.112  75.375  0.00  0.00    +0.000 C 
ATOM     26  C   UNL     1       9.961   1.239  75.610  0.00  0.00    +0.000 C 
ATOM     27  C   UNL     1       6.203  10.341  75.213  0.00  0.00    +0.000 C 
ATOM     28  C   UNL     1      12.168   1.801  74.550  0.00  0.00    +0.000 C 
ENDROOT
BRANCH  23  29
ATOM     29  O   UNL     1       9.027   9.941  75.166  0.00  0.00    +0.000 OA
ATOM     30  C   UNL     1       9.625  11.175  75.554  0.00  0.00    +0.000 C 
ENDBRANCH  23  29
BRANCH  26  31
ATOM     31  O   UNL     1      10.058  -0.047  75.089  0.00  0.00    +0.000 OA
ATOM     32  C   UNL     1      10.590  -1.022  75.984  0.00  0.00    +0.000 C 
ENDBRANCH  26  31
BRANCH  10  34
ATOM     33  N   UNL     1       7.255   3.179  81.574  0.00  0.00    +0.000 NA
ATOM     34  C   UNL     1       7.018   3.918  80.711  0.00  0.00    +0.000 C 
ENDBRANCH  10  34
BRANCH  11  35
ATOM     35  C   UNL     1       6.231   3.361  76.835  0.00  0.00    +0.000 C 
BRANCH  35  36
ATOM     36  O   UNL     1       5.770   4.709  76.600  0.00  0.00    +0.000 OA
BRANCH  36  38
ATOM     37  O   UNL     1       4.756   4.284  74.591  0.00  0.00    +0.000 OA
ATOM     38  C   UNL     1       4.777   4.819  75.687  0.00  0.00    +0.000 C 
BRANCH  38  39
ATOM     39  C   UNL     1       3.628   5.584  76.250  0.00  0.00    +0.000 C 
ATOM     40  C   UNL     1       3.109   5.012  77.540  0.00  0.00    +0.000 C 
ATOM     41  C   UNL     1       3.074   6.674  75.683  0.00  0.00    +0.000 C 
ATOM     42  C   UNL     1       3.402   7.303  74.366  0.00  0.00    +0.000 C 
ENDBRANCH  38  39
ENDBRANCH  36  38
ENDBRANCH  35  36
ENDBRANCH  11  35
TORSDOF 7
ENDMDL
MODEL 3
REMARK VINA RESULT:      -3.7     13.855     17.312
REMARK  Name = 
REMARK  14 active torsions:
REMARK  status: ('A' for Active; 'I' for Inactive)
REMARK    1  A    between atoms: O_1  and  C_24
REMARK    2  A    between atoms: O_1  and  C_36
REMARK    3  A    between atoms: O_4  and  C_30
REMARK    4  A    between atoms: O_4  and  C_37
REMARK    5  A    between atoms: O_7  and  C_33
REMARK    6  A    between atoms: O_7  and  C_38
REMARK    7  A    between atoms: N_10  and  C_23
REMARK    8  A    between atoms: C_15  and  C_26
REMARK    9  A    between atoms: C_16  and  C_24
REMARK   10  A    between atoms: C_31  and  C_34
REMARK   11  A    between atoms: C_32  and  C_35
REMARK   12  A    between atoms: C_36  and  C_39
REMARK   13  A    between atoms: C_39  and  C_40
REMARK   14  A    between atoms: C_41  and  C_42
REMARK                            x       y       z     vdW  Elec       q    Type
REMARK                         _______ _______ _______ _____ _____    ______ ____
ROOT
ATOM      1  O   UNL     1      21.903  -0.172  59.823  0.00  0.00    +0.000 OA
ATOM      2  O   UNL     1      18.083  -1.743  63.170  0.00  0.00    +0.000 OA
ATOM      3  O   UNL     1      20.546   1.175  55.570  0.00  0.00    +0.000 OA
ATOM      4  O   UNL     1      16.133  -1.641  54.639  0.00  0.00    +0.000 OA
ATOM      5  N   UNL     1      18.371  -2.634  58.127  0.00  0.00    +0.000 NA
ATOM      6  N   UNL     1      20.543  -4.078  59.476  0.00  0.00    +0.000 NA
ATOM      7  C   UNL     1      19.804  -2.319  57.892  0.00  0.00    +0.000 C 
ATOM      8  C   UNL     1      20.690  -2.625  59.175  0.00  0.00    +0.000 C 
ATOM      9  C   UNL     1      19.132  -4.346  59.855  0.00  0.00    +0.000 C 
ATOM     10  C   UNL     1      18.186  -4.030  58.637  0.00  0.00    +0.000 C 
ATOM     11  C   UNL     1      17.429  -2.270  57.031  0.00  0.00    +0.000 C 
ATOM     12  C   UNL     1      19.977  -0.858  57.426  0.00  0.00    +0.000 C 
ATOM     13  C   UNL     1      18.700  -3.544  61.114  0.00  0.00    +0.000 C 
ATOM     14  C   UNL     1      20.269  -1.766  60.359  0.00  0.00    +0.000 C 
ATOM     15  C   UNL     1      19.341  -2.184  61.233  0.00  0.00    +0.000 C 
ATOM     16  C   UNL     1      17.935  -1.196  56.081  0.00  0.00    +0.000 C 
ATOM     17  C   UNL     1      19.082  -0.533  56.269  0.00  0.00    +0.000 C 
ATOM     18  C   UNL     1      21.523  -4.578  60.436  0.00  0.00    +0.000 C 
ATOM     19  C   UNL     1      20.965  -0.474  60.554  0.00  0.00    +0.000 C 
ATOM     20  C   UNL     1      18.926  -1.344  62.375  0.00  0.00    +0.000 C 
ATOM     21  C   UNL     1      19.518   0.543  55.352  0.00  0.00    +0.000 C 
ATOM     22  C   UNL     1      17.110  -0.937  54.871  0.00  0.00    +0.000 C 
ATOM     23  C   UNL     1      20.486   0.425  61.655  0.00  0.00    +0.000 C 
ATOM     24  C   UNL     1      19.547  -0.001  62.516  0.00  0.00    +0.000 C 
ATOM     25  C   UNL     1      18.659   0.857  54.183  0.00  0.00    +0.000 C 
ATOM     26  C   UNL     1      17.519   0.183  53.961  0.00  0.00    +0.000 C 
ATOM     27  C   UNL     1      19.046   0.806  63.678  0.00  0.00    +0.000 C 
ATOM     28  C   UNL     1      19.165   1.964  53.305  0.00  0.00    +0.000 C 
ENDROOT
BRANCH  23  29
ATOM     29  O   UNL     1      21.046   1.683  61.842  0.00  0.00    +0.000 OA
ATOM     30  C   UNL     1      20.581   2.700  60.958  0.00  0.00    +0.000 C 
ENDBRANCH  23  29
BRANCH  26  31
ATOM     31  O   UNL     1      16.758   0.497  52.840  0.00  0.00    +0.000 OA
ATOM     32  C   UNL     1      15.658   1.371  53.083  0.00  0.00    +0.000 C 
ENDBRANCH  26  31
BRANCH  10  34
ATOM     33  N   UNL     1      18.522  -5.896  56.781  0.00  0.00    +0.000 NA
ATOM     34  C   UNL     1      18.366  -5.094  57.606  0.00  0.00    +0.000 C 
ENDBRANCH  10  34
BRANCH  11  35
ATOM     35  C   UNL     1      16.097  -1.809  57.694  0.00  0.00    +0.000 C 
BRANCH  35  36
ATOM     36  O   UNL     1      16.379  -1.281  59.007  0.00  0.00    +0.000 OA
BRANCH  36  38
ATOM     37  O   UNL     1      14.326  -0.269  59.080  0.00  0.00    +0.000 OA
ATOM     38  C   UNL     1      15.322  -0.709  59.630  0.00  0.00    +0.000 C 
BRANCH  38  39
ATOM     39  C   UNL     1      15.468  -0.807  61.110  0.00  0.00    +0.000 C 
ATOM     40  C   UNL     1      15.908   0.480  61.750  0.00  0.00    +0.000 C 
ATOM     41  C   UNL     1      15.252  -1.923  61.835  0.00  0.00    +0.000 C 
ATOM     42  C   UNL     1      14.914  -3.296  61.347  0.00  0.00    +0.000 C 
ENDBRANCH  38  39
ENDBRANCH  36  38
ENDBRANCH  35  36
ENDBRANCH  11  35
TORSDOF 7
ENDMDL
MODEL 4
REMARK VINA RESULT:      -3.6      9.611     13.276
REMARK  Name = 
REMARK  14 active torsions:
REMARK  status: ('A' for Active; 'I' for Inactive)
REMARK    1  A    between atoms: O_1  and  C_24
REMARK    2  A    between atoms: O_1  and  C_36
REMARK    3  A    between atoms: O_4  and  C_30
REMARK    4  A    between atoms: O_4  and  C_37
REMARK    5  A    between atoms: O_7  and  C_33
REMARK    6  A    between atoms: O_7  and  C_38
REMARK    7  A    between atoms: N_10  and  C_23
REMARK    8  A    between atoms: C_15  and  C_26
REMARK    9  A    between atoms: C_16  and  C_24
REMARK   10  A    between atoms: C_31  and  C_34
REMARK   11  A    between atoms: C_32  and  C_35
REMARK   12  A    between atoms: C_36  and  C_39
REMARK   13  A    between atoms: C_39  and  C_40
REMARK   14  A    between atoms: C_41  and  C_42
REMARK                            x       y       z     vdW  Elec       q    Type
REMARK                         _______ _______ _______ _____ _____    ______ ____
ROOT
ATOM      1  O   UNL     1      14.978  14.723  55.666  0.00  0.00    +0.000 OA
ATOM      2  O   UNL     1      17.503  16.989  59.759  0.00  0.00    +0.000 OA
ATOM      3  O   UNL     1      10.663  13.149  56.472  0.00  0.00    +0.000 OA
ATOM      4  O   UNL     1      10.676  11.842  61.626  0.00  0.00    +0.000 OA
ATOM      5  N   UNL     1      14.417  12.893  59.879  0.00  0.00    +0.000 NA
ATOM      6  N   UNL     1      16.852  12.210  58.385  0.00  0.00    +0.000 NA
ATOM      7  C   UNL     1      14.396  12.545  58.435  0.00  0.00    +0.000 C 
ATOM      8  C   UNL     1      15.749  12.955  57.712  0.00  0.00    +0.000 C 
ATOM      9  C   UNL     1      16.956  12.680  59.790  0.00  0.00    +0.000 C 
ATOM     10  C   UNL     1      15.628  12.338  60.565  0.00  0.00    +0.000 C 
ATOM     11  C   UNL     1      13.151  12.665  60.630  0.00  0.00    +0.000 C 
ATOM     12  C   UNL     1      13.173  13.177  57.736  0.00  0.00    +0.000 C 
ATOM     13  C   UNL     1      17.274  14.198  59.879  0.00  0.00    +0.000 C 
ATOM     14  C   UNL     1      15.979  14.459  57.770  0.00  0.00    +0.000 C 
ATOM     15  C   UNL     1      16.660  15.025  58.777  0.00  0.00    +0.000 C 
ATOM     16  C   UNL     1      11.897  12.613  59.772  0.00  0.00    +0.000 C 
ATOM     17  C   UNL     1      11.897  12.869  58.458  0.00  0.00    +0.000 C 
ATOM     18  C   UNL     1      18.113  12.242  57.651  0.00  0.00    +0.000 C 
ATOM     19  C   UNL     1      15.478  15.275  56.640  0.00  0.00    +0.000 C 
ATOM     20  C   UNL     1      16.871  16.486  58.836  0.00  0.00    +0.000 C 
ATOM     21  C   UNL     1      10.649  12.859  57.663  0.00  0.00    +0.000 C 
ATOM     22  C   UNL     1      10.642  12.204  60.454  0.00  0.00    +0.000 C 
ATOM     23  C   UNL     1      15.606  16.766  56.739  0.00  0.00    +0.000 C 
ATOM     24  C   UNL     1      16.280  17.322  57.759  0.00  0.00    +0.000 C 
ATOM     25  C   UNL     1       9.381  12.526  58.357  0.00  0.00    +0.000 C 
ATOM     26  C   UNL     1       9.364  12.237  59.669  0.00  0.00    +0.000 C 
ATOM     27  C   UNL     1      16.506  18.798  57.910  0.00  0.00    +0.000 C 
ATOM     28  C   UNL     1       8.159  12.544  57.485  0.00  0.00    +0.000 C 
ENDROOT
BRANCH  23  29
ATOM     29  O   UNL     1      15.087  17.593  55.749  0.00  0.00    +0.000 OA
ATOM     30  C   UNL     1      13.687  17.843  55.830  0.00  0.00    +0.000 C 
ENDBRANCH  23  29
BRANCH  26  31
ATOM     31  O   UNL     1       8.154  11.907  60.270  0.00  0.00    +0.000 OA
ATOM     32  C   UNL     1       7.874  10.510  60.334  0.00  0.00    +0.000 C 
ENDBRANCH  26  31
BRANCH  10  34
ATOM     33  N   UNL     1      15.525   9.717  60.961  0.00  0.00    +0.000 NA
ATOM     34  C   UNL     1      15.584  10.866  60.804  0.00  0.00    +0.000 C 
ENDBRANCH  10  34
BRANCH  11  35
ATOM     35  C   UNL     1      13.024  13.802  61.688  0.00  0.00    +0.000 C 
BRANCH  35  36
ATOM     36  O   UNL     1      13.436  15.051  61.092  0.00  0.00    +0.000 OA
BRANCH  36  38
ATOM     37  O   UNL     1      12.606  16.882  62.190  0.00  0.00    +0.000 OA
ATOM     38  C   UNL     1      12.573  16.078  61.272  0.00  0.00    +0.000 C 
BRANCH  38  39
ATOM     39  C   UNL     1      11.641  16.190  60.115  0.00  0.00    +0.000 C 
ATOM     40  C   UNL     1      12.317  16.633  58.848  0.00  0.00    +0.000 C 
ATOM     41  C   UNL     1      10.317  15.943  60.164  0.00  0.00    +0.000 C 
ATOM     42  C   UNL     1       9.480  15.596  61.355  0.00  0.00    +0.000 C 
ENDBRANCH  38  39
ENDBRANCH  36  38
ENDBRANCH  35  36
ENDBRANCH  11  35
TORSDOF 7
ENDMDL
MODEL 5
REMARK VINA RESULT:      -3.6     13.864     16.647
REMARK  Name = 
REMARK  14 active torsions:
REMARK  status: ('A' for Active; 'I' for Inactive)
REMARK    1  A    between atoms: O_1  and  C_24
REMARK    2  A    between atoms: O_1  and  C_36
REMARK    3  A    between atoms: O_4  and  C_30
REMARK    4  A    between atoms: O_4  and  C_37
REMARK    5  A    between atoms: O_7  and  C_33
REMARK    6  A    between atoms: O_7  and  C_38
REMARK    7  A    between atoms: N_10  and  C_23
REMARK    8  A    between atoms: C_15  and  C_26
REMARK    9  A    between atoms: C_16  and  C_24
REMARK   10  A    between atoms: C_31  and  C_34
REMARK   11  A    between atoms: C_32  and  C_35
REMARK   12  A    between atoms: C_36  and  C_39
REMARK   13  A    between atoms: C_39  and  C_40
REMARK   14  A    between atoms: C_41  and  C_42
REMARK                            x       y       z     vdW  Elec       q    Type
REMARK                         _______ _______ _______ _____ _____    ______ ____
ROOT
ATOM      1  O   UNL     1      17.119   8.553  74.041  0.00  0.00    +0.000 OA
ATOM      2  O   UNL     1      11.976   7.931  72.844  0.00  0.00    +0.000 OA
ATOM      3  O   UNL     1      20.137   8.375  70.491  0.00  0.00    +0.000 OA
ATOM      4  O   UNL     1      17.818   5.161  66.946  0.00  0.00    +0.000 OA
ATOM      5  N   UNL     1      15.978   5.478  70.776  0.00  0.00    +0.000 NA
ATOM      6  N   UNL     1      15.715   4.674  73.589  0.00  0.00    +0.000 NA
ATOM      7  C   UNL     1      17.018   5.781  71.793  0.00  0.00    +0.000 C 
ATOM      8  C   UNL     1      16.390   5.958  73.242  0.00  0.00    +0.000 C 
ATOM      9  C   UNL     1      14.582   4.462  72.652  0.00  0.00    +0.000 C 
ATOM     10  C   UNL     1      15.128   4.313  71.183  0.00  0.00    +0.000 C 
ATOM     11  C   UNL     1      16.440   5.414  69.362  0.00  0.00    +0.000 C 
ATOM     12  C   UNL     1      17.842   7.021  71.384  0.00  0.00    +0.000 C 
ATOM     13  C   UNL     1      13.529   5.601  72.738  0.00  0.00    +0.000 C 
ATOM     14  C   UNL     1      15.416   7.127  73.288  0.00  0.00    +0.000 C 
ATOM     15  C   UNL     1      14.110   6.961  73.035  0.00  0.00    +0.000 C 
ATOM     16  C   UNL     1      17.739   6.150  69.077  0.00  0.00    +0.000 C 
ATOM     17  C   UNL     1      18.369   6.903  69.987  0.00  0.00    +0.000 C 
ATOM     18  C   UNL     1      15.351   4.567  74.999  0.00  0.00    +0.000 C 
ATOM     19  C   UNL     1      15.949   8.451  73.684  0.00  0.00    +0.000 C 
ATOM     20  C   UNL     1      13.169   8.100  73.069  0.00  0.00    +0.000 C 
ATOM     21  C   UNL     1      19.604   7.649  69.660  0.00  0.00    +0.000 C 
ATOM     22  C   UNL     1      18.330   5.957  67.727  0.00  0.00    +0.000 C 
ATOM     23  C   UNL     1      15.021   9.628  73.630  0.00  0.00    +0.000 C 
ATOM     24  C   UNL     1      13.717   9.450  73.364  0.00  0.00    +0.000 C 
ATOM     25  C   UNL     1      20.157   7.518  68.288  0.00  0.00    +0.000 C 
ATOM     26  C   UNL     1      19.556   6.745  67.370  0.00  0.00    +0.000 C 
ATOM     27  C   UNL     1      12.706  10.559  73.343  0.00  0.00    +0.000 C 
ATOM     28  C   UNL     1      21.407   8.310  68.032  0.00  0.00    +0.000 C 
ENDROOT
BRANCH  23  29
ATOM     29  O   UNL     1      15.479  10.909  73.915  0.00  0.00    +0.000 OA
ATOM     30  C   UNL     1      15.574  11.233  75.300  0.00  0.00    +0.000 C 
ENDBRANCH  23  29
BRANCH  26  31
ATOM     31  O   UNL     1      20.124   6.636  66.105  0.00  0.00    +0.000 OA
ATOM     32  C   UNL     1      19.486   7.407  65.089  0.00  0.00    +0.000 C 
ENDBRANCH  26  31
BRANCH  10  34
ATOM     33  N   UNL     1      16.292   1.942  70.936  0.00  0.00    +0.000 NA
ATOM     34  C   UNL     1      15.798   2.985  71.057  0.00  0.00    +0.000 C 
ENDBRANCH  10  34
BRANCH  11  35
ATOM     35  C   UNL     1      15.297   5.987  68.471  0.00  0.00    +0.000 C 
BRANCH  35  36
ATOM     36  O   UNL     1      14.677   7.098  69.153  0.00  0.00    +0.000 OA
BRANCH  36  38
ATOM     37  O   UNL     1      13.522   7.999  67.392  0.00  0.00    +0.000 OA
ATOM     38  C   UNL     1      14.275   8.108  68.346  0.00  0.00    +0.000 C 
BRANCH  38  39
ATOM     39  C   UNL     1      14.770   9.418  68.858  0.00  0.00    +0.000 C 
ATOM     40  C   UNL     1      13.787  10.115  69.756  0.00  0.00    +0.000 C 
ATOM     41  C   UNL     1      15.966   9.962  68.556  0.00  0.00    +0.000 C 
ATOM     42  C   UNL     1      17.006   9.452  67.609  0.00  0.00    +0.000 C 
ENDBRANCH  38  39
ENDBRANCH  36  38
ENDBRANCH  35  36
ENDBRANCH  11  35
TORSDOF 7
ENDMDL
MODEL 6
REMARK VINA RESULT:      -3.6     13.876     17.359
REMARK  Name = 
REMARK  14 active torsions:
REMARK  status: ('A' for Active; 'I' for Inactive)
REMARK    1  A    between atoms: O_1  and  C_24
REMARK    2  A    between atoms: O_1  and  C_36
REMARK    3  A    between atoms: O_4  and  C_30
REMARK    4  A    between atoms: O_4  and  C_37
REMARK    5  A    between atoms: O_7  and  C_33
REMARK    6  A    between atoms: O_7  and  C_38
REMARK    7  A    between atoms: N_10  and  C_23
REMARK    8  A    between atoms: C_15  and  C_26
REMARK    9  A    between atoms: C_16  and  C_24
REMARK   10  A    between atoms: C_31  and  C_34
REMARK   11  A    between atoms: C_32  and  C_35
REMARK   12  A    between atoms: C_36  and  C_39
REMARK   13  A    between atoms: C_39  and  C_40
REMARK   14  A    between atoms: C_41  and  C_42
REMARK                            x       y       z     vdW  Elec       q    Type
REMARK                         _______ _______ _______ _____ _____    ______ ____
ROOT
ATOM      1  O   UNL     1      17.720   7.157  66.770  0.00  0.00    +0.000 OA
ATOM      2  O   UNL     1      20.900   5.244  70.577  0.00  0.00    +0.000 OA
ATOM      3  O   UNL     1      14.272   9.983  68.139  0.00  0.00    +0.000 OA
ATOM      4  O   UNL     1      13.109   8.356  73.066  0.00  0.00    +0.000 OA
ATOM      5  N   UNL     1      15.828   5.963  70.821  0.00  0.00    +0.000 NA
ATOM      6  N   UNL     1      16.397   3.836  68.878  0.00  0.00    +0.000 NA
ATOM      7  C   UNL     1      15.518   6.101  69.374  0.00  0.00    +0.000 C 
ATOM      8  C   UNL     1      16.527   5.266  68.476  0.00  0.00    +0.000 C 
ATOM      9  C   UNL     1      16.854   3.692  70.284  0.00  0.00    +0.000 C 
ATOM     10  C   UNL     1      15.916   4.526  71.235  0.00  0.00    +0.000 C 
ATOM     11  C   UNL     1      15.019   6.802  71.750  0.00  0.00    +0.000 C 
ATOM     12  C   UNL     1      15.492   7.586  68.957  0.00  0.00    +0.000 C 
ATOM     13  C   UNL     1      18.339   4.112  70.464  0.00  0.00    +0.000 C 
ATOM     14  C   UNL     1      17.958   5.761  68.639  0.00  0.00    +0.000 C 
ATOM     15  C   UNL     1      18.777   5.243  69.567  0.00  0.00    +0.000 C 
ATOM     16  C   UNL     1      14.377   8.025  71.115  0.00  0.00    +0.000 C 
ATOM     17  C   UNL     1      14.608   8.401  69.851  0.00  0.00    +0.000 C 
ATOM     18  C   UNL     1      17.031   2.907  67.947  0.00  0.00    +0.000 C 
ATOM     19  C   UNL     1      18.440   6.794  67.695  0.00  0.00    +0.000 C 
ATOM     20  C   UNL     1      20.161   5.733  69.730  0.00  0.00    +0.000 C 
ATOM     21  C   UNL     1      14.007   9.627  69.281  0.00  0.00    +0.000 C 
ATOM     22  C   UNL     1      13.415   8.783  71.957  0.00  0.00    +0.000 C 
ATOM     23  C   UNL     1      19.811   7.363  67.914  0.00  0.00    +0.000 C 
ATOM     24  C   UNL     1      20.617   6.843  68.854  0.00  0.00    +0.000 C 
ATOM     25  C   UNL     1      13.104  10.429  70.145  0.00  0.00    +0.000 C 
ATOM     26  C   UNL     1      12.838  10.053  71.406  0.00  0.00    +0.000 C 
ATOM     27  C   UNL     1      22.021   7.311  69.107  0.00  0.00    +0.000 C 
ATOM     28  C   UNL     1      12.540  11.661  69.498  0.00  0.00    +0.000 C 
ENDROOT
BRANCH  23  29
ATOM     29  O   UNL     1      20.293   8.390  67.110  0.00  0.00    +0.000 OA
ATOM     30  C   UNL     1      20.813   7.987  65.846  0.00  0.00    +0.000 C 
ENDBRANCH  23  29
BRANCH  26  31
ATOM     31  O   UNL     1      11.967  10.825  72.168  0.00  0.00    +0.000 OA
ATOM     32  C   UNL     1      10.615  10.370  72.185  0.00  0.00    +0.000 C 
ENDBRANCH  26  31
BRANCH  10  34
ATOM     33  N   UNL     1      13.578   3.291  71.452  0.00  0.00    +0.000 NA
ATOM     34  C   UNL     1      14.601   3.829  71.336  0.00  0.00    +0.000 C 
ENDBRANCH  10  34
BRANCH  11  35
ATOM     35  C   UNL     1      15.953   7.238  72.918  0.00  0.00    +0.000 C 
BRANCH  35  36
ATOM     36  O   UNL     1      17.266   7.526  72.393  0.00  0.00    +0.000 OA
BRANCH  36  38
ATOM     37  O   UNL     1      18.413   8.947  73.776  0.00  0.00    +0.000 OA
ATOM     38  C   UNL     1      17.774   8.726  72.760  0.00  0.00    +0.000 C 
BRANCH  38  39
ATOM     39  C   UNL     1      17.568   9.736  71.683  0.00  0.00    +0.000 C 
ATOM     40  C   UNL     1      18.381   9.462  70.449  0.00  0.00    +0.000 C 
ATOM     41  C   UNL     1      16.755  10.807  71.775  0.00  0.00    +0.000 C 
ATOM     42  C   UNL     1      15.964  11.273  72.956  0.00  0.00    +0.000 C 
ENDBRANCH  38  39
ENDBRANCH  36  38
ENDBRANCH  35  36
ENDBRANCH  11  35
TORSDOF 7
ENDMDL
MODEL 7
REMARK VINA RESULT:      -3.5     11.903     15.367
REMARK  Name = 
REMARK  14 active torsions:
REMARK  status: ('A' for Active; 'I' for Inactive)
REMARK    1  A    between atoms: O_1  and  C_24
REMARK    2  A    between atoms: O_1  and  C_36
REMARK    3  A    between atoms: O_4  and  C_30
REMARK    4  A    between atoms: O_4  and  C_37
REMARK    5  A    between atoms: O_7  and  C_33
REMARK    6  A    between atoms: O_7  and  C_38
REMARK    7  A    between atoms: N_10  and  C_23
REMARK    8  A    between atoms: C_15  and  C_26
REMARK    9  A    between atoms: C_16  and  C_24
REMARK   10  A    between atoms: C_31  and  C_34
REMARK   11  A    between atoms: C_32  and  C_35
REMARK   12  A    between atoms: C_36  and  C_39
REMARK   13  A    between atoms: C_39  and  C_40
REMARK   14  A    between atoms: C_41  and  C_42
REMARK                            x       y       z     vdW  Elec       q    Type
REMARK                         _______ _______ _______ _____ _____    ______ ____
ROOT
ATOM      1  O   UNL     1      19.728  13.925  56.896  0.00  0.00    +0.000 OA
ATOM      2  O   UNL     1      16.942   9.683  55.313  0.00  0.00    +0.000 OA
ATOM      3  O   UNL     1      19.219  15.231  61.343  0.00  0.00    +0.000 OA
ATOM      4  O   UNL     1      14.279  13.724  62.605  0.00  0.00    +0.000 OA
ATOM      5  N   UNL     1      15.426  13.393  58.514  0.00  0.00    +0.000 NA
ATOM      6  N   UNL     1      15.764  14.530  55.827  0.00  0.00    +0.000 NA
ATOM      7  C   UNL     1      16.447  14.428  58.209  0.00  0.00    +0.000 C 
ATOM      8  C   UNL     1      16.952  14.330  56.706  0.00  0.00    +0.000 C 
ATOM      9  C   UNL     1      14.820  13.403  56.038  0.00  0.00    +0.000 C 
ATOM     10  C   UNL     1      14.301  13.414  57.525  0.00  0.00    +0.000 C 
ATOM     11  C   UNL     1      14.971  13.314  59.931  0.00  0.00    +0.000 C 
ATOM     12  C   UNL     1      17.625  14.348  59.203  0.00  0.00    +0.000 C 
ATOM     13  C   UNL     1      15.457  12.030  55.685  0.00  0.00    +0.000 C 
ATOM     14  C   UNL     1      17.627  12.993  56.432  0.00  0.00    +0.000 C 
ATOM     15  C   UNL     1      16.932  11.937  55.984  0.00  0.00    +0.000 C 
ATOM     16  C   UNL     1      15.936  13.904  60.947  0.00  0.00    +0.000 C 
ATOM     17  C   UNL     1      17.155  14.354  60.626  0.00  0.00    +0.000 C 
ATOM     18  C   UNL     1      16.105  14.769  54.428  0.00  0.00    +0.000 C 
ATOM     19  C   UNL     1      19.094  12.912  56.616  0.00  0.00    +0.000 C 
ATOM     20  C   UNL     1      17.588  10.637  55.730  0.00  0.00    +0.000 C 
ATOM     21  C   UNL     1      18.087  14.874  61.650  0.00  0.00    +0.000 C 
ATOM     22  C   UNL     1      15.442  14.014  62.345  0.00  0.00    +0.000 C 
ATOM     23  C   UNL     1      19.751  11.574  56.450  0.00  0.00    +0.000 C 
ATOM     24  C   UNL     1      19.042  10.521  56.013  0.00  0.00    +0.000 C 
ATOM     25  C   UNL     1      17.626  14.915  63.059  0.00  0.00    +0.000 C 
ATOM     26  C   UNL     1      16.396  14.495  63.398  0.00  0.00    +0.000 C 
ATOM     27  C   UNL     1      19.627   9.161  55.766  0.00  0.00    +0.000 C 
ATOM     28  C   UNL     1      18.631  15.448  64.039  0.00  0.00    +0.000 C 
ENDROOT
BRANCH  23  29
ATOM     29  O   UNL     1      21.113  11.416  56.684  0.00  0.00    +0.000 OA
ATOM     30  C   UNL     1      21.969  11.802  55.612  0.00  0.00    +0.000 C 
ENDBRANCH  23  29
BRANCH  26  31
ATOM     31  O   UNL     1      16.000  14.575  64.729  0.00  0.00    +0.000 OA
ATOM     32  C   UNL     1      15.232  15.729  65.061  0.00  0.00    +0.000 C 
ENDBRANCH  26  31
BRANCH  10  34
ATOM     33  N   UNL     1      12.593  15.426  57.795  0.00  0.00    +0.000 NA
ATOM     34  C   UNL     1      13.355  14.556  57.689  0.00  0.00    +0.000 C 
ENDBRANCH  10  34
BRANCH  11  35
ATOM     35  C   UNL     1      14.710  11.812  60.255  0.00  0.00    +0.000 C 
BRANCH  35  36
ATOM     36  O   UNL     1      15.739  11.009  59.639  0.00  0.00    +0.000 OA
BRANCH  36  38
ATOM     37  O   UNL     1      15.961   9.055  60.814  0.00  0.00    +0.000 OA
ATOM     38  C   UNL     1      16.371  10.154  60.477  0.00  0.00    +0.000 C 
BRANCH  38  39
ATOM     39  C   UNL     1      17.720  10.675  60.839  0.00  0.00    +0.000 C 
ATOM     40  C   UNL     1      18.659  10.757  59.669  0.00  0.00    +0.000 C 
ATOM     41  C   UNL     1      18.101  11.031  62.082  0.00  0.00    +0.000 C 
ATOM     42  C   UNL     1      17.330  10.915  63.359  0.00  0.00    +0.000 C 
ENDBRANCH  38  39
ENDBRANCH  36  38
ENDBRANCH  35  36
ENDBRANCH  11  35
TORSDOF 7
ENDMDL
MODEL 8
REMARK VINA RESULT:      -3.5     12.470     15.854
REMARK  Name = 
REMARK  14 active torsions:
REMARK  status: ('A' for Active; 'I' for Inactive)
REMARK    1  A    between atoms: O_1  and  C_24
REMARK    2  A    between atoms: O_1  and  C_36
REMARK    3  A    between atoms: O_4  and  C_30
REMARK    4  A    between atoms: O_4  and  C_37
REMARK    5  A    between atoms: O_7  and  C_33
REMARK    6  A    between atoms: O_7  and  C_38
REMARK    7  A    between atoms: N_10  and  C_23
REMARK    8  A    between atoms: C_15  and  C_26
REMARK    9  A    between atoms: C_16  and  C_24
REMARK   10  A    between atoms: C_31  and  C_34
REMARK   11  A    between atoms: C_32  and  C_35
REMARK   12  A    between atoms: C_36  and  C_39
REMARK   13  A    between atoms: C_39  and  C_40
REMARK   14  A    between atoms: C_41  and  C_42
REMARK                            x       y       z     vdW  Elec       q    Type
REMARK                         _______ _______ _______ _____ _____    ______ ____
ROOT
ATOM      1  O   UNL     1      18.190  15.098  59.029  0.00  0.00    +0.000 OA
ATOM      2  O   UNL     1      13.866  12.150  58.094  0.00  0.00    +0.000 OA
ATOM      3  O   UNL     1      22.241  13.460  57.399  0.00  0.00    +0.000 OA
ATOM      4  O   UNL     1      21.635   8.178  57.427  0.00  0.00    +0.000 OA
ATOM      5  N   UNL     1      18.574  10.493  59.277  0.00  0.00    +0.000 NA
ATOM      6  N   UNL     1      17.454  11.916  61.589  0.00  0.00    +0.000 NA
ATOM      7  C   UNL     1      19.165  11.752  59.802  0.00  0.00    +0.000 C 
ATOM      8  C   UNL     1      18.064  12.684  60.466  0.00  0.00    +0.000 C 
ATOM      9  C   UNL     1      16.739  10.740  61.030  0.00  0.00    +0.000 C 
ATOM     10  C   UNL     1      17.768   9.782  60.320  0.00  0.00    +0.000 C 
ATOM     11  C   UNL     1      19.495   9.598  58.523  0.00  0.00    +0.000 C 
ATOM     12  C   UNL     1      19.939  12.499  58.695  0.00  0.00    +0.000 C 
ATOM     13  C   UNL     1      15.604  11.154  60.053  0.00  0.00    +0.000 C 
ATOM     14  C   UNL     1      17.013  13.115  59.452  0.00  0.00    +0.000 C 
ATOM     15  C   UNL     1      15.898  12.398  59.252  0.00  0.00    +0.000 C 
ATOM     16  C   UNL     1      20.726  10.282  57.948  0.00  0.00    +0.000 C 
ATOM     17  C   UNL     1      20.922  11.605  58.002  0.00  0.00    +0.000 C 
ATOM     18  C   UNL     1      16.644  12.735  62.486  0.00  0.00    +0.000 C 
ATOM     19  C   UNL     1      17.232  14.391  58.734  0.00  0.00    +0.000 C 
ATOM     20  C   UNL     1      14.885  12.812  58.259  0.00  0.00    +0.000 C 
ATOM     21  C   UNL     1      22.106  12.242  57.386  0.00  0.00    +0.000 C 
ATOM     22  C   UNL     1      21.760   9.396  57.352  0.00  0.00    +0.000 C 
ATOM     23  C   UNL     1      16.257  14.770  57.659  0.00  0.00    +0.000 C 
ATOM     24  C   UNL     1      15.149  14.037  57.461  0.00  0.00    +0.000 C 
ATOM     25  C   UNL     1      23.105  11.367  56.722  0.00  0.00    +0.000 C 
ATOM     26  C   UNL     1      22.941  10.035  56.683  0.00  0.00    +0.000 C 
ATOM     27  C   UNL     1      14.093  14.370  56.448  0.00  0.00    +0.000 C 
ATOM     28  C   UNL     1      24.274  12.088  56.116  0.00  0.00    +0.000 C 
ENDROOT
BRANCH  23  29
ATOM     29  O   UNL     1      16.448  15.916  56.896  0.00  0.00    +0.000 OA
ATOM     30  C   UNL     1      17.340  15.777  55.793  0.00  0.00    +0.000 C 
ENDBRANCH  23  29
BRANCH  26  31
ATOM     31  O   UNL     1      23.916   9.255  56.070  0.00  0.00    +0.000 OA
ATOM     32  C   UNL     1      24.890   8.703  56.954  0.00  0.00    +0.000 C 
ENDBRANCH  26  31
BRANCH  10  34
ATOM     33  N   UNL     1      19.234   8.549  62.155  0.00  0.00    +0.000 NA
ATOM     34  C   UNL     1      18.579   9.096  61.368  0.00  0.00    +0.000 C 
ENDBRANCH  10  34
BRANCH  11  35
ATOM     35  C   UNL     1      18.672   8.936  57.378  0.00  0.00    +0.000 C 
BRANCH  35  36
ATOM     36  O   UNL     1      17.654   9.858  56.933  0.00  0.00    +0.000 OA
BRANCH  36  38
ATOM     37  O   UNL     1      17.503   9.003  54.814  0.00  0.00    +0.000 OA
ATOM     38  C   UNL     1      17.512   9.944  55.590  0.00  0.00    +0.000 C 
BRANCH  38  39
ATOM     39  C   UNL     1      17.229  11.349  55.180  0.00  0.00    +0.000 C 
ATOM     40  C   UNL     1      18.419  12.258  55.311  0.00  0.00    +0.000 C 
ATOM     41  C   UNL     1      16.035  11.801  54.746  0.00  0.00    +0.000 C 
ATOM     42  C   UNL     1      14.739  11.059  54.655  0.00  0.00    +0.000 C 
ENDBRANCH  38  39
ENDBRANCH  36  38
ENDBRANCH  35  36
ENDBRANCH  11  35
TORSDOF 7
ENDMDL
MODEL 9
REMARK VINA RESULT:      -3.5      3.239      5.931
REMARK  Name = 
REMARK  14 active torsions:
REMARK  status: ('A' for Active; 'I' for Inactive)
REMARK    1  A    between atoms: O_1  and  C_24
REMARK    2  A    between atoms: O_1  and  C_36
REMARK    3  A    between atoms: O_4  and  C_30
REMARK    4  A    between atoms: O_4  and  C_37
REMARK    5  A    between atoms: O_7  and  C_33
REMARK    6  A    between atoms: O_7  and  C_38
REMARK    7  A    between atoms: N_10  and  C_23
REMARK    8  A    between atoms: C_15  and  C_26
REMARK    9  A    between atoms: C_16  and  C_24
REMARK   10  A    between atoms: C_31  and  C_34
REMARK   11  A    between atoms: C_32  and  C_35
REMARK   12  A    between atoms: C_36  and  C_39
REMARK   13  A    between atoms: C_39  and  C_40
REMARK   14  A    between atoms: C_41  and  C_42
REMARK                            x       y       z     vdW  Elec       q    Type
REMARK                         _______ _______ _______ _____ _____    ______ ____
ROOT
ATOM      1  O   UNL     1       2.580   6.441  65.470  0.00  0.00    +0.000 OA
ATOM      2  O   UNL     1      -1.492   3.876  63.209  0.00  0.00    +0.000 OA
ATOM      3  O   UNL     1       5.955   7.942  62.625  0.00  0.00    +0.000 OA
ATOM      4  O   UNL     1       5.914   4.483  58.587  0.00  0.00    +0.000 OA
ATOM      5  N   UNL     1       3.472   3.565  61.956  0.00  0.00    +0.000 NA
ATOM      6  N   UNL     1       3.088   2.409  64.628  0.00  0.00    +0.000 NA
ATOM      7  C   UNL     1       4.082   4.155  63.175  0.00  0.00    +0.000 C 
ATOM      8  C   UNL     1       3.194   3.888  64.465  0.00  0.00    +0.000 C 
ATOM      9  C   UNL     1       2.343   1.853  63.470  0.00  0.00    +0.000 C 
ATOM     10  C   UNL     1       3.150   2.114  62.144  0.00  0.00    +0.000 C 
ATOM     11  C   UNL     1       4.158   3.861  60.667  0.00  0.00    +0.000 C 
ATOM     12  C   UNL     1       4.349   5.663  62.982  0.00  0.00    +0.000 C 
ATOM     13  C   UNL     1       0.905   2.433  63.366  0.00  0.00    +0.000 C 
ATOM     14  C   UNL     1       1.821   4.532  64.339  0.00  0.00    +0.000 C 
ATOM     15  C   UNL     1       0.781   3.867  63.814  0.00  0.00    +0.000 C 
ATOM     16  C   UNL     1       5.042   5.099  60.680  0.00  0.00    +0.000 C 
ATOM     17  C   UNL     1       5.114   5.936  61.722  0.00  0.00    +0.000 C 
ATOM     18  C   UNL     1       2.563   2.000  65.928  0.00  0.00    +0.000 C 
ATOM     19  C   UNL     1       1.652   5.902  64.874  0.00  0.00    +0.000 C 
ATOM     20  C   UNL     1      -0.549   4.500  63.683  0.00  0.00    +0.000 C 
ATOM     21  C   UNL     1       5.944   7.160  61.681  0.00  0.00    +0.000 C 
ATOM     22  C   UNL     1       5.887   5.325  59.479  0.00  0.00    +0.000 C 
ATOM     23  C   UNL     1       0.333   6.584  64.660  0.00  0.00    +0.000 C 
ATOM     24  C   UNL     1      -0.697   5.911  64.123  0.00  0.00    +0.000 C 
ATOM     25  C   UNL     1       6.731   7.429  60.452  0.00  0.00    +0.000 C 
ATOM     26  C   UNL     1       6.695   6.586  59.407  0.00  0.00    +0.000 C 
ATOM     27  C   UNL     1      -2.066   6.494  63.921  0.00  0.00    +0.000 C 
ATOM     28  C   UNL     1       7.542   8.693  60.484  0.00  0.00    +0.000 C 
ENDROOT
BRANCH  23  29
ATOM     29  O   UNL     1       0.136   7.898  65.069  0.00  0.00    +0.000 OA
ATOM     30  C   UNL     1      -0.147   8.073  66.455  0.00  0.00    +0.000 C 
ENDBRANCH  23  29
BRANCH  26  31
ATOM     31  O   UNL     1       7.469   6.869  58.287  0.00  0.00    +0.000 OA
ATOM     32  C   UNL     1       8.668   6.106  58.174  0.00  0.00    +0.000 C 
ENDBRANCH  26  31
BRANCH  10  34
ATOM     33  N   UNL     1       5.279   0.533  62.090  0.00  0.00    +0.000 NA
ATOM     34  C   UNL     1       4.337   1.210  62.124  0.00  0.00    +0.000 C 
ENDBRANCH  10  34
BRANCH  11  35
ATOM     35  C   UNL     1       3.058   4.005  59.574  0.00  0.00    +0.000 C 
BRANCH  35  36
ATOM     36  O   UNL     1       1.925   4.705  60.131  0.00  0.00    +0.000 OA
BRANCH  36  38
ATOM     37  O   UNL     1       1.993   6.283  58.472  0.00  0.00    +0.000 OA
ATOM     38  C   UNL     1       1.697   5.929  59.602  0.00  0.00    +0.000 C 
BRANCH  38  39
ATOM     39  C   UNL     1       0.904   6.769  60.545  0.00  0.00    +0.000 C 
ATOM     40  C   UNL     1       1.754   7.663  61.403  0.00  0.00    +0.000 C 
ATOM     41  C   UNL     1      -0.439   6.746  60.655  0.00  0.00    +0.000 C 
ATOM     42  C   UNL     1      -1.413   5.851  59.955  0.00  0.00    +0.000 C 
ENDBRANCH  38  39
ENDBRANCH  36  38
ENDBRANCH  35  36
ENDBRANCH  11  35
TORSDOF 7
ENDMDL
