MODEL 1
REMARK VINA RESULT:      -3.7      0.000      0.000
REMARK  Name = Resveratrol.pdbqt.pdb
REMARK  5 active torsions:
REMARK  status: ('A' for Active; 'I' for Inactive)
REMARK    1  A    between atoms: C_1  and  C_11
REMARK    2  A    between atoms: C_4  and  O_7
REMARK    3  A    between atoms: C_5  and  O_9
REMARK    4  A    between atoms: C_12  and  C_13
REMARK    5  A    between atoms: C_18  and  O_19
REMARK                            x       y       z     vdW  Elec       q    Type
REMARK                         _______ _______ _______ _____ _____    ______ ____
ROOT
ATOM      1  C   UNL     1      19.203   8.984  56.572  0.00  0.00    +0.000 A 
ATOM      2  C   UNL     1      20.515   8.629  56.264  0.00  0.00    +0.000 A 
ATOM      3  C   UNL     1      18.251   9.101  55.560  0.00  0.00    +0.000 A 
ATOM      4  C   UNL     1      18.623   8.859  54.240  0.00  0.00    +0.000 A 
ATOM      5  C   UNL     1      20.866   8.392  54.939  0.00  0.00    +0.000 A 
ATOM      6  C   UNL     1      19.928   8.504  53.918  0.00  0.00    +0.000 A 
ENDROOT
BRANCH   4   7
ATOM      7  O   UNL     1      17.713   8.966  53.228  0.00  0.00    +0.000 OA
ATOM      8  H   UNL     1      16.901   9.364  53.591  0.00  0.00    +0.000 HD
ENDBRANCH   4   7
BRANCH   5   9
ATOM      9  O   UNL     1      22.157   8.045  54.661  0.00  0.00    +0.000 OA
ATOM     10  H   UNL     1      22.140   7.277  54.064  0.00  0.00    +0.000 HD
ENDBRANCH   5   9
BRANCH   1  11
ATOM     11  C   UNL     1      18.831   9.231  57.927  0.00  0.00    +0.000 C 
ATOM     12  C   UNL     1      18.518   9.438  59.068  0.00  0.00    +0.000 C 
BRANCH  12  13
ATOM     13  C   UNL     1      18.146   9.685  60.423  0.00  0.00    +0.000 A 
ATOM     14  C   UNL     1      16.893  10.224  60.712  0.00  0.00    +0.000 A 
ATOM     15  C   UNL     1      19.037   9.388  61.454  0.00  0.00    +0.000 A 
ATOM     16  C   UNL     1      16.528  10.465  62.033  0.00  0.00    +0.000 A 
ATOM     17  C   UNL     1      18.676   9.628  62.776  0.00  0.00    +0.000 A 
ATOM     18  C   UNL     1      17.424  10.166  63.056  0.00  0.00    +0.000 A 
BRANCH  18  19
ATOM     19  O   UNL     1      17.092  10.393  64.360  0.00  0.00    +0.000 OA
ATOM     20  H   UNL     1      17.792  10.936  64.762  0.00  0.00    +0.000 HD
ENDBRANCH  18  19
ENDBRANCH  12  13
ENDBRANCH   1  11
TORSDOF 5
ENDMDL
MODEL 2
REMARK VINA RESULT:      -3.7      1.330      7.787
REMARK  Name = Resveratrol.pdbqt.pdb
REMARK  5 active torsions:
REMARK  status: ('A' for Active; 'I' for Inactive)
REMARK    1  A    between atoms: C_1  and  C_11
REMARK    2  A    between atoms: C_4  and  O_7
REMARK    3  A    between atoms: C_5  and  O_9
REMARK    4  A    between atoms: C_12  and  C_13
REMARK    5  A    between atoms: C_18  and  O_19
REMARK                            x       y       z     vdW  Elec       q    Type
REMARK                         _______ _______ _______ _____ _____    ______ ____
ROOT
ATOM      1  C   UNL     1      17.783   9.820  59.935  0.00  0.00    +0.000 A 
ATOM      2  C   UNL     1      16.493  10.339  60.037  0.00  0.00    +0.000 A 
ATOM      3  C   UNL     1      18.555   9.628  61.080  0.00  0.00    +0.000 A 
ATOM      4  C   UNL     1      18.026   9.959  62.325  0.00  0.00    +0.000 A 
ATOM      5  C   UNL     1      15.984  10.664  61.290  0.00  0.00    +0.000 A 
ATOM      6  C   UNL     1      16.741  10.477  62.442  0.00  0.00    +0.000 A 
ENDROOT
BRANCH   4   7
ATOM      7  O   UNL     1      18.759   9.782  63.463  0.00  0.00    +0.000 OA
ATOM      8  H   UNL     1      19.441  10.476  63.496  0.00  0.00    +0.000 HD
ENDBRANCH   4   7
BRANCH   5   9
ATOM      9  O   UNL     1      14.718  11.171  61.365  0.00  0.00    +0.000 OA
ATOM     10  H   UNL     1      14.734  11.927  61.978  0.00  0.00    +0.000 HD
ENDBRANCH   5   9
BRANCH   1  11
ATOM     11  C   UNL     1      18.317   9.484  58.656  0.00  0.00    +0.000 C 
ATOM     12  C   UNL     1      18.767   9.200  57.578  0.00  0.00    +0.000 C 
BRANCH  12  13
ATOM     13  C   UNL     1      19.300   8.864  56.299  0.00  0.00    +0.000 A 
ATOM     14  C   UNL     1      20.664   8.611  56.160  0.00  0.00    +0.000 A 
ATOM     15  C   UNL     1      18.456   8.789  55.191  0.00  0.00    +0.000 A 
ATOM     16  C   UNL     1      21.187   8.281  54.913  0.00  0.00    +0.000 A 
ATOM     17  C   UNL     1      18.975   8.461  53.942  0.00  0.00    +0.000 A 
ATOM     18  C   UNL     1      20.337   8.210  53.812  0.00  0.00    +0.000 A 
BRANCH  18  19
ATOM     19  O   UNL     1      20.822   7.890  52.578  0.00  0.00    +0.000 OA
ATOM     20  H   UNL     1      20.074   7.627  52.014  0.00  0.00    +0.000 HD
ENDBRANCH  18  19
ENDBRANCH  12  13
ENDBRANCH   1  11
TORSDOF 5
ENDMDL
MODEL 3
REMARK VINA RESULT:      -3.6      9.143     11.008
REMARK  Name = Resveratrol.pdbqt.pdb
REMARK  5 active torsions:
REMARK  status: ('A' for Active; 'I' for Inactive)
REMARK    1  A    between atoms: C_1  and  C_11
REMARK    2  A    between atoms: C_4  and  O_7
REMARK    3  A    between atoms: C_5  and  O_9
REMARK    4  A    between atoms: C_12  and  C_13
REMARK    5  A    between atoms: C_18  and  O_19
REMARK                            x       y       z     vdW  Elec       q    Type
REMARK                         _______ _______ _______ _____ _____    ______ ____
ROOT
ATOM      1  C   UNL     1      16.535   0.167  53.790  0.00  0.00    +0.000 A 
ATOM      2  C   UNL     1      15.760   0.730  52.776  0.00  0.00    +0.000 A 
ATOM      3  C   UNL     1      16.039  -0.896  54.544  0.00  0.00    +0.000 A 
ATOM      4  C   UNL     1      14.766  -1.391  54.275  0.00  0.00    +0.000 A 
ATOM      5  C   UNL     1      14.490   0.221  52.524  0.00  0.00    +0.000 A 
ATOM      6  C   UNL     1      13.982  -0.840  53.267  0.00  0.00    +0.000 A 
ENDROOT
BRANCH   4   7
ATOM      7  O   UNL     1      14.255  -2.431  54.997  0.00  0.00    +0.000 OA
ATOM      8  H   UNL     1      14.926  -2.708  55.646  0.00  0.00    +0.000 HD
ENDBRANCH   4   7
BRANCH   5   9
ATOM      9  O   UNL     1      13.750   0.787  51.527  0.00  0.00    +0.000 OA
ATOM     10  H   UNL     1      13.815   1.755  51.617  0.00  0.00    +0.000 HD
ENDBRANCH   5   9
BRANCH   1  11
ATOM     11  C   UNL     1      17.838   0.680  54.058  0.00  0.00    +0.000 C 
ATOM     12  C   UNL     1      18.937   1.112  54.285  0.00  0.00    +0.000 C 
BRANCH  12  13
ATOM     13  C   UNL     1      20.240   1.624  54.553  0.00  0.00    +0.000 A 
ATOM     14  C   UNL     1      20.945   1.181  55.671  0.00  0.00    +0.000 A 
ATOM     15  C   UNL     1      20.806   2.568  53.696  0.00  0.00    +0.000 A 
ATOM     16  C   UNL     1      22.217   1.679  55.934  0.00  0.00    +0.000 A 
ATOM     17  C   UNL     1      22.078   3.070  53.956  0.00  0.00    +0.000 A 
ATOM     18  C   UNL     1      22.774   2.621  55.074  0.00  0.00    +0.000 A 
BRANCH  18  19
ATOM     19  O   UNL     1      24.019   3.127  55.308  0.00  0.00    +0.000 OA
ATOM     20  H   UNL     1      24.483   3.203  54.456  0.00  0.00    +0.000 HD
ENDBRANCH  18  19
ENDBRANCH  12  13
ENDBRANCH   1  11
TORSDOF 5
ENDMDL
MODEL 4
REMARK VINA RESULT:      -3.6      9.195     11.053
REMARK  Name = Resveratrol.pdbqt.pdb
REMARK  5 active torsions:
REMARK  status: ('A' for Active; 'I' for Inactive)
REMARK    1  A    between atoms: C_1  and  C_11
REMARK    2  A    between atoms: C_4  and  O_7
REMARK    3  A    between atoms: C_5  and  O_9
REMARK    4  A    between atoms: C_12  and  C_13
REMARK    5  A    between atoms: C_18  and  O_19
REMARK                            x       y       z     vdW  Elec       q    Type
REMARK                         _______ _______ _______ _____ _____    ______ ____
ROOT
ATOM      1  C   UNL     1      16.275  -0.098  53.678  0.00  0.00    +0.000 A 
ATOM      2  C   UNL     1      15.739  -1.230  54.290  0.00  0.00    +0.000 A 
ATOM      3  C   UNL     1      15.555   0.572  52.689  0.00  0.00    +0.000 A 
ATOM      4  C   UNL     1      14.298   0.102  52.320  0.00  0.00    +0.000 A 
ATOM      5  C   UNL     1      14.481  -1.685  53.906  0.00  0.00    +0.000 A 
ATOM      6  C   UNL     1      13.751  -1.026  52.922  0.00  0.00    +0.000 A 
ENDROOT
BRANCH   4   7
ATOM      7  O   UNL     1      13.571   0.738  51.355  0.00  0.00    +0.000 OA
ATOM      8  H   UNL     1      12.708   0.979  51.736  0.00  0.00    +0.000 HD
ENDBRANCH   4   7
BRANCH   5   9
ATOM      9  O   UNL     1      13.976  -2.795  54.519  0.00  0.00    +0.000 OA
ATOM     10  H   UNL     1      13.035  -2.868  54.280  0.00  0.00    +0.000 HD
ENDBRANCH   5   9
BRANCH   1  11
ATOM     11  C   UNL     1      17.564   0.377  54.062  0.00  0.00    +0.000 C 
ATOM     12  C   UNL     1      18.649   0.777  54.385  0.00  0.00    +0.000 C 
BRANCH  12  13
ATOM     13  C   UNL     1      19.937   1.252  54.770  0.00  0.00    +0.000 A 
ATOM     14  C   UNL     1      20.597   2.192  53.978  0.00  0.00    +0.000 A 
ATOM     15  C   UNL     1      20.535   0.776  55.937  0.00  0.00    +0.000 A 
ATOM     16  C   UNL     1      21.854   2.657  54.352  0.00  0.00    +0.000 A 
ATOM     17  C   UNL     1      21.792   1.239  56.314  0.00  0.00    +0.000 A 
ATOM     18  C   UNL     1      22.443   2.176  55.518  0.00  0.00    +0.000 A 
BRANCH  18  19
ATOM     19  O   UNL     1      23.674   2.614  55.908  0.00  0.00    +0.000 OA
ATOM     20  H   UNL     1      23.931   3.356  55.332  0.00  0.00    +0.000 HD
ENDBRANCH  18  19
ENDBRANCH  12  13
ENDBRANCH   1  11
TORSDOF 5
ENDMDL
MODEL 5
REMARK VINA RESULT:      -3.6      9.321     10.474
REMARK  Name = Resveratrol.pdbqt.pdb
REMARK  5 active torsions:
REMARK  status: ('A' for Active; 'I' for Inactive)
REMARK    1  A    between atoms: C_1  and  C_11
REMARK    2  A    between atoms: C_4  and  O_7
REMARK    3  A    between atoms: C_5  and  O_9
REMARK    4  A    between atoms: C_12  and  C_13
REMARK    5  A    between atoms: C_18  and  O_19
REMARK                            x       y       z     vdW  Elec       q    Type
REMARK                         _______ _______ _______ _____ _____    ______ ____
ROOT
ATOM      1  C   UNL     1      16.981   0.778  53.297  0.00  0.00    +0.000 A 
ATOM      2  C   UNL     1      16.541   1.824  52.487  0.00  0.00    +0.000 A 
ATOM      3  C   UNL     1      16.228  -0.391  53.406  0.00  0.00    +0.000 A 
ATOM      4  C   UNL     1      15.035  -0.504  52.697  0.00  0.00    +0.000 A 
ATOM      5  C   UNL     1      15.346   1.690  51.788  0.00  0.00    +0.000 A 
ATOM      6  C   UNL     1      14.584   0.530  51.885  0.00  0.00    +0.000 A 
ENDROOT
BRANCH   4   7
ATOM      7  O   UNL     1      14.278  -1.637  52.784  0.00  0.00    +0.000 OA
ATOM      8  H   UNL     1      13.519  -1.451  53.365  0.00  0.00    +0.000 HD
ENDBRANCH   4   7
BRANCH   5   9
ATOM      9  O   UNL     1      14.935   2.727  51.000  0.00  0.00    +0.000 OA
ATOM     10  H   UNL     1      14.209   2.407  50.436  0.00  0.00    +0.000 HD
ENDBRANCH   5   9
BRANCH   1  11
ATOM     11  C   UNL     1      18.204   0.903  54.020  0.00  0.00    +0.000 C 
ATOM     12  C   UNL     1      19.235   1.008  54.628  0.00  0.00    +0.000 C 
BRANCH  12  13
ATOM     13  C   UNL     1      20.458   1.134  55.351  0.00  0.00    +0.000 A 
ATOM     14  C   UNL     1      21.455   1.991  54.886  0.00  0.00    +0.000 A 
ATOM     15  C   UNL     1      20.653   0.399  56.521  0.00  0.00    +0.000 A 
ATOM     16  C   UNL     1      22.649   2.115  55.590  0.00  0.00    +0.000 A 
ATOM     17  C   UNL     1      21.846   0.521  57.227  0.00  0.00    +0.000 A 
ATOM     18  C   UNL     1      22.836   1.378  56.756  0.00  0.00    +0.000 A 
BRANCH  18  19
ATOM     19  O   UNL     1      23.996   1.480  57.466  0.00  0.00    +0.000 OA
ATOM     20  H   UNL     1      24.718   1.116  56.925  0.00  0.00    +0.000 HD
ENDBRANCH  18  19
ENDBRANCH  12  13
ENDBRANCH   1  11
TORSDOF 5
ENDMDL
MODEL 6
REMARK VINA RESULT:      -3.5     18.641     20.965
REMARK  Name = Resveratrol.pdbqt.pdb
REMARK  5 active torsions:
REMARK  status: ('A' for Active; 'I' for Inactive)
REMARK    1  A    between atoms: C_1  and  C_11
REMARK    2  A    between atoms: C_4  and  O_7
REMARK    3  A    between atoms: C_5  and  O_9
REMARK    4  A    between atoms: C_12  and  C_13
REMARK    5  A    between atoms: C_18  and  O_19
REMARK                            x       y       z     vdW  Elec       q    Type
REMARK                         _______ _______ _______ _____ _____    ______ ____
ROOT
ATOM      1  C   UNL     1       2.826   8.461  70.716  0.00  0.00    +0.000 A 
ATOM      2  C   UNL     1       1.739   8.937  71.449  0.00  0.00    +0.000 A 
ATOM      3  C   UNL     1       4.128   8.746  71.126  0.00  0.00    +0.000 A 
ATOM      4  C   UNL     1       4.333   9.509  72.274  0.00  0.00    +0.000 A 
ATOM      5  C   UNL     1       1.966   9.698  72.591  0.00  0.00    +0.000 A 
ATOM      6  C   UNL     1       3.258   9.989  73.014  0.00  0.00    +0.000 A 
ENDROOT
BRANCH   4   7
ATOM      7  O   UNL     1       5.596   9.802  72.699  0.00  0.00    +0.000 OA
ATOM      8  H   UNL     1       6.181   9.823  71.921  0.00  0.00    +0.000 HD
ENDBRANCH   4   7
BRANCH   5   9
ATOM      9  O   UNL     1       0.886  10.153  73.293  0.00  0.00    +0.000 OA
ATOM     10  H   UNL     1       0.082   9.810  72.863  0.00  0.00    +0.000 HD
ENDBRANCH   5   9
BRANCH   1  11
ATOM     11  C   UNL     1       2.607   7.682  69.542  0.00  0.00    +0.000 C 
ATOM     12  C   UNL     1       2.423   7.024  68.553  0.00  0.00    +0.000 C 
BRANCH  12  13
ATOM     13  C   UNL     1       2.204   6.244  67.380  0.00  0.00    +0.000 A 
ATOM     14  C   UNL     1       2.168   6.863  66.131  0.00  0.00    +0.000 A 
ATOM     15  C   UNL     1       2.026   4.865  67.485  0.00  0.00    +0.000 A 
ATOM     16  C   UNL     1       1.954   6.104  64.984  0.00  0.00    +0.000 A 
ATOM     17  C   UNL     1       1.812   4.102  66.340  0.00  0.00    +0.000 A 
ATOM     18  C   UNL     1       1.777   4.728  65.098  0.00  0.00    +0.000 A 
BRANCH  18  19
ATOM     19  O   UNL     1       1.566   3.959  63.991  0.00  0.00    +0.000 OA
ATOM     20  H   UNL     1       1.731   3.030  64.228  0.00  0.00    +0.000 HD
ENDBRANCH  18  19
ENDBRANCH  12  13
ENDBRANCH   1  11
TORSDOF 5
ENDMDL
MODEL 7
REMARK VINA RESULT:      -3.5      9.820     11.863
REMARK  Name = Resveratrol.pdbqt.pdb
REMARK  5 active torsions:
REMARK  status: ('A' for Active; 'I' for Inactive)
REMARK    1  A    between atoms: C_1  and  C_11
REMARK    2  A    between atoms: C_4  and  O_7
REMARK    3  A    between atoms: C_5  and  O_9
REMARK    4  A    between atoms: C_12  and  C_13
REMARK    5  A    between atoms: C_18  and  O_19
REMARK                            x       y       z     vdW  Elec       q    Type
REMARK                         _______ _______ _______ _____ _____    ______ ____
ROOT
ATOM      1  C   UNL     1       9.501  11.764  60.495  0.00  0.00    +0.000 A 
ATOM      2  C   UNL     1      10.152  12.114  61.677  0.00  0.00    +0.000 A 
ATOM      3  C   UNL     1       9.627  12.566  59.360  0.00  0.00    +0.000 A 
ATOM      4  C   UNL     1      10.408  13.717  59.419  0.00  0.00    +0.000 A 
ATOM      5  C   UNL     1      10.927  13.269  61.714  0.00  0.00    +0.000 A 
ATOM      6  C   UNL     1      11.064  14.078  60.591  0.00  0.00    +0.000 A 
ENDROOT
BRANCH   4   7
ATOM      7  O   UNL     1      10.550  14.519  58.324  0.00  0.00    +0.000 OA
ATOM      8  H   UNL     1      10.152  15.385  58.529  0.00  0.00    +0.000 HD
ENDBRANCH   4   7
BRANCH   5   9
ATOM      9  O   UNL     1      11.556  13.591  62.883  0.00  0.00    +0.000 OA
ATOM     10  H   UNL     1      12.514  13.620  62.710  0.00  0.00    +0.000 HD
ENDBRANCH   5   9
BRANCH   1  11
ATOM     11  C   UNL     1       8.702  10.584  60.444  0.00  0.00    +0.000 C 
ATOM     12  C   UNL     1       8.029   9.590  60.400  0.00  0.00    +0.000 C 
BRANCH  12  13
ATOM     13  C   UNL     1       7.231   8.409  60.348  0.00  0.00    +0.000 A 
ATOM     14  C   UNL     1       6.462   8.041  61.452  0.00  0.00    +0.000 A 
ATOM     15  C   UNL     1       7.221   7.625  59.195  0.00  0.00    +0.000 A 
ATOM     16  C   UNL     1       5.682   6.889  61.404  0.00  0.00    +0.000 A 
ATOM     17  C   UNL     1       6.443   6.472  59.143  0.00  0.00    +0.000 A 
ATOM     18  C   UNL     1       5.679   6.113  60.249  0.00  0.00    +0.000 A 
BRANCH  18  19
ATOM     19  O   UNL     1       4.924   4.979  60.175  0.00  0.00    +0.000 OA
ATOM     20  H   UNL     1       5.466   4.278  59.772  0.00  0.00    +0.000 HD
ENDBRANCH  18  19
ENDBRANCH  12  13
ENDBRANCH   1  11
TORSDOF 5
ENDMDL
MODEL 8
REMARK VINA RESULT:      -3.4      3.115      8.568
REMARK  Name = Resveratrol.pdbqt.pdb
REMARK  5 active torsions:
REMARK  status: ('A' for Active; 'I' for Inactive)
REMARK    1  A    between atoms: C_1  and  C_11
REMARK    2  A    between atoms: C_4  and  O_7
REMARK    3  A    between atoms: C_5  and  O_9
REMARK    4  A    between atoms: C_12  and  C_13
REMARK    5  A    between atoms: C_18  and  O_19
REMARK                            x       y       z     vdW  Elec       q    Type
REMARK                         _______ _______ _______ _____ _____    ______ ____
ROOT
ATOM      1  C   UNL     1      18.896   8.985  56.236  0.00  0.00    +0.000 A 
ATOM      2  C   UNL     1      17.909   9.683  56.930  0.00  0.00    +0.000 A 
ATOM      3  C   UNL     1      20.070   8.599  56.883  0.00  0.00    +0.000 A 
ATOM      4  C   UNL     1      20.247   8.916  58.227  0.00  0.00    +0.000 A 
ATOM      5  C   UNL     1      18.106   9.991  58.273  0.00  0.00    +0.000 A 
ATOM      6  C   UNL     1      19.271   9.612  58.932  0.00  0.00    +0.000 A 
ENDROOT
BRANCH   4   7
ATOM      7  O   UNL     1      21.385   8.550  58.886  0.00  0.00    +0.000 OA
ATOM      8  H   UNL     1      22.021   8.215  58.229  0.00  0.00    +0.000 HD
ENDBRANCH   4   7
BRANCH   5   9
ATOM      9  O   UNL     1      17.126  10.675  58.932  0.00  0.00    +0.000 OA
ATOM     10  H   UNL     1      17.491  11.535  59.205  0.00  0.00    +0.000 HD
ENDBRANCH   5   9
BRANCH   1  11
ATOM     11  C   UNL     1      18.707   8.664  54.859  0.00  0.00    +0.000 C 
ATOM     12  C   UNL     1      18.547   8.394  53.699  0.00  0.00    +0.000 C 
BRANCH  12  13
ATOM     13  C   UNL     1      18.358   8.075  52.323  0.00  0.00    +0.000 A 
ATOM     14  C   UNL     1      18.416   6.746  51.903  0.00  0.00    +0.000 A 
ATOM     15  C   UNL     1      18.116   9.091  51.399  0.00  0.00    +0.000 A 
ATOM     16  C   UNL     1      18.231   6.431  50.560  0.00  0.00    +0.000 A 
ATOM     17  C   UNL     1      17.931   8.781  50.055  0.00  0.00    +0.000 A 
ATOM     18  C   UNL     1      17.991   7.453  49.646  0.00  0.00    +0.000 A 
BRANCH  18  19
ATOM     19  O   UNL     1      17.806   7.173  48.323  0.00  0.00    +0.000 OA
ATOM     20  H   UNL     1      17.947   6.220  48.190  0.00  0.00    +0.000 HD
ENDBRANCH  18  19
ENDBRANCH  12  13
ENDBRANCH   1  11
TORSDOF 5
ENDMDL
MODEL 9
REMARK VINA RESULT:      -3.4     17.704     21.810
REMARK  Name = Resveratrol.pdbqt.pdb
REMARK  5 active torsions:
REMARK  status: ('A' for Active; 'I' for Inactive)
REMARK    1  A    between atoms: C_1  and  C_11
REMARK    2  A    between atoms: C_4  and  O_7
REMARK    3  A    between atoms: C_5  and  O_9
REMARK    4  A    between atoms: C_12  and  C_13
REMARK    5  A    between atoms: C_18  and  O_19
REMARK                            x       y       z     vdW  Elec       q    Type
REMARK                         _______ _______ _______ _____ _____    ______ ____
ROOT
ATOM      1  C   UNL     1       7.567  -1.443  73.801  0.00  0.00    +0.000 A 
ATOM      2  C   UNL     1       6.603  -2.335  74.271  0.00  0.00    +0.000 A 
ATOM      3  C   UNL     1       8.303  -0.669  74.698  0.00  0.00    +0.000 A 
ATOM      4  C   UNL     1       8.069  -0.796  76.064  0.00  0.00    +0.000 A 
ATOM      5  C   UNL     1       6.384  -2.445  75.640  0.00  0.00    +0.000 A 
ATOM      6  C   UNL     1       7.111  -1.681  76.547  0.00  0.00    +0.000 A 
ENDROOT
BRANCH   4   7
ATOM      7  O   UNL     1       8.775  -0.052  76.964  0.00  0.00    +0.000 OA
ATOM      8  H   UNL     1       8.397   0.845  76.980  0.00  0.00    +0.000 HD
ENDBRANCH   4   7
BRANCH   5   9
ATOM      9  O   UNL     1       5.436  -3.325  76.077  0.00  0.00    +0.000 OA
ATOM     10  H   UNL     1       5.448  -3.321  77.051  0.00  0.00    +0.000 HD
ENDBRANCH   5   9
BRANCH   1  11
ATOM     11  C   UNL     1       7.800  -1.320  72.400  0.00  0.00    +0.000 C 
ATOM     12  C   UNL     1       7.996  -1.216  71.219  0.00  0.00    +0.000 C 
BRANCH  12  13
ATOM     13  C   UNL     1       8.229  -1.093  69.817  0.00  0.00    +0.000 A 
ATOM     14  C   UNL     1       7.286  -1.578  68.911  0.00  0.00    +0.000 A 
ATOM     15  C   UNL     1       9.398  -0.488  69.356  0.00  0.00    +0.000 A 
ATOM     16  C   UNL     1       7.510  -1.458  67.543  0.00  0.00    +0.000 A 
ATOM     17  C   UNL     1       9.626  -0.367  67.989  0.00  0.00    +0.000 A 
ATOM     18  C   UNL     1       8.680  -0.854  67.092  0.00  0.00    +0.000 A 
BRANCH  18  19
ATOM     19  O   UNL     1       8.926  -0.723  65.756  0.00  0.00    +0.000 OA
ATOM     20  H   UNL     1       9.517  -1.446  65.483  0.00  0.00    +0.000 HD
ENDBRANCH  18  19
ENDBRANCH  12  13
ENDBRANCH   1  11
TORSDOF 5
ENDMDL
