MODEL 1
REMARK VINA RESULT:      -4.7      0.000      0.000
REMARK  Name = RetinoicAcid.pdbqt.pdb
REMARK  6 active torsions:
REMARK  status: ('A' for Active; 'I' for Inactive)
REMARK    1  A    between atoms: C_1  and  C_3
REMARK    2  A    between atoms: C_1  and  C_5
REMARK    3  A    between atoms: C_3  and  C_15
REMARK    4  A    between atoms: C_4  and  C_9
REMARK    5  A    between atoms: C_16  and  C_17
REMARK    6  A    between atoms: C_21  and  O_22
REMARK                            x       y       z     vdW  Elec       q    Type
REMARK                         _______ _______ _______ _____ _____    ______ ____
ROOT
ATOM      1  C   UNL     1      18.531   4.371  51.020  0.00  0.00    +0.000 C 
ATOM      2  C   UNL     1      18.716   4.164  49.548  0.00  0.00    +0.000 C 
ENDROOT
BRANCH   1   4
ATOM      3  C   UNL     1      18.137   2.309  52.586  0.00  0.00    +0.000 C 
ATOM      4  C   UNL     1      18.318   3.260  51.871  0.00  0.00    +0.000 C 
BRANCH   3   8
ATOM      5  C   UNL     1      16.637   0.289  53.249  0.00  0.00    +0.000 C 
ATOM      6  C   UNL     1      16.675  -0.811  54.241  0.00  0.00    +0.000 C 
ATOM      7  C   UNL     1      17.526  -1.370  55.365  0.00  0.00    +0.000 C 
ATOM      8  C   UNL     1      17.921   1.164  53.438  0.00  0.00    +0.000 C 
ATOM      9  C   UNL     1      18.581  -0.296  55.209  0.00  0.00    +0.000 C 
ATOM     10  C   UNL     1      18.829   0.844  54.393  0.00  0.00    +0.000 C 
ATOM     11  C   UNL     1      15.383   1.173  53.489  0.00  0.00    +0.000 C 
ATOM     12  C   UNL     1      16.642  -0.298  51.809  0.00  0.00    +0.000 C 
ATOM     13  C   UNL     1      20.098   1.608  54.649  0.00  0.00    +0.000 C 
ENDBRANCH   3   8
ENDBRANCH   1   4
BRANCH   1  14
ATOM     14  C   UNL     1      18.518   5.572  51.507  0.00  0.00    +0.000 C 
BRANCH  14  15
ATOM     15  C   UNL     1      18.503   6.992  52.086  0.00  0.00    +0.000 C 
ATOM     16  C   UNL     1      18.493   8.103  52.540  0.00  0.00    +0.000 C 
BRANCH  16  17
ATOM     17  C   UNL     1      18.486   9.415  53.073  0.00  0.00    +0.000 C 
ATOM     18  C   UNL     1      19.596  10.362  52.735  0.00  0.00    +0.000 C 
ATOM     19  C   UNL     1      17.543   9.782  53.874  0.00  0.00    +0.000 C 
ATOM     20  O   UNL     1      15.407  10.561  54.350  0.00  0.00    +0.000 OA
ATOM     21  C   UNL     1      16.493  10.179  54.744  0.00  0.00    +0.000 C 
BRANCH  21  22
ATOM     22  O   UNL     1      16.796  10.075  56.049  0.00  0.00    +0.000 OA
ATOM     23  H   UNL     1      17.772   9.995  56.063  0.00  0.00    +0.000 HD
ENDBRANCH  21  22
ENDBRANCH  16  17
ENDBRANCH  14  15
ENDBRANCH   1  14
TORSDOF 6
ENDMDL
MODEL 2
REMARK VINA RESULT:      -4.4     22.838     24.842
REMARK  Name = RetinoicAcid.pdbqt.pdb
REMARK  6 active torsions:
REMARK  status: ('A' for Active; 'I' for Inactive)
REMARK    1  A    between atoms: C_1  and  C_3
REMARK    2  A    between atoms: C_1  and  C_5
REMARK    3  A    between atoms: C_3  and  C_15
REMARK    4  A    between atoms: C_4  and  C_9
REMARK    5  A    between atoms: C_16  and  C_17
REMARK    6  A    between atoms: C_21  and  O_22
REMARK                            x       y       z     vdW  Elec       q    Type
REMARK                         _______ _______ _______ _____ _____    ______ ____
ROOT
ATOM      1  C   UNL     1       8.463   5.379  77.674  0.00  0.00    +0.000 C 
ATOM      2  C   UNL     1       8.775   5.997  79.002  0.00  0.00    +0.000 C 
ENDROOT
BRANCH   1   4
ATOM      3  C   UNL     1      10.270   3.947  76.431  0.00  0.00    +0.000 C 
ATOM      4  C   UNL     1       9.444   4.609  77.002  0.00  0.00    +0.000 C 
BRANCH   3   8
ATOM      5  C   UNL     1      12.667   3.752  75.440  0.00  0.00    +0.000 C 
ATOM      6  C   UNL     1      13.472   2.722  74.741  0.00  0.00    +0.000 C 
ATOM      7  C   UNL     1      13.392   1.298  74.226  0.00  0.00    +0.000 C 
ATOM      8  C   UNL     1      11.256   3.147  75.744  0.00  0.00    +0.000 C 
ATOM      9  C   UNL     1      11.966   1.120  74.699  0.00  0.00    +0.000 C 
ATOM     10  C   UNL     1      10.964   1.877  75.370  0.00  0.00    +0.000 C 
ATOM     11  C   UNL     1      12.498   4.997  74.528  0.00  0.00    +0.000 C 
ATOM     12  C   UNL     1      13.348   4.130  76.786  0.00  0.00    +0.000 C 
ATOM     13  C   UNL     1       9.647   1.197  75.625  0.00  0.00    +0.000 C 
ENDBRANCH   3   8
ENDBRANCH   1   4
BRANCH   1  14
ATOM     14  C   UNL     1       7.312   5.590  77.117  0.00  0.00    +0.000 C 
BRANCH  14  15
ATOM     15  C   UNL     1       5.950   5.837  76.457  0.00  0.00    +0.000 C 
ATOM     16  C   UNL     1       4.883   6.031  75.942  0.00  0.00    +0.000 C 
BRANCH  16  17
ATOM     17  C   UNL     1       3.625   6.265  75.336  0.00  0.00    +0.000 C 
ATOM     18  C   UNL     1       2.441   5.439  75.737  0.00  0.00    +0.000 C 
ATOM     19  C   UNL     1       3.505   7.165  74.419  0.00  0.00    +0.000 C 
ATOM     20  O   UNL     1       3.246   9.349  73.671  0.00  0.00    +0.000 OA
ATOM     21  C   UNL     1       3.384   8.166  73.419  0.00  0.00    +0.000 C 
BRANCH  21  22
ATOM     22  O   UNL     1       3.458   7.697  72.163  0.00  0.00    +0.000 OA
ATOM     23  H   UNL     1       3.272   8.479  71.603  0.00  0.00    +0.000 HD
ENDBRANCH  21  22
ENDBRANCH  16  17
ENDBRANCH  14  15
ENDBRANCH   1  14
TORSDOF 6
ENDMDL
MODEL 3
REMARK VINA RESULT:      -4.3     21.305     23.391
REMARK  Name = RetinoicAcid.pdbqt.pdb
REMARK  6 active torsions:
REMARK  status: ('A' for Active; 'I' for Inactive)
REMARK    1  A    between atoms: C_1  and  C_3
REMARK    2  A    between atoms: C_1  and  C_5
REMARK    3  A    between atoms: C_3  and  C_15
REMARK    4  A    between atoms: C_4  and  C_9
REMARK    5  A    between atoms: C_16  and  C_17
REMARK    6  A    between atoms: C_21  and  O_22
REMARK                            x       y       z     vdW  Elec       q    Type
REMARK                         _______ _______ _______ _____ _____    ______ ____
ROOT
ATOM      1  C   UNL     1      11.589   2.152  75.725  0.00  0.00    +0.000 C 
ATOM      2  C   UNL     1      12.074   0.852  76.290  0.00  0.00    +0.000 C 
ENDROOT
BRANCH   1   4
ATOM      3  C   UNL     1      12.996   3.391  73.897  0.00  0.00    +0.000 C 
ATOM      4  C   UNL     1      12.351   2.826  74.740  0.00  0.00    +0.000 C 
BRANCH   3   8
ATOM      5  C   UNL     1      14.216   5.548  73.103  0.00  0.00    +0.000 C 
ATOM      6  C   UNL     1      14.989   5.982  71.916  0.00  0.00    +0.000 C 
ATOM      7  C   UNL     1      15.488   5.483  70.574  0.00  0.00    +0.000 C 
ATOM      8  C   UNL     1      13.767   4.065  72.879  0.00  0.00    +0.000 C 
ATOM      9  C   UNL     1      14.871   4.114  70.762  0.00  0.00    +0.000 C 
ATOM     10  C   UNL     1      14.106   3.415  71.738  0.00  0.00    +0.000 C 
ATOM     11  C   UNL     1      12.954   6.439  73.265  0.00  0.00    +0.000 C 
ATOM     12  C   UNL     1      15.113   5.611  74.371  0.00  0.00    +0.000 C 
ATOM     13  C   UNL     1      13.738   1.990  71.430  0.00  0.00    +0.000 C 
ENDBRANCH   3   8
ENDBRANCH   1   4
BRANCH   1  14
ATOM     14  C   UNL     1      10.495   2.684  76.174  0.00  0.00    +0.000 C 
BRANCH  14  15
ATOM     15  C   UNL     1       9.201   3.314  76.703  0.00  0.00    +0.000 C 
ATOM     16  C   UNL     1       8.188   3.807  77.119  0.00  0.00    +0.000 C 
BRANCH  16  17
ATOM     17  C   UNL     1       6.996   4.389  77.613  0.00  0.00    +0.000 C 
ATOM     18  C   UNL     1       6.766   4.472  79.091  0.00  0.00    +0.000 C 
ATOM     19  C   UNL     1       6.097   4.817  76.793  0.00  0.00    +0.000 C 
ATOM     20  O   UNL     1       5.182   6.389  75.348  0.00  0.00    +0.000 OA
ATOM     21  C   UNL     1       5.120   5.297  75.881  0.00  0.00    +0.000 C 
BRANCH  21  22
ATOM     22  O   UNL     1       4.126   4.427  75.637  0.00  0.00    +0.000 OA
ATOM     23  H   UNL     1       3.310   4.939  75.818  0.00  0.00    +0.000 HD
ENDBRANCH  21  22
ENDBRANCH  16  17
ENDBRANCH  14  15
ENDBRANCH   1  14
TORSDOF 6
ENDMDL
MODEL 4
REMARK VINA RESULT:      -4.2     21.102     22.969
REMARK  Name = RetinoicAcid.pdbqt.pdb
REMARK  6 active torsions:
REMARK  status: ('A' for Active; 'I' for Inactive)
REMARK    1  A    between atoms: C_1  and  C_3
REMARK    2  A    between atoms: C_1  and  C_5
REMARK    3  A    between atoms: C_3  and  C_15
REMARK    4  A    between atoms: C_4  and  C_9
REMARK    5  A    between atoms: C_16  and  C_17
REMARK    6  A    between atoms: C_21  and  O_22
REMARK                            x       y       z     vdW  Elec       q    Type
REMARK                         _______ _______ _______ _____ _____    ______ ____
ROOT
ATOM      1  C   UNL     1      12.789   4.661  75.591  0.00  0.00    +0.000 C 
ATOM      2  C   UNL     1      14.093   4.184  76.151  0.00  0.00    +0.000 C 
ENDROOT
BRANCH   1   4
ATOM      3  C   UNL     1      10.557   3.476  76.281  0.00  0.00    +0.000 C 
ATOM      4  C   UNL     1      11.581   4.018  75.958  0.00  0.00    +0.000 C 
BRANCH   3   8
ATOM      5  C   UNL     1       8.317   3.587  77.600  0.00  0.00    +0.000 C 
ATOM      6  C   UNL     1       7.152   2.702  77.836  0.00  0.00    +0.000 C 
ATOM      7  C   UNL     1       6.613   1.328  77.488  0.00  0.00    +0.000 C 
ATOM      8  C   UNL     1       9.327   2.830  76.674  0.00  0.00    +0.000 C 
ATOM      9  C   UNL     1       7.819   0.979  76.643  0.00  0.00    +0.000 C 
ATOM     10  C   UNL     1       9.045   1.578  76.237  0.00  0.00    +0.000 C 
ATOM     11  C   UNL     1       9.015   3.911  78.949  0.00  0.00    +0.000 C 
ATOM     12  C   UNL     1       7.857   4.886  76.880  0.00  0.00    +0.000 C 
ATOM     13  C   UNL     1       9.937   0.771  75.335  0.00  0.00    +0.000 C 
ENDBRANCH   3   8
ENDBRANCH   1   4
BRANCH   1  14
ATOM     14  C   UNL     1      12.770   5.632  74.732  0.00  0.00    +0.000 C 
BRANCH  14  15
ATOM     15  C   UNL     1      12.745   6.781  73.716  0.00  0.00    +0.000 C 
ATOM     16  C   UNL     1      12.724   7.680  72.922  0.00  0.00    +0.000 C 
BRANCH  16  17
ATOM     17  C   UNL     1      12.699   8.745  71.989  0.00  0.00    +0.000 C 
ATOM     18  C   UNL     1      11.713   9.860  72.159  0.00  0.00    +0.000 C 
ATOM     19  C   UNL     1      13.500   8.738  70.977  0.00  0.00    +0.000 C 
ATOM     20  O   UNL     1      15.551   9.098  69.949  0.00  0.00    +0.000 OA
ATOM     21  C   UNL     1      14.395   8.726  69.875  0.00  0.00    +0.000 C 
BRANCH  21  22
ATOM     22  O   UNL     1      13.860   8.243  68.741  0.00  0.00    +0.000 OA
ATOM     23  H   UNL     1      14.590   8.295  68.090  0.00  0.00    +0.000 HD
ENDBRANCH  21  22
ENDBRANCH  16  17
ENDBRANCH  14  15
ENDBRANCH   1  14
TORSDOF 6
ENDMDL
MODEL 5
REMARK VINA RESULT:      -4.2     19.363     22.156
REMARK  Name = RetinoicAcid.pdbqt.pdb
REMARK  6 active torsions:
REMARK  status: ('A' for Active; 'I' for Inactive)
REMARK    1  A    between atoms: C_1  and  C_3
REMARK    2  A    between atoms: C_1  and  C_5
REMARK    3  A    between atoms: C_3  and  C_15
REMARK    4  A    between atoms: C_4  and  C_9
REMARK    5  A    between atoms: C_16  and  C_17
REMARK    6  A    between atoms: C_21  and  O_22
REMARK                            x       y       z     vdW  Elec       q    Type
REMARK                         _______ _______ _______ _____ _____    ______ ____
ROOT
ATOM      1  C   UNL     1      12.705   0.280  73.368  0.00  0.00    +0.000 C 
ATOM      2  C   UNL     1      13.770  -0.650  73.862  0.00  0.00    +0.000 C 
ENDROOT
BRANCH   1   4
ATOM      3  C   UNL     1      12.029   2.381  74.778  0.00  0.00    +0.000 C 
ATOM      4  C   UNL     1      12.342   1.414  74.135  0.00  0.00    +0.000 C 
BRANCH   3   8
ATOM      5  C   UNL     1      12.582   4.801  75.557  0.00  0.00    +0.000 C 
ATOM      6  C   UNL     1      11.952   5.838  76.408  0.00  0.00    +0.000 C 
ATOM      7  C   UNL     1      10.724   6.090  77.261  0.00  0.00    +0.000 C 
ATOM      8  C   UNL     1      11.649   3.544  75.544  0.00  0.00    +0.000 C 
ATOM      9  C   UNL     1      10.147   4.720  76.982  0.00  0.00    +0.000 C 
ATOM     10  C   UNL     1      10.487   3.551  76.243  0.00  0.00    +0.000 C 
ATOM     11  C   UNL     1      13.962   4.401  76.148  0.00  0.00    +0.000 C 
ATOM     12  C   UNL     1      12.727   5.329  74.101  0.00  0.00    +0.000 C 
ATOM     13  C   UNL     1       9.515   2.404  76.288  0.00  0.00    +0.000 C 
ENDBRANCH   3   8
ENDBRANCH   1   4
BRANCH   1  14
ATOM     14  C   UNL     1      12.081   0.020  72.262  0.00  0.00    +0.000 C 
BRANCH  14  15
ATOM     15  C   UNL     1      11.342  -0.288  70.954  0.00  0.00    +0.000 C 
ATOM     16  C   UNL     1      10.761  -0.529  69.931  0.00  0.00    +0.000 C 
BRANCH  16  17
ATOM     17  C   UNL     1      10.073  -0.809  68.727  0.00  0.00    +0.000 C 
ATOM     18  C   UNL     1       8.584  -0.651  68.665  0.00  0.00    +0.000 C 
ATOM     19  C   UNL     1      10.722  -1.231  67.694  0.00  0.00    +0.000 C 
ATOM     20  O   UNL     1      12.037  -0.933  65.802  0.00  0.00    +0.000 OA
ATOM     21  C   UNL     1      11.449  -1.682  66.560  0.00  0.00    +0.000 C 
BRANCH  21  22
ATOM     22  O   UNL     1      11.450  -3.016  66.407  0.00  0.00    +0.000 OA
ATOM     23  H   UNL     1      11.673  -3.359  67.298  0.00  0.00    +0.000 HD
ENDBRANCH  21  22
ENDBRANCH  16  17
ENDBRANCH  14  15
ENDBRANCH   1  14
TORSDOF 6
ENDMDL
MODEL 6
REMARK VINA RESULT:      -4.2     20.889     22.796
REMARK  Name = RetinoicAcid.pdbqt.pdb
REMARK  6 active torsions:
REMARK  status: ('A' for Active; 'I' for Inactive)
REMARK    1  A    between atoms: C_1  and  C_3
REMARK    2  A    between atoms: C_1  and  C_5
REMARK    3  A    between atoms: C_3  and  C_15
REMARK    4  A    between atoms: C_4  and  C_9
REMARK    5  A    between atoms: C_16  and  C_17
REMARK    6  A    between atoms: C_21  and  O_22
REMARK                            x       y       z     vdW  Elec       q    Type
REMARK                         _______ _______ _______ _____ _____    ______ ____
ROOT
ATOM      1  C   UNL     1      12.745   3.850  75.028  0.00  0.00    +0.000 C 
ATOM      2  C   UNL     1      14.032   3.098  75.180  0.00  0.00    +0.000 C 
ENDROOT
BRANCH   1   4
ATOM      3  C   UNL     1      10.525   2.841  75.984  0.00  0.00    +0.000 C 
ATOM      4  C   UNL     1      11.543   3.310  75.546  0.00  0.00    +0.000 C 
BRANCH   3   8
ATOM      5  C   UNL     1       9.146   0.717  76.579  0.00  0.00    +0.000 C 
ATOM      6  C   UNL     1       7.817   0.414  77.161  0.00  0.00    +0.000 C 
ATOM      7  C   UNL     1       6.575   1.092  77.705  0.00  0.00    +0.000 C 
ATOM      8  C   UNL     1       9.307   2.272  76.510  0.00  0.00    +0.000 C 
ATOM      9  C   UNL     1       7.127   2.479  77.465  0.00  0.00    +0.000 C 
ATOM     10  C   UNL     1       8.310   3.081  76.949  0.00  0.00    +0.000 C 
ATOM     11  C   UNL     1       9.238   0.135  75.142  0.00  0.00    +0.000 C 
ATOM     12  C   UNL     1      10.266   0.140  77.491  0.00  0.00    +0.000 C 
ATOM     13  C   UNL     1       8.368   4.583  76.939  0.00  0.00    +0.000 C 
ENDBRANCH   3   8
ENDBRANCH   1   4
BRANCH   1  14
ATOM     14  C   UNL     1      12.725   4.972  74.380  0.00  0.00    +0.000 C 
BRANCH  14  15
ATOM     15  C   UNL     1      12.700   6.301  73.615  0.00  0.00    +0.000 C 
ATOM     16  C   UNL     1      12.683   7.342  73.017  0.00  0.00    +0.000 C 
BRANCH  16  17
ATOM     17  C   UNL     1      12.668   8.568  72.310  0.00  0.00    +0.000 C 
ATOM     18  C   UNL     1      11.677   9.629  72.682  0.00  0.00    +0.000 C 
ATOM     19  C   UNL     1      13.482   8.759  71.328  0.00  0.00    +0.000 C 
ATOM     20  O   UNL     1      15.547   9.313  70.418  0.00  0.00    +0.000 OA
ATOM     21  C   UNL     1      14.393   8.962  70.257  0.00  0.00    +0.000 C 
BRANCH  21  22
ATOM     22  O   UNL     1      13.874   8.711  69.043  0.00  0.00    +0.000 OA
ATOM     23  H   UNL     1      13.628   9.596  68.700  0.00  0.00    +0.000 HD
ENDBRANCH  21  22
ENDBRANCH  16  17
ENDBRANCH  14  15
ENDBRANCH   1  14
TORSDOF 6
ENDMDL
MODEL 7
REMARK VINA RESULT:      -4.0     21.817     23.899
REMARK  Name = RetinoicAcid.pdbqt.pdb
REMARK  6 active torsions:
REMARK  status: ('A' for Active; 'I' for Inactive)
REMARK    1  A    between atoms: C_1  and  C_3
REMARK    2  A    between atoms: C_1  and  C_5
REMARK    3  A    between atoms: C_3  and  C_15
REMARK    4  A    between atoms: C_4  and  C_9
REMARK    5  A    between atoms: C_16  and  C_17
REMARK    6  A    between atoms: C_21  and  O_22
REMARK                            x       y       z     vdW  Elec       q    Type
REMARK                         _______ _______ _______ _____ _____    ______ ____
ROOT
ATOM      1  C   UNL     1      10.215   7.093  77.604  0.00  0.00    +0.000 C 
ATOM      2  C   UNL     1      10.701   7.418  78.983  0.00  0.00    +0.000 C 
ENDROOT
BRANCH   1   4
ATOM      3  C   UNL     1      11.068   4.944  76.374  0.00  0.00    +0.000 C 
ATOM      4  C   UNL     1      10.677   5.929  76.944  0.00  0.00    +0.000 C 
BRANCH   3   8
ATOM      5  C   UNL     1      12.925   3.796  74.959  0.00  0.00    +0.000 C 
ATOM      6  C   UNL     1      13.156   2.467  74.347  0.00  0.00    +0.000 C 
ATOM      7  C   UNL     1      12.512   1.104  74.185  0.00  0.00    +0.000 C 
ATOM      8  C   UNL     1      11.538   3.767  75.684  0.00  0.00    +0.000 C 
ATOM      9  C   UNL     1      11.287   1.498  74.980  0.00  0.00    +0.000 C 
ATOM     10  C   UNL     1      10.785   2.639  75.669  0.00  0.00    +0.000 C 
ATOM     11  C   UNL     1      12.895   4.888  73.855  0.00  0.00    +0.000 C 
ATOM     12  C   UNL     1      14.031   4.093  76.012  0.00  0.00    +0.000 C 
ATOM     13  C   UNL     1       9.448   2.500  76.342  0.00  0.00    +0.000 C 
ENDBRANCH   3   8
ENDBRANCH   1   4
BRANCH   1  14
ATOM     14  C   UNL     1       9.407   7.904  76.996  0.00  0.00    +0.000 C 
BRANCH  14  15
ATOM     15  C   UNL     1       8.449   8.863  76.277  0.00  0.00    +0.000 C 
ATOM     16  C   UNL     1       7.699   9.611  75.713  0.00  0.00    +0.000 C 
BRANCH  16  17
ATOM     17  C   UNL     1       6.811  10.491  75.049  0.00  0.00    +0.000 C 
ATOM     18  C   UNL     1       5.859  11.330  75.846  0.00  0.00    +0.000 C 
ATOM     19  C   UNL     1       6.798  10.545  73.760  0.00  0.00    +0.000 C 
ATOM     20  O   UNL     1       7.599  11.268  71.702  0.00  0.00    +0.000 OA
ATOM     21  C   UNL     1       6.802  10.606  72.341  0.00  0.00    +0.000 C 
BRANCH  21  22
ATOM     22  O   UNL     1       5.859   9.847  71.758  0.00  0.00    +0.000 OA
ATOM     23  H   UNL     1       5.162  10.486  71.503  0.00  0.00    +0.000 HD
ENDBRANCH  21  22
ENDBRANCH  16  17
ENDBRANCH  14  15
ENDBRANCH   1  14
TORSDOF 6
ENDMDL
MODEL 8
REMARK VINA RESULT:      -4.0      4.436      5.440
REMARK  Name = RetinoicAcid.pdbqt.pdb
REMARK  6 active torsions:
REMARK  status: ('A' for Active; 'I' for Inactive)
REMARK    1  A    between atoms: C_1  and  C_3
REMARK    2  A    between atoms: C_1  and  C_5
REMARK    3  A    between atoms: C_3  and  C_15
REMARK    4  A    between atoms: C_4  and  C_9
REMARK    5  A    between atoms: C_16  and  C_17
REMARK    6  A    between atoms: C_21  and  O_22
REMARK                            x       y       z     vdW  Elec       q    Type
REMARK                         _______ _______ _______ _____ _____    ______ ____
ROOT
ATOM      1  C   UNL     1      16.685   4.106  48.908  0.00  0.00    +0.000 C 
ATOM      2  C   UNL     1      17.442   4.050  47.616  0.00  0.00    +0.000 C 
ENDROOT
BRANCH   1   4
ATOM      3  C   UNL     1      17.611   2.858  51.016  0.00  0.00    +0.000 C 
ATOM      4  C   UNL     1      17.180   3.431  50.050  0.00  0.00    +0.000 C 
BRANCH   3   8
ATOM      5  C   UNL     1      19.676   2.178  52.445  0.00  0.00    +0.000 C 
ATOM      6  C   UNL     1      19.930   1.415  53.690  0.00  0.00    +0.000 C 
ATOM      7  C   UNL     1      19.212   0.639  54.776  0.00  0.00    +0.000 C 
ATOM      8  C   UNL     1      18.134   2.173  52.174  0.00  0.00    +0.000 C 
ATOM      9  C   UNL     1      17.851   0.875  54.159  0.00  0.00    +0.000 C 
ATOM     10  C   UNL     1      17.295   1.534  53.026  0.00  0.00    +0.000 C 
ATOM     11  C   UNL     1      20.401   1.499  51.252  0.00  0.00    +0.000 C 
ATOM     12  C   UNL     1      20.145   3.650  52.623  0.00  0.00    +0.000 C 
ATOM     13  C   UNL     1      15.800   1.480  52.866  0.00  0.00    +0.000 C 
ENDBRANCH   3   8
ENDBRANCH   1   4
BRANCH   1  14
ATOM     14  C   UNL     1      15.553   4.735  48.967  0.00  0.00    +0.000 C 
BRANCH  14  15
ATOM     15  C   UNL     1      14.214   5.478  49.040  0.00  0.00    +0.000 C 
ATOM     16  C   UNL     1      13.165   6.059  49.095  0.00  0.00    +0.000 C 
BRANCH  16  17
ATOM     17  C   UNL     1      11.925   6.740  49.161  0.00  0.00    +0.000 C 
ATOM     18  C   UNL     1      11.485   7.597  48.013  0.00  0.00    +0.000 C 
ATOM     19  C   UNL     1      11.192   6.648  50.219  0.00  0.00    +0.000 C 
ATOM     20  O   UNL     1       9.642   5.588  51.588  0.00  0.00    +0.000 OA
ATOM     21  C   UNL     1      10.388   6.529  51.383  0.00  0.00    +0.000 C 
BRANCH  21  22
ATOM     22  O   UNL     1      10.538   7.538  52.257  0.00  0.00    +0.000 OA
ATOM     23  H   UNL     1       9.636   7.686  52.609  0.00  0.00    +0.000 HD
ENDBRANCH  21  22
ENDBRANCH  16  17
ENDBRANCH  14  15
ENDBRANCH   1  14
TORSDOF 6
ENDMDL
MODEL 9
REMARK VINA RESULT:      -4.0     21.281     23.123
REMARK  Name = RetinoicAcid.pdbqt.pdb
REMARK  6 active torsions:
REMARK  status: ('A' for Active; 'I' for Inactive)
REMARK    1  A    between atoms: C_1  and  C_3
REMARK    2  A    between atoms: C_1  and  C_5
REMARK    3  A    between atoms: C_3  and  C_15
REMARK    4  A    between atoms: C_4  and  C_9
REMARK    5  A    between atoms: C_16  and  C_17
REMARK    6  A    between atoms: C_21  and  O_22
REMARK                            x       y       z     vdW  Elec       q    Type
REMARK                         _______ _______ _______ _____ _____    ______ ____
ROOT
ATOM      1  C   UNL     1      12.773   4.901  75.849  0.00  0.00    +0.000 C 
ATOM      2  C   UNL     1      14.024   4.720  76.652  0.00  0.00    +0.000 C 
ENDROOT
BRANCH   1   4
ATOM      3  C   UNL     1      10.750   3.275  76.200  0.00  0.00    +0.000 C 
ATOM      4  C   UNL     1      11.678   4.022  76.033  0.00  0.00    +0.000 C 
BRANCH   3   8
ATOM      5  C   UNL     1       8.479   2.797  77.377  0.00  0.00    +0.000 C 
ATOM      6  C   UNL     1       7.476   1.706  77.396  0.00  0.00    +0.000 C 
ATOM      7  C   UNL     1       7.193   0.340  76.803  0.00  0.00    +0.000 C 
ATOM      8  C   UNL     1       9.636   2.380  76.408  0.00  0.00    +0.000 C 
ATOM      9  C   UNL     1       8.470   0.338  75.991  0.00  0.00    +0.000 C 
ATOM     10  C   UNL     1       9.589   1.189  75.762  0.00  0.00    +0.000 C 
ATOM     11  C   UNL     1       9.062   3.002  78.802  0.00  0.00    +0.000 C 
ATOM     12  C   UNL     1       7.828   4.104  76.843  0.00  0.00    +0.000 C 
ATOM     13  C   UNL     1      10.638   0.699  74.803  0.00  0.00    +0.000 C 
ENDBRANCH   3   8
ENDBRANCH   1   4
BRANCH   1  14
ATOM     14  C   UNL     1      12.710   5.834  74.951  0.00  0.00    +0.000 C 
BRANCH  14  15
ATOM     15  C   UNL     1      12.638   6.939  73.890  0.00  0.00    +0.000 C 
ATOM     16  C   UNL     1      12.580   7.805  73.060  0.00  0.00    +0.000 C 
BRANCH  16  17
ATOM     17  C   UNL     1      12.511   8.829  72.086  0.00  0.00    +0.000 C 
ATOM     18  C   UNL     1      13.576   8.931  71.037  0.00  0.00    +0.000 C 
ATOM     19  C   UNL     1      11.552   9.692  72.120  0.00  0.00    +0.000 C 
ATOM     20  O   UNL     1       9.381  10.403  71.697  0.00  0.00    +0.000 OA
ATOM     21  C   UNL     1      10.484  10.627  72.160  0.00  0.00    +0.000 C 
BRANCH  21  22
ATOM     22  O   UNL     1      10.790  11.780  72.778  0.00  0.00    +0.000 OA
ATOM     23  H   UNL     1      11.748  11.896  72.607  0.00  0.00    +0.000 HD
ENDBRANCH  21  22
ENDBRANCH  16  17
ENDBRANCH  14  15
ENDBRANCH   1  14
TORSDOF 6
ENDMDL
