MODEL 1
REMARK VINA RESULT:      -4.9      0.000      0.000
REMARK  Name = SB_202190.pdbqt.pdb
REMARK  4 active torsions:
REMARK  status: ('A' for Active; 'I' for Inactive)
REMARK    1  A    between atoms: C_4  and  C_7
REMARK    2  A    between atoms: C_5  and  C_19
REMARK    3  A    between atoms: C_6  and  C_8
REMARK    4  A    between atoms: C_15  and  O_26
REMARK                            x       y       z     vdW  Elec       q    Type
REMARK                         _______ _______ _______ _____ _____    ______ ____
ROOT
ATOM      1  N   UNL     1      14.960  11.825  58.969  0.00  0.00    +0.000 N 
ATOM      2  N   UNL     1      14.324  11.528  61.052  0.00  0.00    +0.000 NA
ATOM      3  C   UNL     1      13.731  12.447  59.056  0.00  0.00    +0.000 A 
ATOM      4  C   UNL     1      13.345  12.216  60.369  0.00  0.00    +0.000 A 
ATOM      5  C   UNL     1      15.294  11.296  60.193  0.00  0.00    +0.000 A 
ATOM      6  H   UNL     1      15.547  11.794  58.147  0.00  0.00    +0.000 HD
ENDROOT
BRANCH   4   7
ATOM      7  C   UNL     1      12.105  12.591  61.015  0.00  0.00    +0.000 A 
ATOM      8  C   UNL     1      10.877  12.088  60.578  0.00  0.00    +0.000 A 
ATOM      9  C   UNL     1       9.699  12.424  61.240  0.00  0.00    +0.000 A 
ATOM     10  C   UNL     1       9.757  13.253  62.354  0.00  0.00    +0.000 A 
ATOM     11  F   UNL     1       8.625  13.581  62.990  0.00  0.00    +0.000 F 
ATOM     12  C   UNL     1      10.970  13.749  62.816  0.00  0.00    +0.000 A 
ATOM     13  C   UNL     1      12.144  13.409  62.147  0.00  0.00    +0.000 A 
ENDBRANCH   4   7
BRANCH   3  15
ATOM     14  N   UNL     1      11.969  14.567  55.800  0.00  0.00    +0.000 NA
ATOM     15  C   UNL     1      13.145  13.173  57.933  0.00  0.00    +0.000 A 
ATOM     16  C   UNL     1      12.736  12.499  56.785  0.00  0.00    +0.000 A 
ATOM     17  C   UNL     1      12.948  14.552  58.008  0.00  0.00    +0.000 A 
ATOM     18  C   UNL     1      12.164  13.232  55.757  0.00  0.00    +0.000 A 
ATOM     19  C   UNL     1      12.369  15.194  56.926  0.00  0.00    +0.000 A 
ENDBRANCH   3  15
BRANCH   5  20
ATOM     20  C   UNL     1      16.541  10.590  60.466  0.00  0.00    +0.000 A 
ATOM     21  C   UNL     1      17.361  10.194  59.406  0.00  0.00    +0.000 A 
ATOM     22  C   UNL     1      16.939  10.298  61.774  0.00  0.00    +0.000 A 
ATOM     23  C   UNL     1      18.556   9.519  59.642  0.00  0.00    +0.000 A 
ATOM     24  C   UNL     1      18.132   9.623  62.021  0.00  0.00    +0.000 A 
ATOM     25  C   UNL     1      18.931   9.239  60.952  0.00  0.00    +0.000 A 
BRANCH  25  26
ATOM     26  O   UNL     1      20.096   8.580  61.217  0.00  0.00    +0.000 OA
ATOM     27  H   UNL     1      20.159   7.819  60.614  0.00  0.00    +0.000 HD
ENDBRANCH  25  26
ENDBRANCH   5  20
TORSDOF 4
ENDMDL
MODEL 2
REMARK VINA RESULT:      -4.8      2.932      5.838
REMARK  Name = SB_202190.pdbqt.pdb
REMARK  4 active torsions:
REMARK  status: ('A' for Active; 'I' for Inactive)
REMARK    1  A    between atoms: C_4  and  C_7
REMARK    2  A    between atoms: C_5  and  C_19
REMARK    3  A    between atoms: C_6  and  C_8
REMARK    4  A    between atoms: C_15  and  O_26
REMARK                            x       y       z     vdW  Elec       q    Type
REMARK                         _______ _______ _______ _____ _____    ______ ____
ROOT
ATOM      1  N   UNL     1      14.465  12.187  58.367  0.00  0.00    +0.000 N 
ATOM      2  N   UNL     1      12.289  12.489  58.282  0.00  0.00    +0.000 NA
ATOM      3  C   UNL     1      14.054  12.177  59.685  0.00  0.00    +0.000 A 
ATOM      4  C   UNL     1      12.687  12.399  59.597  0.00  0.00    +0.000 A 
ATOM      5  C   UNL     1      13.375  12.361  57.548  0.00  0.00    +0.000 A 
ATOM      6  H   UNL     1      15.412  12.049  58.044  0.00  0.00    +0.000 HD
ENDROOT
BRANCH   4   7
ATOM      7  C   UNL     1      11.736  12.547  60.679  0.00  0.00    +0.000 A 
ATOM      8  C   UNL     1      12.008  13.363  61.779  0.00  0.00    +0.000 A 
ATOM      9  C   UNL     1      11.063  13.530  62.789  0.00  0.00    +0.000 A 
ATOM     10  C   UNL     1       9.835  12.887  62.682  0.00  0.00    +0.000 A 
ATOM     11  F   UNL     1       8.925  13.041  63.653  0.00  0.00    +0.000 F 
ATOM     12  C   UNL     1       9.537  12.085  61.587  0.00  0.00    +0.000 A 
ATOM     13  C   UNL     1      10.489  11.924  60.583  0.00  0.00    +0.000 A 
ENDBRANCH   4   7
BRANCH   3  15
ATOM     14  N   UNL     1      16.804  11.469  62.869  0.00  0.00    +0.000 NA
ATOM     15  C   UNL     1      14.980  11.930  60.786  0.00  0.00    +0.000 A 
ATOM     16  C   UNL     1      15.457  10.646  61.041  0.00  0.00    +0.000 A 
ATOM     17  C   UNL     1      15.435  12.984  61.577  0.00  0.00    +0.000 A 
ATOM     18  C   UNL     1      16.353  10.469  62.082  0.00  0.00    +0.000 A 
ATOM     19  C   UNL     1      16.330  12.703  62.597  0.00  0.00    +0.000 A 
ENDBRANCH   3  15
BRANCH   5  20
ATOM     20  C   UNL     1      13.442  12.395  56.091  0.00  0.00    +0.000 A 
ATOM     21  C   UNL     1      12.418  13.009  55.364  0.00  0.00    +0.000 A 
ATOM     22  C   UNL     1      14.514  11.824  55.400  0.00  0.00    +0.000 A 
ATOM     23  C   UNL     1      12.461  13.054  53.973  0.00  0.00    +0.000 A 
ATOM     24  C   UNL     1      14.566  11.864  54.009  0.00  0.00    +0.000 A 
ATOM     25  C   UNL     1      13.538  12.479  53.306  0.00  0.00    +0.000 A 
BRANCH  25  26
ATOM     26  O   UNL     1      13.609  12.507  51.944  0.00  0.00    +0.000 OA
ATOM     27  H   UNL     1      14.242  13.200  51.686  0.00  0.00    +0.000 HD
ENDBRANCH  25  26
ENDBRANCH   5  20
TORSDOF 4
ENDMDL
MODEL 3
REMARK VINA RESULT:      -4.7      5.418      7.939
REMARK  Name = SB_202190.pdbqt.pdb
REMARK  4 active torsions:
REMARK  status: ('A' for Active; 'I' for Inactive)
REMARK    1  A    between atoms: C_4  and  C_7
REMARK    2  A    between atoms: C_5  and  C_19
REMARK    3  A    between atoms: C_6  and  C_8
REMARK    4  A    between atoms: C_15  and  O_26
REMARK                            x       y       z     vdW  Elec       q    Type
REMARK                         _______ _______ _______ _____ _____    ______ ____
ROOT
ATOM      1  N   UNL     1      17.046  11.039  57.583  0.00  0.00    +0.000 N 
ATOM      2  N   UNL     1      18.411   9.323  57.746  0.00  0.00    +0.000 NA
ATOM      3  C   UNL     1      17.376  10.723  56.280  0.00  0.00    +0.000 A 
ATOM      4  C   UNL     1      18.258   9.661  56.420  0.00  0.00    +0.000 A 
ATOM      5  C   UNL     1      17.675  10.166  58.439  0.00  0.00    +0.000 A 
ATOM      6  H   UNL     1      16.411  11.770  57.869  0.00  0.00    +0.000 HD
ENDROOT
BRANCH   4   7
ATOM      7  C   UNL     1      18.977   8.955  55.380  0.00  0.00    +0.000 A 
ATOM      8  C   UNL     1      18.338   8.538  54.209  0.00  0.00    +0.000 A 
ATOM      9  C   UNL     1      19.055   7.901  53.199  0.00  0.00    +0.000 A 
ATOM     10  C   UNL     1      20.420   7.698  53.361  0.00  0.00    +0.000 A 
ATOM     11  F   UNL     1      21.112   7.081  52.393  0.00  0.00    +0.000 F 
ATOM     12  C   UNL     1      21.079   8.120  54.509  0.00  0.00    +0.000 A 
ATOM     13  C   UNL     1      20.353   8.756  55.514  0.00  0.00    +0.000 A 
ENDBRANCH   4   7
BRANCH   3  15
ATOM     14  N   UNL     1      15.702  12.736  52.912  0.00  0.00    +0.000 NA
ATOM     15  C   UNL     1      16.797  11.426  55.139  0.00  0.00    +0.000 A 
ATOM     16  C   UNL     1      17.493  12.453  54.506  0.00  0.00    +0.000 A 
ATOM     17  C   UNL     1      15.550  11.053  54.637  0.00  0.00    +0.000 A 
ATOM     18  C   UNL     1      16.909  13.072  53.413  0.00  0.00    +0.000 A 
ATOM     19  C   UNL     1      15.051  11.735  53.540  0.00  0.00    +0.000 A 
ENDBRANCH   3  15
BRANCH   5  20
ATOM     20  C   UNL     1      17.528  10.195  59.890  0.00  0.00    +0.000 A 
ATOM     21  C   UNL     1      18.485   9.572  60.696  0.00  0.00    +0.000 A 
ATOM     22  C   UNL     1      16.445  10.836  60.498  0.00  0.00    +0.000 A 
ATOM     23  C   UNL     1      18.366   9.587  62.084  0.00  0.00    +0.000 A 
ATOM     24  C   UNL     1      16.317  10.856  61.885  0.00  0.00    +0.000 A 
ATOM     25  C   UNL     1      17.280  10.231  62.667  0.00  0.00    +0.000 A 
BRANCH  25  26
ATOM     26  O   UNL     1      17.135  10.264  64.024  0.00  0.00    +0.000 OA
ATOM     27  H   UNL     1      16.762  11.128  64.269  0.00  0.00    +0.000 HD
ENDBRANCH  25  26
ENDBRANCH   5  20
TORSDOF 4
ENDMDL
MODEL 4
REMARK VINA RESULT:      -4.4      3.568      6.464
REMARK  Name = SB_202190.pdbqt.pdb
REMARK  4 active torsions:
REMARK  status: ('A' for Active; 'I' for Inactive)
REMARK    1  A    between atoms: C_4  and  C_7
REMARK    2  A    between atoms: C_5  and  C_19
REMARK    3  A    between atoms: C_6  and  C_8
REMARK    4  A    between atoms: C_15  and  O_26
REMARK                            x       y       z     vdW  Elec       q    Type
REMARK                         _______ _______ _______ _____ _____    ______ ____
ROOT
ATOM      1  N   UNL     1      12.224  12.568  58.408  0.00  0.00    +0.000 N 
ATOM      2  N   UNL     1      14.381  12.155  58.309  0.00  0.00    +0.000 NA
ATOM      3  C   UNL     1      12.631  12.492  59.725  0.00  0.00    +0.000 A 
ATOM      4  C   UNL     1      13.984  12.202  59.628  0.00  0.00    +0.000 A 
ATOM      5  C   UNL     1      13.306  12.376  57.582  0.00  0.00    +0.000 A 
ATOM      6  H   UNL     1      11.287  12.772  58.092  0.00  0.00    +0.000 HD
ENDROOT
BRANCH   4   7
ATOM      7  C   UNL     1      14.923  11.951  60.702  0.00  0.00    +0.000 A 
ATOM      8  C   UNL     1      15.434  10.673  60.937  0.00  0.00    +0.000 A 
ATOM      9  C   UNL     1      16.371  10.459  61.945  0.00  0.00    +0.000 A 
ATOM     10  C   UNL     1      16.807  11.537  62.707  0.00  0.00    +0.000 A 
ATOM     11  F   UNL     1      17.705  11.334  63.680  0.00  0.00    +0.000 F 
ATOM     12  C   UNL     1      16.325  12.820  62.477  0.00  0.00    +0.000 A 
ATOM     13  C   UNL     1      15.388  13.024  61.467  0.00  0.00    +0.000 A 
ENDBRANCH   4   7
BRANCH   3  15
ATOM     14  N   UNL     1       9.987  13.165  63.005  0.00  0.00    +0.000 NA
ATOM     15  C   UNL     1      11.716  12.735  60.837  0.00  0.00    +0.000 A 
ATOM     16  C   UNL     1      10.517  12.032  60.939  0.00  0.00    +0.000 A 
ATOM     17  C   UNL     1      12.046  13.648  61.838  0.00  0.00    +0.000 A 
ATOM     18  C   UNL     1       9.696  12.282  62.026  0.00  0.00    +0.000 A 
ATOM     19  C   UNL     1      11.155  13.828  62.884  0.00  0.00    +0.000 A 
ENDBRANCH   3  15
BRANCH   5  20
ATOM     20  C   UNL     1      13.242  12.417  56.126  0.00  0.00    +0.000 A 
ATOM     21  C   UNL     1      12.071  12.848  55.495  0.00  0.00    +0.000 A 
ATOM     22  C   UNL     1      14.331  12.033  55.339  0.00  0.00    +0.000 A 
ATOM     23  C   UNL     1      11.986  12.895  54.106  0.00  0.00    +0.000 A 
ATOM     24  C   UNL     1      14.257  12.076  53.949  0.00  0.00    +0.000 A 
ATOM     25  C   UNL     1      13.083  12.508  53.343  0.00  0.00    +0.000 A 
BRANCH  25  26
ATOM     26  O   UNL     1      13.032  12.544  51.980  0.00  0.00    +0.000 OA
ATOM     27  H   UNL     1      13.755  11.992  51.634  0.00  0.00    +0.000 HD
ENDBRANCH  25  26
ENDBRANCH   5  20
TORSDOF 4
ENDMDL
MODEL 5
REMARK VINA RESULT:      -4.3      2.015      4.244
REMARK  Name = SB_202190.pdbqt.pdb
REMARK  4 active torsions:
REMARK  status: ('A' for Active; 'I' for Inactive)
REMARK    1  A    between atoms: C_4  and  C_7
REMARK    2  A    between atoms: C_5  and  C_19
REMARK    3  A    between atoms: C_6  and  C_8
REMARK    4  A    between atoms: C_15  and  O_26
REMARK                            x       y       z     vdW  Elec       q    Type
REMARK                         _______ _______ _______ _____ _____    ______ ____
ROOT
ATOM      1  N   UNL     1      14.252  11.686  61.094  0.00  0.00    +0.000 N 
ATOM      2  N   UNL     1      14.918  12.038  59.029  0.00  0.00    +0.000 NA
ATOM      3  C   UNL     1      13.228  12.405  60.510  0.00  0.00    +0.000 A 
ATOM      4  C   UNL     1      13.692  12.636  59.222  0.00  0.00    +0.000 A 
ATOM      5  C   UNL     1      15.246  11.469  60.170  0.00  0.00    +0.000 A 
ATOM      6  H   UNL     1      14.259  11.336  62.042  0.00  0.00    +0.000 HD
ENDROOT
BRANCH   4   7
ATOM      7  C   UNL     1      13.056  13.397  58.167  0.00  0.00    +0.000 A 
ATOM      8  C   UNL     1      12.156  12.801  57.281  0.00  0.00    +0.000 A 
ATOM      9  C   UNL     1      11.519  13.559  56.302  0.00  0.00    +0.000 A 
ATOM     10  C   UNL     1      11.775  14.923  56.225  0.00  0.00    +0.000 A 
ATOM     11  F   UNL     1      11.167  15.654  55.281  0.00  0.00    +0.000 F 
ATOM     12  C   UNL     1      12.652  15.539  57.109  0.00  0.00    +0.000 A 
ATOM     13  C   UNL     1      13.286  14.773  58.084  0.00  0.00    +0.000 A 
ENDBRANCH   4   7
BRANCH   3  15
ATOM     14  N   UNL     1       9.636  13.291  62.633  0.00  0.00    +0.000 NA
ATOM     15  C   UNL     1      11.994  12.721  61.223  0.00  0.00    +0.000 A 
ATOM     16  C   UNL     1      10.788  12.127  60.858  0.00  0.00    +0.000 A 
ATOM     17  C   UNL     1      12.010  13.595  62.310  0.00  0.00    +0.000 A 
ATOM     18  C   UNL     1       9.650  12.443  61.582  0.00  0.00    +0.000 A 
ATOM     19  C   UNL     1      10.817  13.848  62.968  0.00  0.00    +0.000 A 
ENDBRANCH   3  15
BRANCH   5  20
ATOM     20  C   UNL     1      16.467  10.719  60.442  0.00  0.00    +0.000 A 
ATOM     21  C   UNL     1      16.825  10.432  61.763  0.00  0.00    +0.000 A 
ATOM     22  C   UNL     1      17.293  10.276  59.406  0.00  0.00    +0.000 A 
ATOM     23  C   UNL     1      17.986   9.717  62.047  0.00  0.00    +0.000 A 
ATOM     24  C   UNL     1      18.457   9.560  59.680  0.00  0.00    +0.000 A 
ATOM     25  C   UNL     1      18.793   9.286  60.999  0.00  0.00    +0.000 A 
BRANCH  25  26
ATOM     26  O   UNL     1      19.937   8.584  61.245  0.00  0.00    +0.000 OA
ATOM     27  H   UNL     1      19.753   7.640  61.092  0.00  0.00    +0.000 HD
ENDBRANCH  25  26
ENDBRANCH   5  20
TORSDOF 4
ENDMDL
MODEL 6
REMARK VINA RESULT:      -4.3      5.370      8.140
REMARK  Name = SB_202190.pdbqt.pdb
REMARK  4 active torsions:
REMARK  status: ('A' for Active; 'I' for Inactive)
REMARK    1  A    between atoms: C_4  and  C_7
REMARK    2  A    between atoms: C_5  and  C_19
REMARK    3  A    between atoms: C_6  and  C_8
REMARK    4  A    between atoms: C_15  and  O_26
REMARK                            x       y       z     vdW  Elec       q    Type
REMARK                         _______ _______ _______ _____ _____    ______ ____
ROOT
ATOM      1  N   UNL     1      19.201   9.058  58.402  0.00  0.00    +0.000 N 
ATOM      2  N   UNL     1      17.629  10.552  58.044  0.00  0.00    +0.000 NA
ATOM      3  C   UNL     1      19.250   9.305  57.044  0.00  0.00    +0.000 A 
ATOM      4  C   UNL     1      18.229  10.225  56.848  0.00  0.00    +0.000 A 
ATOM      5  C   UNL     1      18.225   9.837  58.975  0.00  0.00    +0.000 A 
ATOM      6  H   UNL     1      19.812   8.433  58.908  0.00  0.00    +0.000 HD
ENDROOT
BRANCH   4   7
ATOM      7  C   UNL     1      17.777  10.803  55.600  0.00  0.00    +0.000 A 
ATOM      8  C   UNL     1      16.683  10.277  54.909  0.00  0.00    +0.000 A 
ATOM      9  C   UNL     1      16.233  10.873  53.734  0.00  0.00    +0.000 A 
ATOM     10  C   UNL     1      16.876  12.012  53.262  0.00  0.00    +0.000 A 
ATOM     11  F   UNL     1      16.449  12.587  52.129  0.00  0.00    +0.000 F 
ATOM     12  C   UNL     1      17.954  12.563  53.943  0.00  0.00    +0.000 A 
ATOM     13  C   UNL     1      18.397  11.958  55.117  0.00  0.00    +0.000 A 
ENDBRANCH   4   7
BRANCH   3  15
ATOM     14  N   UNL     1      22.132   7.437  54.514  0.00  0.00    +0.000 NA
ATOM     15  C   UNL     1      20.245   8.683  56.176  0.00  0.00    +0.000 A 
ATOM     16  C   UNL     1      21.476   8.271  56.683  0.00  0.00    +0.000 A 
ATOM     17  C   UNL     1      19.964   8.453  54.829  0.00  0.00    +0.000 A 
ATOM     18  C   UNL     1      22.375   7.664  55.822  0.00  0.00    +0.000 A 
ATOM     19  C   UNL     1      20.931   7.840  54.050  0.00  0.00    +0.000 A 
ENDBRANCH   3  15
BRANCH   5  20
ATOM     20  C   UNL     1      17.918   9.848  60.401  0.00  0.00    +0.000 A 
ATOM     21  C   UNL     1      18.824   9.292  61.309  0.00  0.00    +0.000 A 
ATOM     22  C   UNL     1      16.732  10.406  60.885  0.00  0.00    +0.000 A 
ATOM     23  C   UNL     1      18.553   9.291  62.675  0.00  0.00    +0.000 A 
ATOM     24  C   UNL     1      16.451  10.410  62.249  0.00  0.00    +0.000 A 
ATOM     25  C   UNL     1      17.365   9.852  63.134  0.00  0.00    +0.000 A 
BRANCH  25  26
ATOM     26  O   UNL     1      17.071   9.867  64.466  0.00  0.00    +0.000 OA
ATOM     27  H   UNL     1      16.197   9.458  64.589  0.00  0.00    +0.000 HD
ENDBRANCH  25  26
ENDBRANCH   5  20
TORSDOF 4
ENDMDL
MODEL 7
REMARK VINA RESULT:      -4.2      4.243      6.821
REMARK  Name = SB_202190.pdbqt.pdb
REMARK  4 active torsions:
REMARK  status: ('A' for Active; 'I' for Inactive)
REMARK    1  A    between atoms: C_4  and  C_7
REMARK    2  A    between atoms: C_5  and  C_19
REMARK    3  A    between atoms: C_6  and  C_8
REMARK    4  A    between atoms: C_15  and  O_26
REMARK                            x       y       z     vdW  Elec       q    Type
REMARK                         _______ _______ _______ _____ _____    ______ ____
ROOT
ATOM      1  N   UNL     1       9.745  13.007  62.281  0.00  0.00    +0.000 N 
ATOM      2  N   UNL     1      10.318  11.648  60.650  0.00  0.00    +0.000 NA
ATOM      3  C   UNL     1       8.569  12.392  61.901  0.00  0.00    +0.000 A 
ATOM      4  C   UNL     1       8.958  11.568  60.855  0.00  0.00    +0.000 A 
ATOM      5  C   UNL     1      10.781  12.523  61.517  0.00  0.00    +0.000 A 
ATOM      6  H   UNL     1       9.844  13.678  63.029  0.00  0.00    +0.000 HD
ENDROOT
BRANCH   4   7
ATOM      7  C   UNL     1       8.125  10.721  60.028  0.00  0.00    +0.000 A 
ATOM      8  C   UNL     1       7.957   9.364  60.314  0.00  0.00    +0.000 A 
ATOM      9  C   UNL     1       7.116   8.574  59.535  0.00  0.00    +0.000 A 
ATOM     10  C   UNL     1       6.428   9.155  58.476  0.00  0.00    +0.000 A 
ATOM     11  F   UNL     1       5.620   8.397  57.721  0.00  0.00    +0.000 F 
ATOM     12  C   UNL     1       6.566  10.507  58.185  0.00  0.00    +0.000 A 
ATOM     13  C   UNL     1       7.411  11.289  58.970  0.00  0.00    +0.000 A 
ENDBRANCH   4   7
BRANCH   3  15
ATOM     14  N   UNL     1       4.903  13.151  63.948  0.00  0.00    +0.000 NA
ATOM     15  C   UNL     1       7.304  12.643  62.587  0.00  0.00    +0.000 A 
ATOM     16  C   UNL     1       6.739  11.675  63.415  0.00  0.00    +0.000 A 
ATOM     17  C   UNL     1       6.661  13.873  62.457  0.00  0.00    +0.000 A 
ATOM     18  C   UNL     1       5.551  11.972  64.062  0.00  0.00    +0.000 A 
ATOM     19  C   UNL     1       5.474  14.072  63.145  0.00  0.00    +0.000 A 
ENDBRANCH   3  15
BRANCH   5  20
ATOM     20  C   UNL     1      12.172  12.937  61.669  0.00  0.00    +0.000 A 
ATOM     21  C   UNL     1      12.485  14.030  62.481  0.00  0.00    +0.000 A 
ATOM     22  C   UNL     1      13.206  12.260  61.017  0.00  0.00    +0.000 A 
ATOM     23  C   UNL     1      13.806  14.444  62.642  0.00  0.00    +0.000 A 
ATOM     24  C   UNL     1      14.530  12.666  61.170  0.00  0.00    +0.000 A 
ATOM     25  C   UNL     1      14.819  13.755  61.983  0.00  0.00    +0.000 A 
BRANCH  25  26
ATOM     26  O   UNL     1      16.122  14.135  62.119  0.00  0.00    +0.000 OA
ATOM     27  H   UNL     1      16.328  14.181  63.069  0.00  0.00    +0.000 HD
ENDBRANCH  25  26
ENDBRANCH   5  20
TORSDOF 4
ENDMDL
MODEL 8
REMARK VINA RESULT:      -4.1      6.343      9.150
REMARK  Name = SB_202190.pdbqt.pdb
REMARK  4 active torsions:
REMARK  status: ('A' for Active; 'I' for Inactive)
REMARK    1  A    between atoms: C_4  and  C_7
REMARK    2  A    between atoms: C_5  and  C_19
REMARK    3  A    between atoms: C_6  and  C_8
REMARK    4  A    between atoms: C_15  and  O_26
REMARK                            x       y       z     vdW  Elec       q    Type
REMARK                         _______ _______ _______ _____ _____    ______ ____
ROOT
ATOM      1  N   UNL     1       7.549   9.426  60.791  0.00  0.00    +0.000 N 
ATOM      2  N   UNL     1       6.722  11.327  61.523  0.00  0.00    +0.000 NA
ATOM      3  C   UNL     1       6.394   9.075  61.460  0.00  0.00    +0.000 A 
ATOM      4  C   UNL     1       5.915  10.288  61.934  0.00  0.00    +0.000 A 
ATOM      5  C   UNL     1       7.707  10.790  60.835  0.00  0.00    +0.000 A 
ATOM      6  H   UNL     1       8.165   8.789  60.307  0.00  0.00    +0.000 HD
ENDROOT
BRANCH   4   7
ATOM      7  C   UNL     1       4.752  10.527  62.763  0.00  0.00    +0.000 A 
ATOM      8  C   UNL     1       4.877  10.902  64.102  0.00  0.00    +0.000 A 
ATOM      9  C   UNL     1       3.749  11.172  64.871  0.00  0.00    +0.000 A 
ATOM     10  C   UNL     1       2.491  11.081  64.287  0.00  0.00    +0.000 A 
ATOM     11  F   UNL     1       1.402  11.335  65.025  0.00  0.00    +0.000 F 
ATOM     12  C   UNL     1       2.344  10.727  62.951  0.00  0.00    +0.000 A 
ATOM     13  C   UNL     1       3.479  10.458  62.189  0.00  0.00    +0.000 A 
ENDBRANCH   4   7
BRANCH   3  15
ATOM     14  N   UNL     1       4.947   5.064  61.600  0.00  0.00    +0.000 NA
ATOM     15  C   UNL     1       5.915   7.697  61.516  0.00  0.00    +0.000 A 
ATOM     16  C   UNL     1       5.340   7.188  62.679  0.00  0.00    +0.000 A 
ATOM     17  C   UNL     1       5.990   6.876  60.391  0.00  0.00    +0.000 A 
ATOM     18  C   UNL     1       4.880   5.882  62.671  0.00  0.00    +0.000 A 
ATOM     19  C   UNL     1       5.504   5.582  60.486  0.00  0.00    +0.000 A 
ENDBRANCH   3  15
BRANCH   5  20
ATOM     20  C   UNL     1       8.811  11.507  60.204  0.00  0.00    +0.000 A 
ATOM     21  C   UNL     1       8.638  12.071  58.938  0.00  0.00    +0.000 A 
ATOM     22  C   UNL     1      10.047  11.644  60.842  0.00  0.00    +0.000 A 
ATOM     23  C   UNL     1       9.677  12.760  58.316  0.00  0.00    +0.000 A 
ATOM     24  C   UNL     1      11.092  12.330  60.230  0.00  0.00    +0.000 A 
ATOM     25  C   UNL     1      10.898  12.884  58.970  0.00  0.00    +0.000 A 
BRANCH  25  26
ATOM     26  O   UNL     1      11.935  13.553  58.388  0.00  0.00    +0.000 OA
ATOM     27  H   UNL     1      11.722  14.502  58.387  0.00  0.00    +0.000 HD
ENDBRANCH  25  26
ENDBRANCH   5  20
TORSDOF 4
ENDMDL
MODEL 9
REMARK VINA RESULT:      -4.0     14.773     17.426
REMARK  Name = SB_202190.pdbqt.pdb
REMARK  4 active torsions:
REMARK  status: ('A' for Active; 'I' for Inactive)
REMARK    1  A    between atoms: C_4  and  C_7
REMARK    2  A    between atoms: C_5  and  C_19
REMARK    3  A    between atoms: C_6  and  C_8
REMARK    4  A    between atoms: C_15  and  O_26
REMARK                            x       y       z     vdW  Elec       q    Type
REMARK                         _______ _______ _______ _____ _____    ______ ____
ROOT
ATOM      1  N   UNL     1      15.423   3.176  73.390  0.00  0.00    +0.000 N 
ATOM      2  N   UNL     1      13.331   3.557  72.833  0.00  0.00    +0.000 NA
ATOM      3  C   UNL     1      14.684   2.758  74.479  0.00  0.00    +0.000 A 
ATOM      4  C   UNL     1      13.377   3.040  74.108  0.00  0.00    +0.000 A 
ATOM      5  C   UNL     1      14.575   3.636  72.411  0.00  0.00    +0.000 A 
ATOM      6  H   UNL     1      16.427   3.118  73.303  0.00  0.00    +0.000 HD
ENDROOT
BRANCH   4   7
ATOM      7  C   UNL     1      12.170   2.864  74.889  0.00  0.00    +0.000 A 
ATOM      8  C   UNL     1      11.633   3.910  75.642  0.00  0.00    +0.000 A 
ATOM      9  C   UNL     1      10.446   3.737  76.350  0.00  0.00    +0.000 A 
ATOM     10  C   UNL     1       9.791   2.513  76.288  0.00  0.00    +0.000 A 
ATOM     11  F   UNL     1       8.652   2.340  76.972  0.00  0.00    +0.000 F 
ATOM     12  C   UNL     1      10.299   1.464  75.530  0.00  0.00    +0.000 A 
ATOM     13  C   UNL     1      11.486   1.647  74.826  0.00  0.00    +0.000 A 
ENDBRANCH   4   7
BRANCH   3  15
ATOM     14  N   UNL     1      16.545   0.958  77.870  0.00  0.00    +0.000 NA
ATOM     15  C   UNL     1      15.304   2.143  75.649  0.00  0.00    +0.000 A 
ATOM     16  C   UNL     1      15.220   0.768  75.860  0.00  0.00    +0.000 A 
ATOM     17  C   UNL     1      16.027   2.917  76.556  0.00  0.00    +0.000 A 
ATOM     18  C   UNL     1      15.846   0.231  76.973  0.00  0.00    +0.000 A 
ATOM     19  C   UNL     1      16.616   2.286  77.639  0.00  0.00    +0.000 A 
ENDBRANCH   3  15
BRANCH   5  20
ATOM     20  C   UNL     1      15.017   4.132  71.112  0.00  0.00    +0.000 A 
ATOM     21  C   UNL     1      15.122   3.250  70.033  0.00  0.00    +0.000 A 
ATOM     22  C   UNL     1      15.340   5.478  70.919  0.00  0.00    +0.000 A 
ATOM     23  C   UNL     1      15.542   3.700  68.783  0.00  0.00    +0.000 A 
ATOM     24  C   UNL     1      15.761   5.938  69.674  0.00  0.00    +0.000 A 
ATOM     25  C   UNL     1      15.858   5.044  68.615  0.00  0.00    +0.000 A 
BRANCH  25  26
ATOM     26  O   UNL     1      16.272   5.516  67.403  0.00  0.00    +0.000 OA
ATOM     27  H   UNL     1      16.925   4.892  67.041  0.00  0.00    +0.000 HD
ENDBRANCH  25  26
ENDBRANCH   5  20
TORSDOF 4
ENDMDL
