REMARK  Name = Simvastatin.pdbqt.pdb
REMARK  7 active torsions:
REMARK  status: ('A' for Active; 'I' for Inactive)
REMARK    1  A    between atoms: C_2  and  C_13
REMARK    2  A    between atoms: C_3  and  O_24
REMARK    3  A    between atoms: C_14  and  C_15
REMARK    4  A    between atoms: C_20  and  O_22
REMARK    5  A    between atoms: O_24  and  C_25
REMARK    6  A    between atoms: C_25  and  C_27
REMARK    7  A    between atoms: C_27  and  C_30
REMARK                            x       y       z     vdW  Elec       q    Type
REMARK                         _______ _______ _______ _____ _____    ______ ____
ROOT
ATOM      1  C   UNL     1       1.945   1.735   0.159  0.00  0.00    +0.000 A 
ATOM      2  C   UNL     1       0.670   2.229  -0.490  0.00  0.00    +0.000 A 
ATOM      3  C   UNL     1       2.267   0.296   0.465  0.00  0.00    +0.000 A 
ATOM      4  C   UNL     1       0.594   3.623  -1.004  0.00  0.00    +0.000 A 
ATOM      5  C   UNL     1       3.030   2.793   0.454  0.00  0.00    +0.000 A 
ATOM      6  C   UNL     1       3.600   0.148   0.983  0.00  0.00    +0.000 A 
ATOM      7  C   UNL     1       4.677   1.058   1.227  0.00  0.00    +0.000 A 
ATOM      8  C   UNL     1       4.174   2.349   0.883  0.00  0.00    +0.000 A 
ATOM      9  C   UNL     1       1.771   4.371  -0.713  0.00  0.00    +0.000 A 
ATOM     10  C   UNL     1       2.767   4.054  -0.125  0.00  0.00    +0.000 A 
ATOM     11  C   UNL     1      -0.574   4.257  -1.696  0.00  0.00    +0.000 C 
ATOM     12  C   UNL     1       6.075   0.671   0.865  0.00  0.00    +0.000 C 
ENDROOT
BRANCH   2  13
ATOM     13  C   UNL     1      -0.507   1.429  -0.405  0.00  0.00    +0.000 C 
ATOM     14  C   UNL     1      -1.796   0.611  -0.259  0.00  0.00    +0.000 C 
BRANCH  14  15
ATOM     15  C   UNL     1      -3.012  -0.094  -0.093  0.00  0.00    +0.000 C 
ATOM     16  O   UNL     1      -4.191   0.667   0.243  0.00  0.00    +0.000 OA
ATOM     17  C   UNL     1      -5.410   0.021   0.472  0.00  0.00    +0.000 C 
ATOM     18  O   UNL     1      -6.447   0.599   0.760  0.00  0.00    +0.000 OA
ATOM     19  C   UNL     1      -5.347  -1.414   0.347  0.00  0.00    +0.000 C 
ATOM     20  C   UNL     1      -4.305  -2.316   0.043  0.00  0.00    +0.000 C 
ATOM     21  C   UNL     1      -3.167  -1.504  -0.159  0.00  0.00    +0.000 C 
BRANCH  20  22
ATOM     22  O   UNL     1      -4.243  -3.551   0.619  0.00  0.00    +0.000 OA
ATOM     23  H   UNL     1      -3.369  -3.972   0.508  0.00  0.00    +0.000 HD
ENDBRANCH  20  22
ENDBRANCH  14  15
ENDBRANCH   2  13
BRANCH   3  24
ATOM     24  O   UNL     1       1.822  -0.626  -0.487  0.00  0.00    +0.000 OA
BRANCH  24  25
ATOM     25  C   UNL     1       1.206  -1.723   0.087  0.00  0.00    +0.000 C 
ATOM     26  O   UNL     1       0.981  -1.823   1.295  0.00  0.00    +0.000 OA
BRANCH  25  27
ATOM     27  C   UNL     1       0.865  -2.805  -0.996  0.00  0.00    +0.000 C 
ATOM     28  C   UNL     1       2.177  -3.583  -1.388  0.00  0.00    +0.000 C 
ATOM     29  C   UNL     1       0.266  -2.135  -2.298  0.00  0.00    +0.000 C 
BRANCH  27  30
ATOM     30  C   UNL     1      -0.146  -3.723  -0.400  0.00  0.00    +0.000 C 
ATOM     31  C   UNL     1      -1.238  -4.653   0.206  0.00  0.00    +0.000 C 
ENDBRANCH  27  30
ENDBRANCH  25  27
ENDBRANCH  24  25
ENDBRANCH   3  24
TORSDOF 7
