MODEL 1
REMARK VINA RESULT:      -4.8      0.000      0.000
REMARK  Name = Simvastatin.pdbqt.pdb
REMARK  7 active torsions:
REMARK  status: ('A' for Active; 'I' for Inactive)
REMARK    1  A    between atoms: C_2  and  C_13
REMARK    2  A    between atoms: C_3  and  O_24
REMARK    3  A    between atoms: C_14  and  C_15
REMARK    4  A    between atoms: C_20  and  O_22
REMARK    5  A    between atoms: O_24  and  C_25
REMARK    6  A    between atoms: C_25  and  C_27
REMARK    7  A    between atoms: C_27  and  C_30
REMARK                            x       y       z     vdW  Elec       q    Type
REMARK                         _______ _______ _______ _____ _____    ______ ____
ROOT
ATOM      1  C   UNL     1       5.732   5.450  60.611  0.00  0.00    +0.000 A 
ATOM      2  C   UNL     1       6.488   6.491  59.814  0.00  0.00    +0.000 A 
ATOM      3  C   UNL     1       5.632   3.988  60.263  0.00  0.00    +0.000 A 
ATOM      4  C   UNL     1       6.757   7.827  60.410  0.00  0.00    +0.000 A 
ATOM      5  C   UNL     1       5.080   5.922  61.929  0.00  0.00    +0.000 A 
ATOM      6  C   UNL     1       4.932   3.247  61.278  0.00  0.00    +0.000 A 
ATOM      7  C   UNL     1       4.357   3.594  62.541  0.00  0.00    +0.000 A 
ATOM      8  C   UNL     1       4.550   5.002  62.678  0.00  0.00    +0.000 A 
ATOM      9  C   UNL     1       6.148   7.981  61.688  0.00  0.00    +0.000 A 
ATOM     10  C   UNL     1       5.466   7.223  62.320  0.00  0.00    +0.000 A 
ATOM     11  C   UNL     1       7.513   8.953  59.773  0.00  0.00    +0.000 C 
ATOM     12  C   UNL     1       4.543   2.689  63.717  0.00  0.00    +0.000 C 
ENDROOT
BRANCH   2  13
ATOM     13  C   UNL     1       6.742   6.256  58.431  0.00  0.00    +0.000 C 
ATOM     14  C   UNL     1       6.961   6.051  56.927  0.00  0.00    +0.000 C 
BRANCH  14  15
ATOM     15  C   UNL     1       7.133   5.917  55.528  0.00  0.00    +0.000 C 
ATOM     16  O   UNL     1       8.048   6.820  54.873  0.00  0.00    +0.000 OA
ATOM     17  C   UNL     1       8.219   6.772  53.486  0.00  0.00    +0.000 C 
ATOM     18  O   UNL     1       8.975   7.503  52.864  0.00  0.00    +0.000 OA
ATOM     19  C   UNL     1       7.411   5.775  52.828  0.00  0.00    +0.000 C 
ATOM     20  C   UNL     1       6.471   4.830  53.291  0.00  0.00    +0.000 C 
ATOM     21  C   UNL     1       6.428   5.013  54.690  0.00  0.00    +0.000 C 
BRANCH  20  22
ATOM     22  O   UNL     1       5.375   4.497  52.551  0.00  0.00    +0.000 OA
ATOM     23  H   UNL     1       4.571   4.400  53.097  0.00  0.00    +0.000 HD
ENDBRANCH  20  22
ENDBRANCH  14  15
ENDBRANCH   2  13
BRANCH   3  24
ATOM     24  O   UNL     1       6.791   3.429  59.717  0.00  0.00    +0.000 OA
BRANCH  24  25
ATOM     25  C   UNL     1       6.566   2.848  58.483  0.00  0.00    +0.000 C 
ATOM     26  O   UNL     1       5.464   2.829  57.929  0.00  0.00    +0.000 OA
BRANCH  25  27
ATOM     27  C   UNL     1       7.882   2.211  57.915  0.00  0.00    +0.000 C 
ATOM     28  C   UNL     1       7.700   1.921  56.377  0.00  0.00    +0.000 C 
ATOM     29  C   UNL     1       8.217   0.851  58.650  0.00  0.00    +0.000 C 
BRANCH  27  30
ATOM     30  C   UNL     1       8.982   3.188  58.151  0.00  0.00    +0.000 C 
ATOM     31  C   UNL     1      10.105   4.243  58.376  0.00  0.00    +0.000 C 
ENDBRANCH  27  30
ENDBRANCH  25  27
ENDBRANCH  24  25
ENDBRANCH   3  24
TORSDOF 7
ENDMDL
MODEL 2
REMARK VINA RESULT:      -4.7      4.066      7.540
REMARK  Name = Simvastatin.pdbqt.pdb
REMARK  7 active torsions:
REMARK  status: ('A' for Active; 'I' for Inactive)
REMARK    1  A    between atoms: C_2  and  C_13
REMARK    2  A    between atoms: C_3  and  O_24
REMARK    3  A    between atoms: C_14  and  C_15
REMARK    4  A    between atoms: C_20  and  O_22
REMARK    5  A    between atoms: O_24  and  C_25
REMARK    6  A    between atoms: C_25  and  C_27
REMARK    7  A    between atoms: C_27  and  C_30
REMARK                            x       y       z     vdW  Elec       q    Type
REMARK                         _______ _______ _______ _____ _____    ______ ____
ROOT
ATOM      1  C   UNL     1       5.808   6.353  60.897  0.00  0.00    +0.000 A 
ATOM      2  C   UNL     1       6.468   7.038  59.719  0.00  0.00    +0.000 A 
ATOM      3  C   UNL     1       5.339   7.038  62.153  0.00  0.00    +0.000 A 
ATOM      4  C   UNL     1       6.616   6.311  58.429  0.00  0.00    +0.000 A 
ATOM      5  C   UNL     1       5.526   4.842  60.753  0.00  0.00    +0.000 A 
ATOM      6  C   UNL     1       4.658   6.127  63.033  0.00  0.00    +0.000 A 
ATOM      7  C   UNL     1       4.306   4.743  62.949  0.00  0.00    +0.000 A 
ATOM      8  C   UNL     1       4.837   4.286  61.706  0.00  0.00    +0.000 A 
ATOM      9  C   UNL     1       6.173   4.960  58.516  0.00  0.00    +0.000 A 
ATOM     10  C   UNL     1       5.728   4.347  59.446  0.00  0.00    +0.000 A 
ATOM     11  C   UNL     1       7.214   6.850  57.165  0.00  0.00    +0.000 C 
ATOM     12  C   UNL     1       2.956   4.290  63.406  0.00  0.00    +0.000 C 
ENDROOT
BRANCH   2  13
ATOM     13  C   UNL     1       7.131   8.283  59.923  0.00  0.00    +0.000 C 
ATOM     14  C   UNL     1       7.796   9.639  60.194  0.00  0.00    +0.000 C 
BRANCH  14  15
ATOM     15  C   UNL     1       8.379  10.891  60.501  0.00  0.00    +0.000 C 
ATOM     16  O   UNL     1       9.803  10.933  60.728  0.00  0.00    +0.000 OA
ATOM     17  C   UNL     1      10.429  12.131  61.087  0.00  0.00    +0.000 C 
ATOM     18  O   UNL     1      11.628  12.241  61.294  0.00  0.00    +0.000 OA
ATOM     19  C   UNL     1       9.529  13.251  61.205  0.00  0.00    +0.000 C 
ATOM     20  C   UNL     1       8.136  13.397  61.037  0.00  0.00    +0.000 C 
ATOM     21  C   UNL     1       7.675  12.111  60.678  0.00  0.00    +0.000 C 
BRANCH  20  22
ATOM     22  O   UNL     1       7.412  14.256  61.812  0.00  0.00    +0.000 OA
ATOM     23  H   UNL     1       6.470  14.006  61.867  0.00  0.00    +0.000 HD
ENDBRANCH  20  22
ENDBRANCH  14  15
ENDBRANCH   2  13
BRANCH   3  24
ATOM     24  O   UNL     1       4.789   8.310  61.965  0.00  0.00    +0.000 OA
BRANCH  24  25
ATOM     25  C   UNL     1       5.347   9.257  62.804  0.00  0.00    +0.000 C 
ATOM     26  O   UNL     1       6.377   9.068  63.454  0.00  0.00    +0.000 OA
BRANCH  25  27
ATOM     27  C   UNL     1       4.485  10.567  62.823  0.00  0.00    +0.000 C 
ATOM     28  C   UNL     1       5.265  11.694  63.598  0.00  0.00    +0.000 C 
ATOM     29  C   UNL     1       3.099  10.323  63.544  0.00  0.00    +0.000 C 
BRANCH  27  30
ATOM     30  C   UNL     1       4.245  10.958  61.405  0.00  0.00    +0.000 C 
ATOM     31  C   UNL     1       3.954  11.391  59.938  0.00  0.00    +0.000 C 
ENDBRANCH  27  30
ENDBRANCH  25  27
ENDBRANCH  24  25
ENDBRANCH   3  24
TORSDOF 7
ENDMDL
MODEL 3
REMARK VINA RESULT:      -4.5     11.443     12.913
REMARK  Name = Simvastatin.pdbqt.pdb
REMARK  7 active torsions:
REMARK  status: ('A' for Active; 'I' for Inactive)
REMARK    1  A    between atoms: C_2  and  C_13
REMARK    2  A    between atoms: C_3  and  O_24
REMARK    3  A    between atoms: C_14  and  C_15
REMARK    4  A    between atoms: C_20  and  O_22
REMARK    5  A    between atoms: O_24  and  C_25
REMARK    6  A    between atoms: C_25  and  C_27
REMARK    7  A    between atoms: C_27  and  C_30
REMARK                            x       y       z     vdW  Elec       q    Type
REMARK                         _______ _______ _______ _____ _____    ______ ____
ROOT
ATOM      1  C   UNL     1      18.689   1.045  54.001  0.00  0.00    +0.000 A 
ATOM      2  C   UNL     1      18.657   1.908  52.758  0.00  0.00    +0.000 A 
ATOM      3  C   UNL     1      17.696  -0.036  54.338  0.00  0.00    +0.000 A 
ATOM      4  C   UNL     1      19.843   2.730  52.397  0.00  0.00    +0.000 A 
ATOM      5  C   UNL     1      19.887   1.244  54.954  0.00  0.00    +0.000 A 
ATOM      6  C   UNL     1      18.066  -0.743  55.534  0.00  0.00    +0.000 A 
ATOM      7  C   UNL     1      19.177  -0.662  56.431  0.00  0.00    +0.000 A 
ATOM      8  C   UNL     1      19.985   0.410  55.946  0.00  0.00    +0.000 A 
ATOM      9  C   UNL     1      20.871   2.655  53.380  0.00  0.00    +0.000 A 
ATOM     10  C   UNL     1      20.909   2.060  54.421  0.00  0.00    +0.000 A 
ATOM     11  C   UNL     1      19.987   3.610  51.193  0.00  0.00    +0.000 C 
ATOM     12  C   UNL     1      19.813  -1.915  56.944  0.00  0.00    +0.000 C 
ENDROOT
BRANCH   2  13
ATOM     13  C   UNL     1      17.420   2.092  52.072  0.00  0.00    +0.000 C 
ATOM     14  C   UNL     1      16.123   2.338  51.292  0.00  0.00    +0.000 C 
BRANCH  14  15
ATOM     15  C   UNL     1      14.961   2.591  50.525  0.00  0.00    +0.000 C 
ATOM     16  O   UNL     1      14.733   3.942  50.073  0.00  0.00    +0.000 OA
ATOM     17  C   UNL     1      13.576   4.264  49.356  0.00  0.00    +0.000 C 
ATOM     18  O   UNL     1      13.317   5.384  48.943  0.00  0.00    +0.000 OA
ATOM     19  C   UNL     1      12.687   3.149  49.144  0.00  0.00    +0.000 C 
ATOM     20  C   UNL     1      12.734   1.787  49.512  0.00  0.00    +0.000 C 
ATOM     21  C   UNL     1      13.952   1.641  50.213  0.00  0.00    +0.000 C 
BRANCH  20  22
ATOM     22  O   UNL     1      11.603   1.099  49.838  0.00  0.00    +0.000 OA
ATOM     23  H   UNL     1      11.381   0.412  49.182  0.00  0.00    +0.000 HD
ENDBRANCH  20  22
ENDBRANCH  14  15
ENDBRANCH   2  13
BRANCH   3  24
ATOM     24  O   UNL     1      17.236  -0.779  53.247  0.00  0.00    +0.000 OA
BRANCH  24  25
ATOM     25  C   UNL     1      15.856  -0.796  53.163  0.00  0.00    +0.000 C 
ATOM     26  O   UNL     1      15.121  -0.137  53.900  0.00  0.00    +0.000 OA
BRANCH  25  27
ATOM     27  C   UNL     1      15.375  -1.773  52.034  0.00  0.00    +0.000 C 
ATOM     28  C   UNL     1      13.810  -1.674  51.889  0.00  0.00    +0.000 C 
ATOM     29  C   UNL     1      15.757  -3.269  52.378  0.00  0.00    +0.000 C 
BRANCH  27  30
ATOM     30  C   UNL     1      16.058  -1.364  50.775  0.00  0.00    +0.000 C 
ATOM     31  C   UNL     1      16.814  -0.932  49.484  0.00  0.00    +0.000 C 
ENDBRANCH  27  30
ENDBRANCH  25  27
ENDBRANCH  24  25
ENDBRANCH   3  24
TORSDOF 7
ENDMDL
MODEL 4
REMARK VINA RESULT:      -4.4     14.169     17.200
REMARK  Name = Simvastatin.pdbqt.pdb
REMARK  7 active torsions:
REMARK  status: ('A' for Active; 'I' for Inactive)
REMARK    1  A    between atoms: C_2  and  C_13
REMARK    2  A    between atoms: C_3  and  O_24
REMARK    3  A    between atoms: C_14  and  C_15
REMARK    4  A    between atoms: C_20  and  O_22
REMARK    5  A    between atoms: O_24  and  C_25
REMARK    6  A    between atoms: C_25  and  C_27
REMARK    7  A    between atoms: C_27  and  C_30
REMARK                            x       y       z     vdW  Elec       q    Type
REMARK                         _______ _______ _______ _____ _____    ______ ____
ROOT
ATOM      1  C   UNL     1      11.848   2.778  74.774  0.00  0.00    +0.000 A 
ATOM      2  C   UNL     1      12.815   3.845  74.307  0.00  0.00    +0.000 A 
ATOM      3  C   UNL     1      11.895   1.325  74.381  0.00  0.00    +0.000 A 
ATOM      4  C   UNL     1      12.843   5.167  74.989  0.00  0.00    +0.000 A 
ATOM      5  C   UNL     1      10.777   3.211  75.799  0.00  0.00    +0.000 A 
ATOM      6  C   UNL     1      10.903   0.553  75.077  0.00  0.00    +0.000 A 
ATOM      7  C   UNL     1       9.925   0.862  76.075  0.00  0.00    +0.000 A 
ATOM      8  C   UNL     1      10.038   2.267  76.301  0.00  0.00    +0.000 A 
ATOM      9  C   UNL     1      11.831   5.283  75.984  0.00  0.00    +0.000 A 
ATOM     10  C   UNL     1      10.986   4.504  76.328  0.00  0.00    +0.000 A 
ATOM     11  C   UNL     1      13.753   6.314  74.674  0.00  0.00    +0.000 C 
ATOM     12  C   UNL     1       9.711  -0.073  77.223  0.00  0.00    +0.000 C 
ENDROOT
BRANCH   2  13
ATOM     13  C   UNL     1      13.530   3.648  73.089  0.00  0.00    +0.000 C 
ATOM     14  C   UNL     1      14.277   3.504  71.758  0.00  0.00    +0.000 C 
BRANCH  14  15
ATOM     15  C   UNL     1      14.964   3.434  70.523  0.00  0.00    +0.000 C 
ATOM     16  O   UNL     1      15.033   4.632  69.722  0.00  0.00    +0.000 OA
ATOM     17  C   UNL     1      15.652   4.612  68.468  0.00  0.00    +0.000 C 
ATOM     18  O   UNL     1      15.747   5.586  67.737  0.00  0.00    +0.000 OA
ATOM     19  C   UNL     1      16.176   3.323  68.092  0.00  0.00    +0.000 C 
ATOM     20  C   UNL     1      16.193   2.061  68.725  0.00  0.00    +0.000 C 
ATOM     21  C   UNL     1      15.540   2.264  69.960  0.00  0.00    +0.000 C 
BRANCH  20  22
ATOM     22  O   UNL     1      16.086   0.905  68.009  0.00  0.00    +0.000 OA
ATOM     23  H   UNL     1      16.075   1.062  67.045  0.00  0.00    +0.000 HD
ENDBRANCH  20  22
ENDBRANCH  14  15
ENDBRANCH   2  13
BRANCH   3  24
ATOM     24  O   UNL     1      13.180   0.788  74.252  0.00  0.00    +0.000 OA
BRANCH  24  25
ATOM     25  C   UNL     1      13.497  -0.077  75.282  0.00  0.00    +0.000 C 
ATOM     26  O   UNL     1      12.987  -1.192  75.417  0.00  0.00    +0.000 OA
BRANCH  25  27
ATOM     27  C   UNL     1      14.557   0.562  76.245  0.00  0.00    +0.000 C 
ATOM     28  C   UNL     1      15.434   1.596  75.444  0.00  0.00    +0.000 C 
ATOM     29  C   UNL     1      15.510  -0.545  76.854  0.00  0.00    +0.000 C 
BRANCH  27  30
ATOM     30  C   UNL     1      13.808   1.231  77.345  0.00  0.00    +0.000 C 
ATOM     31  C   UNL     1      12.997   1.954  78.461  0.00  0.00    +0.000 C 
ENDBRANCH  27  30
ENDBRANCH  25  27
ENDBRANCH  24  25
ENDBRANCH   3  24
TORSDOF 7
ENDMDL
MODEL 5
REMARK VINA RESULT:      -4.4     11.537     13.522
REMARK  Name = Simvastatin.pdbqt.pdb
REMARK  7 active torsions:
REMARK  status: ('A' for Active; 'I' for Inactive)
REMARK    1  A    between atoms: C_2  and  C_13
REMARK    2  A    between atoms: C_3  and  O_24
REMARK    3  A    between atoms: C_14  and  C_15
REMARK    4  A    between atoms: C_20  and  O_22
REMARK    5  A    between atoms: O_24  and  C_25
REMARK    6  A    between atoms: C_25  and  C_27
REMARK    7  A    between atoms: C_27  and  C_30
REMARK                            x       y       z     vdW  Elec       q    Type
REMARK                         _______ _______ _______ _____ _____    ______ ____
ROOT
ATOM      1  C   UNL     1      18.729   1.071  53.909  0.00  0.00    +0.000 A 
ATOM      2  C   UNL     1      18.824   1.959  52.687  0.00  0.00    +0.000 A 
ATOM      3  C   UNL     1      17.682   0.013  54.139  0.00  0.00    +0.000 A 
ATOM      4  C   UNL     1      20.059   2.751  52.442  0.00  0.00    +0.000 A 
ATOM      5  C   UNL     1      19.849   1.215  54.961  0.00  0.00    +0.000 A 
ATOM      6  C   UNL     1      17.931  -0.728  55.346  0.00  0.00    +0.000 A 
ATOM      7  C   UNL     1      18.967  -0.698  56.333  0.00  0.00    +0.000 A 
ATOM      8  C   UNL     1      19.842   0.359  55.939  0.00  0.00    +0.000 A 
ATOM      9  C   UNL     1      21.000   2.627  53.505  0.00  0.00    +0.000 A 
ATOM     10  C   UNL     1      20.934   2.011  54.532  0.00  0.00    +0.000 A 
ATOM     11  C   UNL     1      20.327   3.650  51.274  0.00  0.00    +0.000 C 
ATOM     12  C   UNL     1      19.522  -1.979  56.868  0.00  0.00    +0.000 C 
ENDROOT
BRANCH   2  13
ATOM     13  C   UNL     1      17.654   2.193  51.906  0.00  0.00    +0.000 C 
ATOM     14  C   UNL     1      16.355   2.429  51.126  0.00  0.00    +0.000 C 
BRANCH  14  15
ATOM     15  C   UNL     1      15.125   2.656  50.462  0.00  0.00    +0.000 C 
ATOM     16  O   UNL     1      14.804   4.011  50.084  0.00  0.00    +0.000 OA
ATOM     17  C   UNL     1      13.580   4.304  49.474  0.00  0.00    +0.000 C 
ATOM     18  O   UNL     1      13.241   5.426  49.127  0.00  0.00    +0.000 OA
ATOM     19  C   UNL     1      12.727   3.158  49.286  0.00  0.00    +0.000 C 
ATOM     20  C   UNL     1      12.863   1.787  49.594  0.00  0.00    +0.000 C 
ATOM     21  C   UNL     1      14.137   1.672  50.192  0.00  0.00    +0.000 C 
BRANCH  20  22
ATOM     22  O   UNL     1      11.791   1.035  49.979  0.00  0.00    +0.000 OA
ATOM     23  H   UNL     1      11.276   1.457  50.694  0.00  0.00    +0.000 HD
ENDBRANCH  20  22
ENDBRANCH  14  15
ENDBRANCH   2  13
BRANCH   3  24
ATOM     24  O   UNL     1      17.293  -0.694  52.998  0.00  0.00    +0.000 OA
BRANCH  24  25
ATOM     25  C   UNL     1      17.776  -1.990  52.989  0.00  0.00    +0.000 C 
ATOM     26  O   UNL     1      17.353  -2.879  53.730  0.00  0.00    +0.000 OA
BRANCH  25  27
ATOM     27  C   UNL     1      18.929  -2.151  51.937  0.00  0.00    +0.000 C 
ATOM     28  C   UNL     1      18.711  -1.125  50.763  0.00  0.00    +0.000 C 
ATOM     29  C   UNL     1      18.946  -3.613  51.335  0.00  0.00    +0.000 C 
BRANCH  27  30
ATOM     30  C   UNL     1      20.213  -1.891  52.647  0.00  0.00    +0.000 C 
ATOM     31  C   UNL     1      21.569  -1.664  53.377  0.00  0.00    +0.000 C 
ENDBRANCH  27  30
ENDBRANCH  25  27
ENDBRANCH  24  25
ENDBRANCH   3  24
TORSDOF 7
ENDMDL
MODEL 6
REMARK VINA RESULT:      -4.4     11.986     13.797
REMARK  Name = Simvastatin.pdbqt.pdb
REMARK  7 active torsions:
REMARK  status: ('A' for Active; 'I' for Inactive)
REMARK    1  A    between atoms: C_2  and  C_13
REMARK    2  A    between atoms: C_3  and  O_24
REMARK    3  A    between atoms: C_14  and  C_15
REMARK    4  A    between atoms: C_20  and  O_22
REMARK    5  A    between atoms: O_24  and  C_25
REMARK    6  A    between atoms: C_25  and  C_27
REMARK    7  A    between atoms: C_27  and  C_30
REMARK                            x       y       z     vdW  Elec       q    Type
REMARK                         _______ _______ _______ _____ _____    ______ ____
ROOT
ATOM      1  C   UNL     1      19.159   1.655  53.818  0.00  0.00    +0.000 A 
ATOM      2  C   UNL     1      19.943   2.685  53.033  0.00  0.00    +0.000 A 
ATOM      3  C   UNL     1      17.799   1.125  53.445  0.00  0.00    +0.000 A 
ATOM      4  C   UNL     1      21.382   2.907  53.337  0.00  0.00    +0.000 A 
ATOM      5  C   UNL     1      19.853   1.047  55.055  0.00  0.00    +0.000 A 
ATOM      6  C   UNL     1      17.373   0.081  54.337  0.00  0.00    +0.000 A 
ATOM      7  C   UNL     1      17.975  -0.575  55.457  0.00  0.00    +0.000 A 
ATOM      8  C   UNL     1      19.236   0.067  55.646  0.00  0.00    +0.000 A 
ATOM      9  C   UNL     1      21.824   2.139  54.453  0.00  0.00    +0.000 A 
ATOM     10  C   UNL     1      21.222   1.381  55.161  0.00  0.00    +0.000 A 
ATOM     11  C   UNL     1      22.306   3.859  52.640  0.00  0.00    +0.000 C 
ATOM     12  C   UNL     1      17.853  -2.058  55.606  0.00  0.00    +0.000 C 
ENDROOT
BRANCH   2  13
ATOM     13  C   UNL     1      19.245   3.577  52.168  0.00  0.00    +0.000 C 
ATOM     14  C   UNL     1      18.515   4.496  51.181  0.00  0.00    +0.000 C 
BRANCH  14  15
ATOM     15  C   UNL     1      17.842   5.296  50.227  0.00  0.00    +0.000 C 
ATOM     16  O   UNL     1      16.422   5.096  50.061  0.00  0.00    +0.000 OA
ATOM     17  C   UNL     1      15.712   5.819  49.097  0.00  0.00    +0.000 C 
ATOM     18  O   UNL     1      14.512   5.702  48.901  0.00  0.00    +0.000 OA
ATOM     19  C   UNL     1      16.525   6.728  48.328  0.00  0.00    +0.000 C 
ATOM     20  C   UNL     1      17.900   7.045  48.338  0.00  0.00    +0.000 C 
ATOM     21  C   UNL     1      18.453   6.239  49.358  0.00  0.00    +0.000 C 
BRANCH  20  22
ATOM     22  O   UNL     1      18.568   7.350  47.189  0.00  0.00    +0.000 OA
ATOM     23  H   UNL     1      18.281   8.199  46.803  0.00  0.00    +0.000 HD
ENDBRANCH  20  22
ENDBRANCH  14  15
ENDBRANCH   2  13
BRANCH   3  24
ATOM     24  O   UNL     1      17.586   0.952  52.075  0.00  0.00    +0.000 OA
BRANCH  24  25
ATOM     25  C   UNL     1      16.467   1.629  51.624  0.00  0.00    +0.000 C 
ATOM     26  O   UNL     1      15.848   2.450  52.304  0.00  0.00    +0.000 OA
BRANCH  25  27
ATOM     27  C   UNL     1      16.097   1.191  50.164  0.00  0.00    +0.000 C 
ATOM     28  C   UNL     1      16.027  -0.381  50.093  0.00  0.00    +0.000 C 
ATOM     29  C   UNL     1      17.181   1.696  49.129  0.00  0.00    +0.000 C 
BRANCH  27  30
ATOM     30  C   UNL     1      14.777   1.803  49.841  0.00  0.00    +0.000 C 
ATOM     31  C   UNL     1      13.378   2.398  49.508  0.00  0.00    +0.000 C 
ENDBRANCH  27  30
ENDBRANCH  25  27
ENDBRANCH  24  25
ENDBRANCH   3  24
TORSDOF 7
ENDMDL
MODEL 7
REMARK VINA RESULT:      -4.3     12.215     13.684
REMARK  Name = Simvastatin.pdbqt.pdb
REMARK  7 active torsions:
REMARK  status: ('A' for Active; 'I' for Inactive)
REMARK    1  A    between atoms: C_2  and  C_13
REMARK    2  A    between atoms: C_3  and  O_24
REMARK    3  A    between atoms: C_14  and  C_15
REMARK    4  A    between atoms: C_20  and  O_22
REMARK    5  A    between atoms: O_24  and  C_25
REMARK    6  A    between atoms: C_25  and  C_27
REMARK    7  A    between atoms: C_27  and  C_30
REMARK                            x       y       z     vdW  Elec       q    Type
REMARK                         _______ _______ _______ _____ _____    ______ ____
ROOT
ATOM      1  C   UNL     1      18.331   0.655  54.137  0.00  0.00    +0.000 A 
ATOM      2  C   UNL     1      19.329   1.650  53.585  0.00  0.00    +0.000 A 
ATOM      3  C   UNL     1      17.108   0.154  53.413  0.00  0.00    +0.000 A 
ATOM      4  C   UNL     1      20.638   1.840  54.268  0.00  0.00    +0.000 A 
ATOM      5  C   UNL     1      18.644   0.051  55.523  0.00  0.00    +0.000 A 
ATOM      6  C   UNL     1      16.425  -0.863  54.165  0.00  0.00    +0.000 A 
ATOM      7  C   UNL     1      16.679  -1.514  55.414  0.00  0.00    +0.000 A 
ATOM      8  C   UNL     1      17.860  -0.902  55.933  0.00  0.00    +0.000 A 
ATOM      9  C   UNL     1      20.735   1.080  55.469  0.00  0.00    +0.000 A 
ATOM     10  C   UNL     1      19.941   0.351  55.994  0.00  0.00    +0.000 A 
ATOM     11  C   UNL     1      21.744   2.755  53.839  0.00  0.00    +0.000 C 
ATOM     12  C   UNL     1      16.477  -2.990  55.538  0.00  0.00    +0.000 C 
ENDROOT
BRANCH   2  13
ATOM     13  C   UNL     1      18.920   2.545  52.554  0.00  0.00    +0.000 C 
ATOM     14  C   UNL     1      18.441   3.453  51.415  0.00  0.00    +0.000 C 
BRANCH  14  15
ATOM     15  C   UNL     1      17.950   4.250  50.353  0.00  0.00    +0.000 C 
ATOM     16  O   UNL     1      16.570   4.667  50.406  0.00  0.00    +0.000 OA
ATOM     17  C   UNL     1      16.013   5.410  49.361  0.00  0.00    +0.000 C 
ATOM     18  O   UNL     1      14.855   5.797  49.338  0.00  0.00    +0.000 OA
ATOM     19  C   UNL     1      16.931   5.687  48.283  0.00  0.00    +0.000 C 
ATOM     20  C   UNL     1      18.284   5.360  48.054  0.00  0.00    +0.000 C 
ATOM     21  C   UNL     1      18.680   4.624  49.193  0.00  0.00    +0.000 C 
BRANCH  20  22
ATOM     22  O   UNL     1      18.749   5.093  46.800  0.00  0.00    +0.000 OA
ATOM     23  H   UNL     1      18.992   4.154  46.683  0.00  0.00    +0.000 HD
ENDBRANCH  20  22
ENDBRANCH  14  15
ENDBRANCH   2  13
BRANCH   3  24
ATOM     24  O   UNL     1      17.271  -0.038  52.038  0.00  0.00    +0.000 OA
BRANCH  24  25
ATOM     25  C   UNL     1      16.317   0.633  51.294  0.00  0.00    +0.000 C 
ATOM     26  O   UNL     1      15.403   1.291  51.794  0.00  0.00    +0.000 OA
BRANCH  25  27
ATOM     27  C   UNL     1      16.551   0.418  49.759  0.00  0.00    +0.000 C 
ATOM     28  C   UNL     1      15.844   1.573  48.956  0.00  0.00    +0.000 C 
ATOM     29  C   UNL     1      15.954  -0.968  49.282  0.00  0.00    +0.000 C 
BRANCH  27  30
ATOM     30  C   UNL     1      18.024   0.429  49.530  0.00  0.00    +0.000 C 
ATOM     31  C   UNL     1      19.566   0.480  49.321  0.00  0.00    +0.000 C 
ENDBRANCH  27  30
ENDBRANCH  25  27
ENDBRANCH  24  25
ENDBRANCH   3  24
TORSDOF 7
ENDMDL
MODEL 8
REMARK VINA RESULT:      -4.3      4.260      7.223
REMARK  Name = Simvastatin.pdbqt.pdb
REMARK  7 active torsions:
REMARK  status: ('A' for Active; 'I' for Inactive)
REMARK    1  A    between atoms: C_2  and  C_13
REMARK    2  A    between atoms: C_3  and  O_24
REMARK    3  A    between atoms: C_14  and  C_15
REMARK    4  A    between atoms: C_20  and  O_22
REMARK    5  A    between atoms: O_24  and  C_25
REMARK    6  A    between atoms: C_25  and  C_27
REMARK    7  A    between atoms: C_27  and  C_30
REMARK                            x       y       z     vdW  Elec       q    Type
REMARK                         _______ _______ _______ _____ _____    ______ ____
ROOT
ATOM      1  C   UNL     1       5.656   6.927  61.347  0.00  0.00    +0.000 A 
ATOM      2  C   UNL     1       6.533   7.294  60.169  0.00  0.00    +0.000 A 
ATOM      3  C   UNL     1       5.123   7.894  62.372  0.00  0.00    +0.000 A 
ATOM      4  C   UNL     1       6.748   6.311  59.074  0.00  0.00    +0.000 A 
ATOM      5  C   UNL     1       5.211   5.452  61.450  0.00  0.00    +0.000 A 
ATOM      6  C   UNL     1       4.234   7.249  63.300  0.00  0.00    +0.000 A 
ATOM      7  C   UNL     1       3.729   5.916  63.427  0.00  0.00    +0.000 A 
ATOM      8  C   UNL     1       4.349   5.169  62.381  0.00  0.00    +0.000 A 
ATOM      9  C   UNL     1       6.137   5.054  59.348  0.00  0.00    +0.000 A 
ATOM     10  C   UNL     1       5.511   4.686  60.302  0.00  0.00    +0.000 A 
ATOM     11  C   UNL     1       7.557   6.523  57.830  0.00  0.00    +0.000 C 
ATOM     12  C   UNL     1       2.289   5.695  63.762  0.00  0.00    +0.000 C 
ENDROOT
BRANCH   2  13
ATOM     13  C   UNL     1       7.313   8.486  60.229  0.00  0.00    +0.000 C 
ATOM     14  C   UNL     1       8.097   9.803  60.261  0.00  0.00    +0.000 C 
BRANCH  14  15
ATOM     15  C   UNL     1       8.765  11.051  60.281  0.00  0.00    +0.000 C 
ATOM     16  O   UNL     1      10.070  11.106  60.895  0.00  0.00    +0.000 OA
ATOM     17  C   UNL     1      10.757  12.320  60.993  0.00  0.00    +0.000 C 
ATOM     18  O   UNL     1      11.862  12.442  61.499  0.00  0.00    +0.000 OA
ATOM     19  C   UNL     1      10.041  13.446  60.446  0.00  0.00    +0.000 C 
ATOM     20  C   UNL     1       8.779  13.585  59.829  0.00  0.00    +0.000 C 
ATOM     21  C   UNL     1       8.236  12.281  59.810  0.00  0.00    +0.000 C 
BRANCH  20  22
ATOM     22  O   UNL     1       8.019  14.703  60.009  0.00  0.00    +0.000 OA
ATOM     23  H   UNL     1       7.201  14.523  60.511  0.00  0.00    +0.000 HD
ENDBRANCH  20  22
ENDBRANCH  14  15
ENDBRANCH   2  13
BRANCH   3  24
ATOM     24  O   UNL     1       4.759   9.147  61.871  0.00  0.00    +0.000 OA
BRANCH  24  25
ATOM     25  C   UNL     1       3.388   9.321  61.826  0.00  0.00    +0.000 C 
ATOM     26  O   UNL     1       2.688   9.476  62.828  0.00  0.00    +0.000 OA
BRANCH  25  27
ATOM     27  C   UNL     1       2.865   9.269  60.348  0.00  0.00    +0.000 C 
ATOM     28  C   UNL     1       3.999   9.768  59.375  0.00  0.00    +0.000 C 
ATOM     29  C   UNL     1       1.596  10.194  60.163  0.00  0.00    +0.000 C 
BRANCH  27  30
ATOM     30  C   UNL     1       2.495   7.855  60.060  0.00  0.00    +0.000 C 
ATOM     31  C   UNL     1       2.082   6.392  59.721  0.00  0.00    +0.000 C 
ENDBRANCH  27  30
ENDBRANCH  25  27
ENDBRANCH  24  25
ENDBRANCH   3  24
TORSDOF 7
ENDMDL
MODEL 9
REMARK VINA RESULT:      -4.2      9.766     13.298
REMARK  Name = Simvastatin.pdbqt.pdb
REMARK  7 active torsions:
REMARK  status: ('A' for Active; 'I' for Inactive)
REMARK    1  A    between atoms: C_2  and  C_13
REMARK    2  A    between atoms: C_3  and  O_24
REMARK    3  A    between atoms: C_14  and  C_15
REMARK    4  A    between atoms: C_20  and  O_22
REMARK    5  A    between atoms: O_24  and  C_25
REMARK    6  A    between atoms: C_25  and  C_27
REMARK    7  A    between atoms: C_27  and  C_30
REMARK                            x       y       z     vdW  Elec       q    Type
REMARK                         _______ _______ _______ _____ _____    ______ ____
ROOT
ATOM      1  C   UNL     1      18.461   0.806  54.229  0.00  0.00    +0.000 A 
ATOM      2  C   UNL     1      17.314   0.812  53.242  0.00  0.00    +0.000 A 
ATOM      3  C   UNL     1      18.617  -0.153  55.379  0.00  0.00    +0.000 A 
ATOM      4  C   UNL     1      17.420   1.607  51.989  0.00  0.00    +0.000 A 
ATOM      5  C   UNL     1      19.599   1.818  53.977  0.00  0.00    +0.000 A 
ATOM      6  C   UNL     1      19.868   0.036  56.063  0.00  0.00    +0.000 A 
ATOM      7  C   UNL     1      20.990   0.900  55.860  0.00  0.00    +0.000 A 
ATOM      8  C   UNL     1      20.646   1.719  54.742  0.00  0.00    +0.000 A 
ATOM      9  C   UNL     1      18.621   2.370  51.934  0.00  0.00    +0.000 A 
ATOM     10  C   UNL     1      19.515   2.470  52.727  0.00  0.00    +0.000 A 
ATOM     11  C   UNL     1      16.395   1.697  50.899  0.00  0.00    +0.000 C 
ATOM     12  C   UNL     1      22.378   0.364  56.004  0.00  0.00    +0.000 C 
ENDROOT
BRANCH   2  13
ATOM     13  C   UNL     1      16.067   0.236  53.624  0.00  0.00    +0.000 C 
ATOM     14  C   UNL     1      14.758  -0.410  54.096  0.00  0.00    +0.000 C 
BRANCH  14  15
ATOM     15  C   UNL     1      13.574  -1.007  54.590  0.00  0.00    +0.000 C 
ATOM     16  O   UNL     1      12.344  -0.751  53.882  0.00  0.00    +0.000 OA
ATOM     17  C   UNL     1      11.133  -1.269  54.353  0.00  0.00    +0.000 C 
ATOM     18  O   UNL     1      10.055  -1.094  53.807  0.00  0.00    +0.000 OA
ATOM     19  C   UNL     1      11.257  -2.039  55.566  0.00  0.00    +0.000 C 
ATOM     20  C   UNL     1      12.350  -2.382  56.390  0.00  0.00    +0.000 C 
ATOM     21  C   UNL     1      13.473  -1.788  55.772  0.00  0.00    +0.000 C 
BRANCH  20  22
ATOM     22  O   UNL     1      12.215  -2.485  57.744  0.00  0.00    +0.000 OA
ATOM     23  H   UNL     1      13.061  -2.683  58.190  0.00  0.00    +0.000 HD
ENDBRANCH  20  22
ENDBRANCH  14  15
ENDBRANCH   2  13
BRANCH   3  24
ATOM     24  O   UNL     1      18.196  -1.461  55.122  0.00  0.00    +0.000 OA
BRANCH  24  25
ATOM     25  C   UNL     1      17.362  -1.952  56.110  0.00  0.00    +0.000 C 
ATOM     26  O   UNL     1      16.874  -1.252  56.999  0.00  0.00    +0.000 OA
BRANCH  25  27
ATOM     27  C   UNL     1      17.152  -3.498  55.949  0.00  0.00    +0.000 C 
ATOM     28  C   UNL     1      16.212  -4.020  57.100  0.00  0.00    +0.000 C 
ATOM     29  C   UNL     1      18.531  -4.269  56.034  0.00  0.00    +0.000 C 
BRANCH  27  30
ATOM     30  C   UNL     1      16.539  -3.724  54.610  0.00  0.00    +0.000 C 
ATOM     31  C   UNL     1      15.875  -3.916  53.215  0.00  0.00    +0.000 C 
ENDBRANCH  27  30
ENDBRANCH  25  27
ENDBRANCH  24  25
ENDBRANCH   3  24
TORSDOF 7
ENDMDL
