MODEL 1
REMARK VINA RESULT:      -5.9      0.000      0.000
REMARK  Name = Staurosporine.pdbqt.pdb
REMARK  2 active torsions:
REMARK  status: ('A' for Active; 'I' for Inactive)
REMARK    1  A    between atoms: C_3  and  O_11
REMARK    2  A    between atoms: C_5  and  N_8
REMARK                            x       y       z     vdW  Elec       q    Type
REMARK                         _______ _______ _______ _____ _____    ______ ____
ROOT
ATOM      1  O   UNL     1      17.501  -3.080  57.034  0.00  0.00    +0.000 OA
ATOM      2  C   UNL     1      16.082  -2.800  57.177  0.00  0.00    +0.000 C 
ATOM      3  C   UNL     1      15.665  -2.238  58.551  0.00  0.00    +0.000 C 
ATOM      4  C   UNL     1      18.310  -2.030  57.436  0.00  0.00    +0.000 C 
ATOM      5  C   UNL     1      16.674  -1.572  59.370  0.00  0.00    +0.000 C 
ATOM      6  C   UNL     1      17.919  -1.577  58.714  0.00  0.00    +0.000 C 
ATOM      7  C   UNL     1      15.423  -4.215  57.044  0.00  0.00    +0.000 C 
ATOM      8  N   UNL     1      15.693  -1.909  56.060  0.00  0.00    +0.000 N 
ATOM      9  C   UNL     1      16.425  -1.035  55.296  0.00  0.00    +0.000 A 
ATOM     10  C   UNL     1      17.761  -0.658  55.468  0.00  0.00    +0.000 A 
ATOM     11  C   UNL     1      15.789  -0.356  54.248  0.00  0.00    +0.000 A 
ATOM     12  N   UNL     1      18.575  -1.075  56.477  0.00  0.00    +0.000 N 
ATOM     13  C   UNL     1      18.214   0.344  54.597  0.00  0.00    +0.000 A 
ATOM     14  C   UNL     1      19.659  -0.190  56.308  0.00  0.00    +0.000 A 
ATOM     15  C   UNL     1      19.477   0.651  55.149  0.00  0.00    +0.000 A 
ATOM     16  C   UNL     1      20.821  -0.092  57.090  0.00  0.00    +0.000 A 
ATOM     17  C   UNL     1      20.493   1.578  54.841  0.00  0.00    +0.000 A 
ATOM     18  C   UNL     1      21.639   1.661  55.629  0.00  0.00    +0.000 A 
ATOM     19  C   UNL     1      21.796   0.840  56.736  0.00  0.00    +0.000 A 
ATOM     20  C   UNL     1      17.586   1.024  53.535  0.00  0.00    +0.000 A 
ATOM     21  C   UNL     1      16.237   0.617  53.344  0.00  0.00    +0.000 A 
ATOM     22  C   UNL     1      17.937   2.066  52.598  0.00  0.00    +0.000 C 
ATOM     23  C   UNL     1      15.695   1.439  52.229  0.00  0.00    +0.000 C 
ATOM     24  N   UNL     1      16.741   2.221  51.885  0.00  0.00    +0.000 N 
ATOM     25  H   UNL     1      16.684   2.899  51.138  0.00  0.00    +0.000 HD
ATOM     26  O   UNL     1      18.954   2.710  52.386  0.00  0.00    +0.000 OA
ATOM     27  C   UNL     1      14.468  -0.820  54.349  0.00  0.00    +0.000 A 
ATOM     28  C   UNL     1      14.416  -1.744  55.457  0.00  0.00    +0.000 A 
ATOM     29  C   UNL     1      13.278  -0.551  53.641  0.00  0.00    +0.000 A 
ATOM     30  C   UNL     1      13.196  -2.352  55.799  0.00  0.00    +0.000 A 
ATOM     31  C   UNL     1      12.045  -2.056  55.067  0.00  0.00    +0.000 A 
ATOM     32  C   UNL     1      12.083  -1.170  54.003  0.00  0.00    +0.000 A 
ENDROOT
BRANCH   5  33
ATOM     33  N   UNL     1      16.384  -0.835  60.550  0.00  0.00    +0.000 N 
ATOM     34  C   UNL     1      16.510  -1.578  61.785  0.00  0.00    +0.000 C 
ATOM     35  H   UNL     1      15.572  -0.217  60.484  0.00  0.00    +0.000 HD
ENDBRANCH   5  33
BRANCH   3  36
ATOM     36  O   UNL     1      14.331  -1.918  58.686  0.00  0.00    +0.000 OA
ATOM     37  C   UNL     1      13.684  -2.752  59.610  0.00  0.00    +0.000 C 
ENDBRANCH   3  36
TORSDOF 2
ENDMDL
MODEL 2
REMARK VINA RESULT:      -5.9      2.864      8.919
REMARK  Name = Staurosporine.pdbqt.pdb
REMARK  2 active torsions:
REMARK  status: ('A' for Active; 'I' for Inactive)
REMARK    1  A    between atoms: C_3  and  O_11
REMARK    2  A    between atoms: C_5  and  N_8
REMARK                            x       y       z     vdW  Elec       q    Type
REMARK                         _______ _______ _______ _____ _____    ______ ____
ROOT
ATOM      1  O   UNL     1      20.071   3.177  50.774  0.00  0.00    +0.000 OA
ATOM      2  C   UNL     1      20.866   4.003  51.669  0.00  0.00    +0.000 C 
ATOM      3  C   UNL     1      20.321   5.428  51.895  0.00  0.00    +0.000 C 
ATOM      4  C   UNL     1      18.720   3.176  51.084  0.00  0.00    +0.000 C 
ATOM      5  C   UNL     1      18.900   5.678  51.662  0.00  0.00    +0.000 C 
ATOM      6  C   UNL     1      18.257   4.500  51.240  0.00  0.00    +0.000 C 
ATOM      7  C   UNL     1      22.225   4.152  50.905  0.00  0.00    +0.000 C 
ATOM      8  N   UNL     1      21.028   3.252  52.935  0.00  0.00    +0.000 N 
ATOM      9  C   UNL     1      20.270   2.265  53.511  0.00  0.00    +0.000 A 
ATOM     10  C   UNL     1      19.028   1.780  53.087  0.00  0.00    +0.000 A 
ATOM     11  C   UNL     1      20.711   1.686  54.709  0.00  0.00    +0.000 A 
ATOM     12  N   UNL     1      18.320   2.248  52.023  0.00  0.00    +0.000 N 
ATOM     13  C   UNL     1      18.433   0.840  53.941  0.00  0.00    +0.000 A 
ATOM     14  C   UNL     1      17.084   1.609  52.242  0.00  0.00    +0.000 A 
ATOM     15  C   UNL     1      17.144   0.719  53.377  0.00  0.00    +0.000 A 
ATOM     16  C   UNL     1      15.905   1.730  51.488  0.00  0.00    +0.000 A 
ATOM     17  C   UNL     1      15.983  -0.007  53.709  0.00  0.00    +0.000 A 
ATOM     18  C   UNL     1      14.823   0.128  52.949  0.00  0.00    +0.000 A 
ATOM     19  C   UNL     1      14.787   0.984  51.859  0.00  0.00    +0.000 A 
ATOM     20  C   UNL     1      18.872   0.244  55.140  0.00  0.00    +0.000 A 
ATOM     21  C   UNL     1      20.149   0.718  55.552  0.00  0.00    +0.000 A 
ATOM     22  C   UNL     1      18.350  -0.702  56.098  0.00  0.00    +0.000 C 
ATOM     23  C   UNL     1      20.462   0.041  56.839  0.00  0.00    +0.000 C 
ATOM     24  N   UNL     1      19.378  -0.737  57.051  0.00  0.00    +0.000 N 
ATOM     25  H   UNL     1      19.293  -1.334  57.861  0.00  0.00    +0.000 HD
ATOM     26  O   UNL     1      17.321  -1.356  56.171  0.00  0.00    +0.000 OA
ATOM     27  C   UNL     1      21.892   2.398  54.969  0.00  0.00    +0.000 A 
ATOM     28  C   UNL     1      22.067   3.354  53.901  0.00  0.00    +0.000 A 
ATOM     29  C   UNL     1      22.845   2.370  56.009  0.00  0.00    +0.000 A 
ATOM     30  C   UNL     1      23.172   4.221  53.919  0.00  0.00    +0.000 A 
ATOM     31  C   UNL     1      24.090   4.154  54.967  0.00  0.00    +0.000 A 
ATOM     32  C   UNL     1      23.932   3.241  55.997  0.00  0.00    +0.000 A 
ENDROOT
BRANCH   5  33
ATOM     33  N   UNL     1      18.232   6.879  52.027  0.00  0.00    +0.000 N 
ATOM     34  C   UNL     1      18.128   7.867  50.976  0.00  0.00    +0.000 C 
ATOM     35  H   UNL     1      18.468   7.239  52.954  0.00  0.00    +0.000 HD
ENDBRANCH   5  33
BRANCH   3  36
ATOM     36  O   UNL     1      21.033   6.207  52.781  0.00  0.00    +0.000 OA
ATOM     37  C   UNL     1      21.652   7.291  52.142  0.00  0.00    +0.000 C 
ENDBRANCH   3  36
TORSDOF 2
ENDMDL
MODEL 3
REMARK VINA RESULT:      -5.9      2.473      4.495
REMARK  Name = Staurosporine.pdbqt.pdb
REMARK  2 active torsions:
REMARK  status: ('A' for Active; 'I' for Inactive)
REMARK    1  A    between atoms: C_3  and  O_11
REMARK    2  A    between atoms: C_5  and  N_8
REMARK                            x       y       z     vdW  Elec       q    Type
REMARK                         _______ _______ _______ _____ _____    ______ ____
ROOT
ATOM      1  O   UNL     1      21.808  -0.520  55.688  0.00  0.00    +0.000 OA
ATOM      2  C   UNL     1      20.850  -0.849  56.731  0.00  0.00    +0.000 C 
ATOM      3  C   UNL     1      21.033  -0.072  58.050  0.00  0.00    +0.000 C 
ATOM      4  C   UNL     1      21.942   0.843  55.477  0.00  0.00    +0.000 C 
ATOM      5  C   UNL     1      21.736   1.209  58.017  0.00  0.00    +0.000 C 
ATOM      6  C   UNL     1      22.149   1.507  56.705  0.00  0.00    +0.000 C 
ATOM      7  C   UNL     1      21.162  -2.352  57.042  0.00  0.00    +0.000 C 
ATOM      8  N   UNL     1      19.496  -0.678  56.157  0.00  0.00    +0.000 N 
ATOM      9  C   UNL     1      19.040   0.089  55.114  0.00  0.00    +0.000 A 
ATOM     10  C   UNL     1      19.751   1.038  54.373  0.00  0.00    +0.000 A 
ATOM     11  C   UNL     1      17.690   0.001  54.751  0.00  0.00    +0.000 A 
ATOM     12  N   UNL     1      21.043   1.405  54.594  0.00  0.00    +0.000 N 
ATOM     13  C   UNL     1      18.991   1.752  53.435  0.00  0.00    +0.000 A 
ATOM     14  C   UNL     1      21.126   2.545  53.769  0.00  0.00    +0.000 A 
ATOM     15  C   UNL     1      19.905   2.749  53.027  0.00  0.00    +0.000 A 
ATOM     16  C   UNL     1      22.221   3.408  53.599  0.00  0.00    +0.000 A 
ATOM     17  C   UNL     1      19.845   3.844  52.143  0.00  0.00    +0.000 A 
ATOM     18  C   UNL     1      20.942   4.689  51.988  0.00  0.00    +0.000 A 
ATOM     19  C   UNL     1      22.109   4.473  52.706  0.00  0.00    +0.000 A 
ATOM     20  C   UNL     1      17.637   1.664  53.055  0.00  0.00    +0.000 A 
ATOM     21  C   UNL     1      16.924   0.676  53.791  0.00  0.00    +0.000 A 
ATOM     22  C   UNL     1      16.756   2.343  52.135  0.00  0.00    +0.000 C 
ATOM     23  C   UNL     1      15.515   0.724  53.317  0.00  0.00    +0.000 C 
ATOM     24  N   UNL     1      15.535   1.701  52.384  0.00  0.00    +0.000 N 
ATOM     25  H   UNL     1      14.710   1.970  51.868  0.00  0.00    +0.000 HD
ATOM     26  O   UNL     1      16.908   3.239  51.318  0.00  0.00    +0.000 OA
ATOM     27  C   UNL     1      17.186  -0.917  55.687  0.00  0.00    +0.000 A 
ATOM     28  C   UNL     1      18.281  -1.308  56.542  0.00  0.00    +0.000 A 
ATOM     29  C   UNL     1      15.909  -1.460  55.938  0.00  0.00    +0.000 A 
ATOM     30  C   UNL     1      18.054  -2.215  57.591  0.00  0.00    +0.000 A 
ATOM     31  C   UNL     1      16.773  -2.728  57.798  0.00  0.00    +0.000 A 
ATOM     32  C   UNL     1      15.715  -2.359  56.984  0.00  0.00    +0.000 A 
ENDROOT
BRANCH   5  33
ATOM     33  N   UNL     1      21.792   2.117  59.109  0.00  0.00    +0.000 N 
ATOM     34  C   UNL     1      23.001   2.049  59.901  0.00  0.00    +0.000 C 
ATOM     35  H   UNL     1      20.921   2.214  59.634  0.00  0.00    +0.000 HD
ENDBRANCH   5  33
BRANCH   3  36
ATOM     36  O   UNL     1      20.102  -0.333  59.032  0.00  0.00    +0.000 OA
ATOM     37  C   UNL     1      20.684  -0.936  60.157  0.00  0.00    +0.000 C 
ENDBRANCH   3  36
TORSDOF 2
ENDMDL
MODEL 4
REMARK VINA RESULT:      -5.8      2.051      3.379
REMARK  Name = Staurosporine.pdbqt.pdb
REMARK  2 active torsions:
REMARK  status: ('A' for Active; 'I' for Inactive)
REMARK    1  A    between atoms: C_3  and  O_11
REMARK    2  A    between atoms: C_5  and  N_8
REMARK                            x       y       z     vdW  Elec       q    Type
REMARK                         _______ _______ _______ _____ _____    ______ ____
ROOT
ATOM      1  O   UNL     1      16.282  -2.743  54.577  0.00  0.00    +0.000 OA
ATOM      2  C   UNL     1      15.188  -1.948  54.044  0.00  0.00    +0.000 C 
ATOM      3  C   UNL     1      14.102  -1.565  55.070  0.00  0.00    +0.000 C 
ATOM      4  C   UNL     1      16.824  -2.219  55.740  0.00  0.00    +0.000 C 
ATOM      5  C   UNL     1      14.453  -1.552  56.488  0.00  0.00    +0.000 C 
ATOM      6  C   UNL     1      15.798  -1.924  56.663  0.00  0.00    +0.000 C 
ATOM      7  C   UNL     1      14.517  -2.913  53.009  0.00  0.00    +0.000 C 
ATOM      8  N   UNL     1      15.784  -0.764  53.383  0.00  0.00    +0.000 N 
ATOM      9  C   UNL     1      16.983  -0.124  53.572  0.00  0.00    +0.000 A 
ATOM     10  C   UNL     1      17.937  -0.366  54.565  0.00  0.00    +0.000 A 
ATOM     11  C   UNL     1      17.310   0.956  52.741  0.00  0.00    +0.000 A 
ATOM     12  N   UNL     1      17.816  -1.277  55.570  0.00  0.00    +0.000 N 
ATOM     13  C   UNL     1      19.021   0.524  54.579  0.00  0.00    +0.000 A 
ATOM     14  C   UNL     1      18.897  -0.894  56.389  0.00  0.00    +0.000 A 
ATOM     15  C   UNL     1      19.664   0.170  55.786  0.00  0.00    +0.000 A 
ATOM     16  C   UNL     1      19.278  -1.440  57.625  0.00  0.00    +0.000 A 
ATOM     17  C   UNL     1      20.791   0.648  56.483  0.00  0.00    +0.000 A 
ATOM     18  C   UNL     1      21.153   0.093  57.709  0.00  0.00    +0.000 A 
ATOM     19  C   UNL     1      20.405  -0.932  58.269  0.00  0.00    +0.000 A 
ATOM     20  C   UNL     1      19.364   1.605  53.743  0.00  0.00    +0.000 A 
ATOM     21  C   UNL     1      18.406   1.829  52.716  0.00  0.00    +0.000 A 
ATOM     22  C   UNL     1      20.422   2.585  53.671  0.00  0.00    +0.000 C 
ATOM     23  C   UNL     1      18.874   3.013  51.945  0.00  0.00    +0.000 C 
ATOM     24  N   UNL     1      20.020   3.357  52.573  0.00  0.00    +0.000 N 
ATOM     25  H   UNL     1      20.585   4.139  52.272  0.00  0.00    +0.000 HD
ATOM     26  O   UNL     1      21.436   2.790  54.323  0.00  0.00    +0.000 OA
ATOM     27  C   UNL     1      16.176   1.058  51.920  0.00  0.00    +0.000 A 
ATOM     28  C   UNL     1      15.253   0.026  52.327  0.00  0.00    +0.000 A 
ATOM     29  C   UNL     1      15.796   1.928  50.876  0.00  0.00    +0.000 A 
ATOM     30  C   UNL     1      14.011  -0.092  51.678  0.00  0.00    +0.000 A 
ATOM     31  C   UNL     1      13.681   0.791  50.648  0.00  0.00    +0.000 A 
ATOM     32  C   UNL     1      14.559   1.785  50.251  0.00  0.00    +0.000 A 
ENDROOT
BRANCH   5  33
ATOM     33  N   UNL     1      13.619  -1.024  57.511  0.00  0.00    +0.000 N 
ATOM     34  C   UNL     1      12.875  -2.009  58.266  0.00  0.00    +0.000 C 
ATOM     35  H   UNL     1      13.104  -0.179  57.254  0.00  0.00    +0.000 HD
ENDBRANCH   5  33
BRANCH   3  36
ATOM     36  O   UNL     1      13.084  -0.767  54.593  0.00  0.00    +0.000 OA
ATOM     37  C   UNL     1      11.848  -1.430  54.612  0.00  0.00    +0.000 C 
ENDBRANCH   3  36
TORSDOF 2
ENDMDL
MODEL 5
REMARK VINA RESULT:      -5.7     14.179     18.622
REMARK  Name = Staurosporine.pdbqt.pdb
REMARK  2 active torsions:
REMARK  status: ('A' for Active; 'I' for Inactive)
REMARK    1  A    between atoms: C_3  and  O_11
REMARK    2  A    between atoms: C_5  and  N_8
REMARK                            x       y       z     vdW  Elec       q    Type
REMARK                         _______ _______ _______ _____ _____    ______ ____
ROOT
ATOM      1  O   UNL     1      12.961  -0.828  73.366  0.00  0.00    +0.000 OA
ATOM      2  C   UNL     1      13.256  -0.444  71.995  0.00  0.00    +0.000 C 
ATOM      3  C   UNL     1      12.147  -0.772  70.976  0.00  0.00    +0.000 C 
ATOM      4  C   UNL     1      11.714  -0.406  73.798  0.00  0.00    +0.000 C 
ATOM      5  C   UNL     1      10.778  -0.937  71.459  0.00  0.00    +0.000 C 
ATOM      6  C   UNL     1      10.728  -0.764  72.855  0.00  0.00    +0.000 C 
ATOM      7  C   UNL     1      14.489  -1.338  71.631  0.00  0.00    +0.000 C 
ATOM      8  N   UNL     1      13.607   0.995  72.006  0.00  0.00    +0.000 N 
ATOM      9  C   UNL     1      13.285   2.004  72.878  0.00  0.00    +0.000 A 
ATOM     10  C   UNL     1      12.403   1.951  73.962  0.00  0.00    +0.000 A 
ATOM     11  C   UNL     1      13.822   3.280  72.663  0.00  0.00    +0.000 A 
ATOM     12  N   UNL     1      11.659   0.869  74.322  0.00  0.00    +0.000 N 
ATOM     13  C   UNL     1      12.184   3.174  74.612  0.00  0.00    +0.000 A 
ATOM     14  C   UNL     1      10.790   1.461  75.260  0.00  0.00    +0.000 A 
ATOM     15  C   UNL     1      11.119   2.849  75.480  0.00  0.00    +0.000 A 
ATOM     16  C   UNL     1       9.740   0.852  75.966  0.00  0.00    +0.000 A 
ATOM     17  C   UNL     1      10.344   3.571  76.410  0.00  0.00    +0.000 A 
ATOM     18  C   UNL     1       9.305   2.949  77.100  0.00  0.00    +0.000 A 
ATOM     19  C   UNL     1       9.009   1.613  76.878  0.00  0.00    +0.000 A 
ATOM     20  C   UNL     1      12.726   4.459  74.411  0.00  0.00    +0.000 A 
ATOM     21  C   UNL     1      13.646   4.502  73.326  0.00  0.00    +0.000 A 
ATOM     22  C   UNL     1      12.568   5.772  74.992  0.00  0.00    +0.000 C 
ATOM     23  C   UNL     1      14.100   5.914  73.206  0.00  0.00    +0.000 C 
ATOM     24  N   UNL     1      13.428   6.541  74.196  0.00  0.00    +0.000 N 
ATOM     25  H   UNL     1      13.531   7.529  74.376  0.00  0.00    +0.000 HD
ATOM     26  O   UNL     1      11.904   6.216  75.917  0.00  0.00    +0.000 OA
ATOM     27  C   UNL     1      14.569   3.098  71.488  0.00  0.00    +0.000 A 
ATOM     28  C   UNL     1      14.419   1.718  71.090  0.00  0.00    +0.000 A 
ATOM     29  C   UNL     1      15.351   3.950  70.682  0.00  0.00    +0.000 A 
ATOM     30  C   UNL     1      15.054   1.259  69.923  0.00  0.00    +0.000 A 
ATOM     31  C   UNL     1      15.820   2.140  69.159  0.00  0.00    +0.000 A 
ATOM     32  C   UNL     1      15.970   3.465  69.531  0.00  0.00    +0.000 A 
ENDROOT
BRANCH   5  33
ATOM     33  N   UNL     1       9.640  -1.034  70.613  0.00  0.00    +0.000 N 
ATOM     34  C   UNL     1       8.404  -1.373  71.285  0.00  0.00    +0.000 C 
ATOM     35  H   UNL     1       9.805  -1.504  69.721  0.00  0.00    +0.000 HD
ENDBRANCH   5  33
BRANCH   3  36
ATOM     36  O   UNL     1      12.387  -0.368  69.680  0.00  0.00    +0.000 OA
ATOM     37  C   UNL     1      12.502  -1.458  68.805  0.00  0.00    +0.000 C 
ENDBRANCH   3  36
TORSDOF 2
ENDMDL
MODEL 6
REMARK VINA RESULT:      -5.5     18.967     22.542
REMARK  Name = Staurosporine.pdbqt.pdb
REMARK  2 active torsions:
REMARK  status: ('A' for Active; 'I' for Inactive)
REMARK    1  A    between atoms: C_3  and  O_11
REMARK    2  A    between atoms: C_5  and  N_8
REMARK                            x       y       z     vdW  Elec       q    Type
REMARK                         _______ _______ _______ _____ _____    ______ ____
ROOT
ATOM      1  O   UNL     1       9.042   5.056  78.864  0.00  0.00    +0.000 OA
ATOM      2  C   UNL     1       7.930   4.245  78.393  0.00  0.00    +0.000 C 
ATOM      3  C   UNL     1       6.779   5.037  77.741  0.00  0.00    +0.000 C 
ATOM      4  C   UNL     1       9.500   5.959  77.919  0.00  0.00    +0.000 C 
ATOM      5  C   UNL     1       7.064   6.360  77.191  0.00  0.00    +0.000 C 
ATOM      6  C   UNL     1       8.419   6.689  77.381  0.00  0.00    +0.000 C 
ATOM      7  C   UNL     1       7.362   3.619  79.711  0.00  0.00    +0.000 C 
ATOM      8  N   UNL     1       8.488   3.212  77.492  0.00  0.00    +0.000 N 
ATOM      9  C   UNL     1       9.639   3.180  76.746  0.00  0.00    +0.000 A 
ATOM     10  C   UNL     1      10.560   4.214  76.545  0.00  0.00    +0.000 A 
ATOM     11  C   UNL     1       9.943   2.020  76.020  0.00  0.00    +0.000 A 
ATOM     12  N   UNL     1      10.445   5.479  77.036  0.00  0.00    +0.000 N 
ATOM     13  C   UNL     1      11.590   3.927  75.638  0.00  0.00    +0.000 A 
ATOM     14  C   UNL     1      11.464   6.125  76.309  0.00  0.00    +0.000 A 
ATOM     15  C   UNL     1      12.197   5.193  75.486  0.00  0.00    +0.000 A 
ATOM     16  C   UNL     1      11.819   7.484  76.343  0.00  0.00    +0.000 A 
ATOM     17  C   UNL     1      13.263   5.693  74.712  0.00  0.00    +0.000 A 
ATOM     18  C   UNL     1      13.599   7.044  74.759  0.00  0.00    +0.000 A 
ATOM     19  C   UNL     1      12.885   7.923  75.561  0.00  0.00    +0.000 A 
ATOM     20  C   UNL     1      11.910   2.762  74.913  0.00  0.00    +0.000 A 
ATOM     21  C   UNL     1      10.988   1.703  75.142  0.00  0.00    +0.000 A 
ATOM     22  C   UNL     1      12.913   2.361  73.955  0.00  0.00    +0.000 C 
ATOM     23  C   UNL     1      11.423   0.565  74.289  0.00  0.00    +0.000 C 
ATOM     24  N   UNL     1      12.518   1.048  73.662  0.00  0.00    +0.000 N 
ATOM     25  H   UNL     1      13.052   0.496  73.006  0.00  0.00    +0.000 HD
ATOM     26  O   UNL     1      13.883   2.915  73.458  0.00  0.00    +0.000 OA
ATOM     27  C   UNL     1       8.843   1.194  76.300  0.00  0.00    +0.000 A 
ATOM     28  C   UNL     1       7.962   1.929  77.176  0.00  0.00    +0.000 A 
ATOM     29  C   UNL     1       8.463  -0.102  75.896  0.00  0.00    +0.000 A 
ATOM     30  C   UNL     1       6.760   1.340  77.606  0.00  0.00    +0.000 A 
ATOM     31  C   UNL     1       6.428   0.054  77.181  0.00  0.00    +0.000 A 
ATOM     32  C   UNL     1       7.266  -0.660  76.340  0.00  0.00    +0.000 A 
ENDROOT
BRANCH   5  33
ATOM     33  N   UNL     1       6.156   7.102  76.387  0.00  0.00    +0.000 N 
ATOM     34  C   UNL     1       5.376   8.092  77.096  0.00  0.00    +0.000 C 
ATOM     35  H   UNL     1       5.649   6.552  75.690  0.00  0.00    +0.000 HD
ENDBRANCH   5  33
BRANCH   3  36
ATOM     36  O   UNL     1       5.741   4.281  77.242  0.00  0.00    +0.000 OA
ATOM     37  C   UNL     1       4.543   4.516  77.933  0.00  0.00    +0.000 C 
ENDBRANCH   3  36
TORSDOF 2
ENDMDL
MODEL 7
REMARK VINA RESULT:      -5.3      4.231      8.110
REMARK  Name = Staurosporine.pdbqt.pdb
REMARK  2 active torsions:
REMARK  status: ('A' for Active; 'I' for Inactive)
REMARK    1  A    between atoms: C_3  and  O_11
REMARK    2  A    between atoms: C_5  and  N_8
REMARK                            x       y       z     vdW  Elec       q    Type
REMARK                         _______ _______ _______ _____ _____    ______ ____
ROOT
ATOM      1  O   UNL     1      22.945   3.407  52.485  0.00  0.00    +0.000 OA
ATOM      2  C   UNL     1      22.864   3.074  53.898  0.00  0.00    +0.000 C 
ATOM      3  C   UNL     1      23.081   4.259  54.859  0.00  0.00    +0.000 C 
ATOM      4  C   UNL     1      22.180   4.508  52.137  0.00  0.00    +0.000 C 
ATOM      5  C   UNL     1      22.842   5.613  54.365  0.00  0.00    +0.000 C 
ATOM      6  C   UNL     1      22.442   5.579  53.016  0.00  0.00    +0.000 C 
ATOM      7  C   UNL     1      24.068   2.094  54.104  0.00  0.00    +0.000 C 
ATOM      8  N   UNL     1      21.564   2.398  54.118  0.00  0.00    +0.000 N 
ATOM      9  C   UNL     1      20.382   2.450  53.423  0.00  0.00    +0.000 A 
ATOM     10  C   UNL     1      20.054   3.286  52.351  0.00  0.00    +0.000 A 
ATOM     11  C   UNL     1      19.318   1.639  53.838  0.00  0.00    +0.000 A 
ATOM     12  N   UNL     1      20.861   4.250  51.826  0.00  0.00    +0.000 N 
ATOM     13  C   UNL     1      18.726   3.195  51.909  0.00  0.00    +0.000 A 
ATOM     14  C   UNL     1      19.940   4.928  51.003  0.00  0.00    +0.000 A 
ATOM     15  C   UNL     1      18.651   4.280  51.008  0.00  0.00    +0.000 A 
ATOM     16  C   UNL     1      20.166   6.069  50.215  0.00  0.00    +0.000 A 
ATOM     17  C   UNL     1      17.629   4.836  50.213  0.00  0.00    +0.000 A 
ATOM     18  C   UNL     1      17.872   5.970  49.439  0.00  0.00    +0.000 A 
ATOM     19  C   UNL     1      19.121   6.574  49.444  0.00  0.00    +0.000 A 
ATOM     20  C   UNL     1      17.653   2.376  52.312  0.00  0.00    +0.000 A 
ATOM     21  C   UNL     1      17.999   1.506  53.383  0.00  0.00    +0.000 A 
ATOM     22  C   UNL     1      16.264   2.208  51.952  0.00  0.00    +0.000 C 
ATOM     23  C   UNL     1      16.771   0.740  53.726  0.00  0.00    +0.000 C 
ATOM     24  N   UNL     1      15.855   1.218  52.856  0.00  0.00    +0.000 N 
ATOM     25  H   UNL     1      14.902   0.883  52.838  0.00  0.00    +0.000 HD
ATOM     26  O   UNL     1      15.536   2.721  51.116  0.00  0.00    +0.000 OA
ATOM     27  C   UNL     1      19.855   0.991  54.962  0.00  0.00    +0.000 A 
ATOM     28  C   UNL     1      21.206   1.469  55.133  0.00  0.00    +0.000 A 
ATOM     29  C   UNL     1      19.349   0.057  55.890  0.00  0.00    +0.000 A 
ATOM     30  C   UNL     1      21.981   0.995  56.206  0.00  0.00    +0.000 A 
ATOM     31  C   UNL     1      21.437   0.069  57.097  0.00  0.00    +0.000 A 
ATOM     32  C   UNL     1      20.141  -0.396  56.942  0.00  0.00    +0.000 A 
ENDROOT
BRANCH   5  33
ATOM     33  N   UNL     1      22.803   6.769  55.192  0.00  0.00    +0.000 N 
ATOM     34  C   UNL     1      21.957   7.839  54.712  0.00  0.00    +0.000 C 
ATOM     35  H   UNL     1      23.707   7.055  55.577  0.00  0.00    +0.000 HD
ENDBRANCH   5  33
BRANCH   3  36
ATOM     36  O   UNL     1      22.956   3.972  56.201  0.00  0.00    +0.000 OA
ATOM     37  C   UNL     1      24.161   4.164  56.892  0.00  0.00    +0.000 C 
ENDBRANCH   3  36
TORSDOF 2
ENDMDL
MODEL 8
REMARK VINA RESULT:      -5.3      2.451      5.947
REMARK  Name = Staurosporine.pdbqt.pdb
REMARK  2 active torsions:
REMARK  status: ('A' for Active; 'I' for Inactive)
REMARK    1  A    between atoms: C_3  and  O_11
REMARK    2  A    between atoms: C_5  and  N_8
REMARK                            x       y       z     vdW  Elec       q    Type
REMARK                         _______ _______ _______ _____ _____    ______ ____
ROOT
ATOM      1  O   UNL     1      14.301   0.081  53.877  0.00  0.00    +0.000 OA
ATOM      2  C   UNL     1      15.050  -1.039  54.424  0.00  0.00    +0.000 C 
ATOM      3  C   UNL     1      14.977  -2.336  53.594  0.00  0.00    +0.000 C 
ATOM      4  C   UNL     1      14.554   0.306  52.534  0.00  0.00    +0.000 C 
ATOM      5  C   UNL     1      14.647  -2.241  52.174  0.00  0.00    +0.000 C 
ATOM      6  C   UNL     1      14.435  -0.899  51.809  0.00  0.00    +0.000 C 
ATOM      7  C   UNL     1      14.323  -1.326  55.781  0.00  0.00    +0.000 C 
ATOM      8  N   UNL     1      16.441  -0.579  54.634  0.00  0.00    +0.000 N 
ATOM      9  C   UNL     1      17.167   0.424  54.043  0.00  0.00    +0.000 A 
ATOM     10  C   UNL     1      16.797   1.224  52.957  0.00  0.00    +0.000 A 
ATOM     11  C   UNL     1      18.469   0.674  54.496  0.00  0.00    +0.000 A 
ATOM     12  N   UNL     1      15.637   1.113  52.253  0.00  0.00    +0.000 N 
ATOM     13  C   UNL     1      17.793   2.098  52.495  0.00  0.00    +0.000 A 
ATOM     14  C   UNL     1      15.928   1.945  51.154  0.00  0.00    +0.000 A 
ATOM     15  C   UNL     1      17.214   2.583  51.301  0.00  0.00    +0.000 A 
ATOM     16  C   UNL     1      15.121   2.208  50.035  0.00  0.00    +0.000 A 
ATOM     17  C   UNL     1      17.635   3.462  50.284  0.00  0.00    +0.000 A 
ATOM     18  C   UNL     1      16.820   3.710  49.181  0.00  0.00    +0.000 A 
ATOM     19  C   UNL     1      15.585   3.090  49.061  0.00  0.00    +0.000 A 
ATOM     20  C   UNL     1      19.099   2.364  52.950  0.00  0.00    +0.000 A 
ATOM     21  C   UNL     1      19.461   1.569  54.073  0.00  0.00    +0.000 A 
ATOM     22  C   UNL     1      20.201   3.210  52.553  0.00  0.00    +0.000 C 
ATOM     23  C   UNL     1      20.865   1.924  54.414  0.00  0.00    +0.000 C 
ATOM     24  N   UNL     1      21.181   2.858  53.491  0.00  0.00    +0.000 N 
ATOM     25  H   UNL     1      22.086   3.305  53.464  0.00  0.00    +0.000 HD
ATOM     26  O   UNL     1      20.359   4.039  51.669  0.00  0.00    +0.000 OA
ATOM     27  C   UNL     1      18.633  -0.303  55.492  0.00  0.00    +0.000 A 
ATOM     28  C   UNL     1      17.409  -1.065  55.555  0.00  0.00    +0.000 A 
ATOM     29  C   UNL     1      19.694  -0.660  56.349  0.00  0.00    +0.000 A 
ATOM     30  C   UNL     1      17.301  -2.132  56.464  0.00  0.00    +0.000 A 
ATOM     31  C   UNL     1      18.377  -2.446  57.295  0.00  0.00    +0.000 A 
ATOM     32  C   UNL     1      19.556  -1.722  57.241  0.00  0.00    +0.000 A 
ENDROOT
BRANCH   5  33
ATOM     33  N   UNL     1      14.750  -3.322  51.257  0.00  0.00    +0.000 N 
ATOM     34  C   UNL     1      15.897  -3.274  50.377  0.00  0.00    +0.000 C 
ATOM     35  H   UNL     1      13.868  -3.605  50.823  0.00  0.00    +0.000 HD
ENDBRANCH   5  33
BRANCH   3  36
ATOM     36  O   UNL     1      15.724  -3.393  54.069  0.00  0.00    +0.000 OA
ATOM     37  C   UNL     1      14.914  -4.469  54.464  0.00  0.00    +0.000 C 
ENDBRANCH   3  36
TORSDOF 2
ENDMDL
MODEL 9
REMARK VINA RESULT:      -5.2      2.470      5.643
REMARK  Name = Staurosporine.pdbqt.pdb
REMARK  2 active torsions:
REMARK  status: ('A' for Active; 'I' for Inactive)
REMARK    1  A    between atoms: C_3  and  O_11
REMARK    2  A    between atoms: C_5  and  N_8
REMARK                            x       y       z     vdW  Elec       q    Type
REMARK                         _______ _______ _______ _____ _____    ______ ____
ROOT
ATOM      1  O   UNL     1      15.013   0.857  53.143  0.00  0.00    +0.000 OA
ATOM      2  C   UNL     1      14.833  -0.563  53.398  0.00  0.00    +0.000 C 
ATOM      3  C   UNL     1      14.897  -1.461  52.147  0.00  0.00    +0.000 C 
ATOM      4  C   UNL     1      16.118   1.137  52.356  0.00  0.00    +0.000 C 
ATOM      5  C   UNL     1      15.601  -0.967  50.966  0.00  0.00    +0.000 C 
ATOM      6  C   UNL     1      16.113   0.322  51.205  0.00  0.00    +0.000 C 
ATOM      7  C   UNL     1      13.366  -0.645  53.943  0.00  0.00    +0.000 C 
ATOM      8  N   UNL     1      15.822  -0.955  54.428  0.00  0.00    +0.000 N 
ATOM      9  C   UNL     1      17.028  -0.408  54.787  0.00  0.00    +0.000 A 
ATOM     10  C   UNL     1      17.716   0.636  54.160  0.00  0.00    +0.000 A 
ATOM     11  C   UNL     1      17.732  -0.969  55.861  0.00  0.00    +0.000 A 
ATOM     12  N   UNL     1      17.314   1.278  53.029  0.00  0.00    +0.000 N 
ATOM     13  C   UNL     1      18.987   0.911  54.685  0.00  0.00    +0.000 A 
ATOM     14  C   UNL     1      18.485   2.000  52.720  0.00  0.00    +0.000 A 
ATOM     15  C   UNL     1      19.496   1.822  53.734  0.00  0.00    +0.000 A 
ATOM     16  C   UNL     1      18.715   2.837  51.616  0.00  0.00    +0.000 A 
ATOM     17  C   UNL     1      20.721   2.501  53.571  0.00  0.00    +0.000 A 
ATOM     18  C   UNL     1      20.931   3.326  52.468  0.00  0.00    +0.000 A 
ATOM     19  C   UNL     1      19.943   3.487  51.507  0.00  0.00    +0.000 A 
ATOM     20  C   UNL     1      19.698   0.361  55.770  0.00  0.00    +0.000 A 
ATOM     21  C   UNL     1      18.983  -0.681  56.423  0.00  0.00    +0.000 A 
ATOM     22  C   UNL     1      20.994   0.546  56.381  0.00  0.00    +0.000 C 
ATOM     23  C   UNL     1      19.863  -1.189  57.509  0.00  0.00    +0.000 C 
ATOM     24  N   UNL     1      20.971  -0.425  57.392  0.00  0.00    +0.000 N 
ATOM     25  H   UNL     1      21.766  -0.531  58.006  0.00  0.00    +0.000 HD
ATOM     26  O   UNL     1      21.932   1.300  56.171  0.00  0.00    +0.000 OA
ATOM     27  C   UNL     1      16.900  -2.035  56.241  0.00  0.00    +0.000 A 
ATOM     28  C   UNL     1      15.758  -2.029  55.359  0.00  0.00    +0.000 A 
ATOM     29  C   UNL     1      16.984  -3.040  57.227  0.00  0.00    +0.000 A 
ATOM     30  C   UNL     1      14.763  -3.011  55.503  0.00  0.00    +0.000 A 
ATOM     31  C   UNL     1      14.888  -3.983  56.496  0.00  0.00    +0.000 A 
ATOM     32  C   UNL     1      15.981  -3.999  57.347  0.00  0.00    +0.000 A 
ENDROOT
BRANCH   5  33
ATOM     33  N   UNL     1      15.912  -1.765  49.831  0.00  0.00    +0.000 N 
ATOM     34  C   UNL     1      17.253  -1.599  49.314  0.00  0.00    +0.000 C 
ATOM     35  H   UNL     1      15.170  -1.827  49.131  0.00  0.00    +0.000 HD
ENDBRANCH   5  33
BRANCH   3  36
ATOM     36  O   UNL     1      14.780  -2.816  52.377  0.00  0.00    +0.000 OA
ATOM     37  C   UNL     1      13.616  -3.345  51.800  0.00  0.00    +0.000 C 
ENDBRANCH   3  36
TORSDOF 2
ENDMDL
