MODEL 1
REMARK VINA RESULT:      -4.6      0.000      0.000
REMARK  Name = Testosterone.pdbqt.pdb
REMARK  1 active torsions:
REMARK  status: ('A' for Active; 'I' for Inactive)
REMARK    1  A    between atoms: C_9  and  O_21
REMARK                            x       y       z     vdW  Elec       q    Type
REMARK                         _______ _______ _______ _____ _____    ______ ____
ROOT
ATOM      1  O   UNL     1      -1.942   5.258  67.218  0.00  0.00    +0.000 OA
ATOM      2  C   UNL     1       1.948   9.519  72.249  0.00  0.00    +0.000 C 
ATOM      3  C   UNL     1       3.535   9.383  72.430  0.00  0.00    +0.000 C 
ATOM      4  C   UNL     1       1.285   9.194  70.971  0.00  0.00    +0.000 C 
ATOM      5  C   UNL     1       1.894   8.430  69.827  0.00  0.00    +0.000 C 
ATOM      6  C   UNL     1       1.187   8.194  68.474  0.00  0.00    +0.000 C 
ATOM      7  C   UNL     1       3.983   8.495  71.355  0.00  0.00    +0.000 C 
ATOM      8  C   UNL     1       3.236   8.061  70.117  0.00  0.00    +0.000 C 
ATOM      9  C   UNL     1       3.688   8.735  73.827  0.00  0.00    +0.000 C 
ATOM     10  C   UNL     1       1.358   9.088  73.482  0.00  0.00    +0.000 C 
ATOM     11  C   UNL     1      -0.089   9.462  70.773  0.00  0.00    +0.000 C 
ATOM     12  C   UNL     1       2.410   8.559  74.424  0.00  0.00    +0.000 C 
ATOM     13  C   UNL     1      -0.460   8.362  68.500  0.00  0.00    +0.000 C 
ATOM     14  C   UNL     1      -0.959   9.085  69.612  0.00  0.00    +0.000 C 
ATOM     15  C   UNL     1       4.202  10.780  72.396  0.00  0.00    +0.000 C 
ATOM     16  C   UNL     1       1.369   6.772  68.031  0.00  0.00    +0.000 C 
ATOM     17  C   UNL     1       1.727   9.198  67.419  0.00  0.00    +0.000 C 
ATOM     18  C   UNL     1       0.375   5.686  67.559  0.00  0.00    +0.000 C 
ATOM     19  C   UNL     1      -1.185   7.364  68.038  0.00  0.00    +0.000 C 
ATOM     20  C   UNL     1      -1.039   6.004  67.543  0.00  0.00    +0.000 C 
ENDROOT
BRANCH   9  21
ATOM     21  O   UNL     1       4.803   8.943  74.617  0.00  0.00    +0.000 OA
ATOM     22  H   UNL     1       5.055   9.888  74.635  0.00  0.00    +0.000 HD
ENDBRANCH   9  21
TORSDOF 1
ENDMDL
MODEL 2
REMARK VINA RESULT:      -4.4     10.452     12.491
REMARK  Name = Testosterone.pdbqt.pdb
REMARK  1 active torsions:
REMARK  status: ('A' for Active; 'I' for Inactive)
REMARK    1  A    between atoms: C_9  and  O_21
REMARK                            x       y       z     vdW  Elec       q    Type
REMARK                         _______ _______ _______ _____ _____    ______ ____
ROOT
ATOM      1  O   UNL     1      12.552   8.923  73.632  0.00  0.00    +0.000 OA
ATOM      2  C   UNL     1       8.829   3.474  77.514  0.00  0.00    +0.000 C 
ATOM      3  C   UNL     1       8.928   1.926  77.110  0.00  0.00    +0.000 C 
ATOM      4  C   UNL     1       9.920   4.422  77.212  0.00  0.00    +0.000 C 
ATOM      5  C   UNL     1      11.062   4.185  76.263  0.00  0.00    +0.000 C 
ATOM      6  C   UNL     1      12.228   5.176  76.051  0.00  0.00    +0.000 C 
ATOM      7  C   UNL     1       9.960   1.849  76.074  0.00  0.00    +0.000 C 
ATOM      8  C   UNL     1      10.983   2.888  75.684  0.00  0.00    +0.000 C 
ATOM      9  C   UNL     1       7.519   1.603  76.558  0.00  0.00    +0.000 C 
ATOM     10  C   UNL     1       7.469   3.867  77.294  0.00  0.00    +0.000 C 
ATOM     11  C   UNL     1       9.891   5.747  77.705  0.00  0.00    +0.000 C 
ATOM     12  C   UNL     1       6.681   2.747  76.661  0.00  0.00    +0.000 C 
ATOM     13  C   UNL     1      11.919   6.736  76.513  0.00  0.00    +0.000 C 
ATOM     14  C   UNL     1      10.823   6.880  77.399  0.00  0.00    +0.000 C 
ATOM     15  C   UNL     1       9.240   1.064  78.358  0.00  0.00    +0.000 C 
ATOM     16  C   UNL     1      12.534   5.316  74.589  0.00  0.00    +0.000 C 
ATOM     17  C   UNL     1      13.470   4.704  76.855  0.00  0.00    +0.000 C 
ATOM     18  C   UNL     1      12.691   6.545  73.664  0.00  0.00    +0.000 C 
ATOM     19  C   UNL     1      12.126   7.689  75.627  0.00  0.00    +0.000 C 
ATOM     20  C   UNL     1      12.484   7.865  74.228  0.00  0.00    +0.000 C 
ENDROOT
BRANCH   9  21
ATOM     21  O   UNL     1       6.975   0.333  76.625  0.00  0.00    +0.000 OA
ATOM     22  H   UNL     1       6.786   0.076  77.549  0.00  0.00    +0.000 HD
ENDBRANCH   9  21
TORSDOF 1
ENDMDL
MODEL 3
REMARK VINA RESULT:      -4.3      2.559      6.948
REMARK  Name = Testosterone.pdbqt.pdb
REMARK  1 active torsions:
REMARK  status: ('A' for Active; 'I' for Inactive)
REMARK    1  A    between atoms: C_9  and  O_21
REMARK                            x       y       z     vdW  Elec       q    Type
REMARK                         _______ _______ _______ _____ _____    ______ ____
ROOT
ATOM      1  O   UNL     1       4.754  11.514  71.362  0.00  0.00    +0.000 OA
ATOM      2  C   UNL     1       1.635   7.755  65.467  0.00  0.00    +0.000 C 
ATOM      3  C   UNL     1       1.446   6.163  65.480  0.00  0.00    +0.000 C 
ATOM      4  C   UNL     1       1.659   8.540  66.718  0.00  0.00    +0.000 C 
ATOM      5  C   UNL     1       1.830   7.988  68.106  0.00  0.00    +0.000 C 
ATOM      6  C   UNL     1       1.758   8.845  69.389  0.00  0.00    +0.000 C 
ATOM      7  C   UNL     1       1.789   5.732  66.836  0.00  0.00    +0.000 C 
ATOM      8  C   UNL     1       1.946   6.571  68.081  0.00  0.00    +0.000 C 
ATOM      9  C   UNL     1       2.468   5.667  64.430  0.00  0.00    +0.000 C 
ATOM     10  C   UNL     1       2.580   8.046  64.430  0.00  0.00    +0.000 C 
ATOM     11  C   UNL     1       1.672   9.954  66.691  0.00  0.00    +0.000 C 
ATOM     12  C   UNL     1       3.131   6.774  63.834  0.00  0.00    +0.000 C 
ATOM     13  C   UNL     1       2.002  10.468  69.169  0.00  0.00    +0.000 C 
ATOM     14  C   UNL     1       1.833  10.910  67.833  0.00  0.00    +0.000 C 
ATOM     15  C   UNL     1       0.002   5.790  65.060  0.00  0.00    +0.000 C 
ATOM     16  C   UNL     1       2.864   8.467  70.331  0.00  0.00    +0.000 C 
ATOM     17  C   UNL     1       0.362   8.683  70.050  0.00  0.00    +0.000 C 
ATOM     18  C   UNL     1       3.931   9.297  71.081  0.00  0.00    +0.000 C 
ATOM     19  C   UNL     1       2.929  11.052  69.899  0.00  0.00    +0.000 C 
ATOM     20  C   UNL     1       3.969  10.730  70.865  0.00  0.00    +0.000 C 
ENDROOT
BRANCH   9  21
ATOM     21  O   UNL     1       2.280   4.500  63.713  0.00  0.00    +0.000 OA
ATOM     22  H   UNL     1       1.442   4.523  63.210  0.00  0.00    +0.000 HD
ENDBRANCH   9  21
TORSDOF 1
ENDMDL
MODEL 4
REMARK VINA RESULT:      -4.3     23.797     25.057
REMARK  Name = Testosterone.pdbqt.pdb
REMARK  1 active torsions:
REMARK  status: ('A' for Active; 'I' for Inactive)
REMARK    1  A    between atoms: C_9  and  O_21
REMARK                            x       y       z     vdW  Elec       q    Type
REMARK                         _______ _______ _______ _____ _____    ______ ____
ROOT
ATOM      1  O   UNL     1      16.932   3.428  51.958  0.00  0.00    +0.000 OA
ATOM      2  C   UNL     1      21.961   1.085  57.233  0.00  0.00    +0.000 C 
ATOM      3  C   UNL     1      21.602  -0.053  58.302  0.00  0.00    +0.000 C 
ATOM      4  C   UNL     1      21.305   1.139  55.911  0.00  0.00    +0.000 C 
ATOM      5  C   UNL     1      20.059   0.398  55.511  0.00  0.00    +0.000 C 
ATOM      6  C   UNL     1      19.464   0.419  54.086  0.00  0.00    +0.000 C 
ATOM      7  C   UNL     1      20.302  -0.588  57.893  0.00  0.00    +0.000 C 
ATOM      8  C   UNL     1      19.579  -0.408  56.580  0.00  0.00    +0.000 C 
ATOM      9  C   UNL     1      21.522   0.717  59.642  0.00  0.00    +0.000 C 
ATOM     10  C   UNL     1      22.158   2.296  57.975  0.00  0.00    +0.000 C 
ATOM     11  C   UNL     1      21.736   2.051  54.920  0.00  0.00    +0.000 C 
ATOM     12  C   UNL     1      21.838   2.088  59.435  0.00  0.00    +0.000 C 
ATOM     13  C   UNL     1      19.943   1.692  53.140  0.00  0.00    +0.000 C 
ATOM     14  C   UNL     1      21.118   2.345  53.587  0.00  0.00    +0.000 C 
ATOM     15  C   UNL     1      22.723  -1.121  58.348  0.00  0.00    +0.000 C 
ATOM     16  C   UNL     1      17.974   0.591  54.145  0.00  0.00    +0.000 C 
ATOM     17  C   UNL     1      19.862  -0.880  53.332  0.00  0.00    +0.000 C 
ATOM     18  C   UNL     1      17.004   1.569  53.444  0.00  0.00    +0.000 C 
ATOM     19  C   UNL     1      19.004   2.426  52.581  0.00  0.00    +0.000 C 
ATOM     20  C   UNL     1      17.557   2.579  52.564  0.00  0.00    +0.000 C 
ENDROOT
BRANCH   9  21
ATOM     21  O   UNL     1      21.799   0.115  60.856  0.00  0.00    +0.000 OA
ATOM     22  H   UNL     1      21.922  -0.849  60.754  0.00  0.00    +0.000 HD
ENDBRANCH   9  21
TORSDOF 1
ENDMDL
MODEL 5
REMARK VINA RESULT:      -4.2      9.525     12.363
REMARK  Name = Testosterone.pdbqt.pdb
REMARK  1 active torsions:
REMARK  status: ('A' for Active; 'I' for Inactive)
REMARK    1  A    between atoms: C_9  and  O_21
REMARK                            x       y       z     vdW  Elec       q    Type
REMARK                         _______ _______ _______ _____ _____    ______ ____
ROOT
ATOM      1  O   UNL     1       9.626  -0.251  69.905  0.00  0.00    +0.000 OA
ATOM      2  C   UNL     1       4.456   0.664  64.333  0.00  0.00    +0.000 C 
ATOM      3  C   UNL     1       4.882   0.797  62.794  0.00  0.00    +0.000 C 
ATOM      4  C   UNL     1       5.290  -0.071  65.305  0.00  0.00    +0.000 C 
ATOM      5  C   UNL     1       6.719  -0.496  65.102  0.00  0.00    +0.000 C 
ATOM      6  C   UNL     1       7.518  -1.344  66.116  0.00  0.00    +0.000 C 
ATOM      7  C   UNL     1       6.317   0.512  62.751  0.00  0.00    +0.000 C 
ATOM      8  C   UNL     1       7.186  -0.117  63.813  0.00  0.00    +0.000 C 
ATOM      9  C   UNL     1       4.567   2.274  62.456  0.00  0.00    +0.000 C 
ATOM     10  C   UNL     1       3.876   1.920  64.707  0.00  0.00    +0.000 C 
ATOM     11  C   UNL     1       4.834  -0.314  66.621  0.00  0.00    +0.000 C 
ATOM     12  C   UNL     1       3.991   2.920  63.583  0.00  0.00    +0.000 C 
ATOM     13  C   UNL     1       6.928  -1.335  67.663  0.00  0.00    +0.000 C 
ATOM     14  C   UNL     1       5.580  -0.913  67.774  0.00  0.00    +0.000 C 
ATOM     15  C   UNL     1       4.036  -0.160  61.918  0.00  0.00    +0.000 C 
ATOM     16  C   UNL     1       8.902  -0.787  66.285  0.00  0.00    +0.000 C 
ATOM     17  C   UNL     1       7.549  -2.826  65.652  0.00  0.00    +0.000 C 
ATOM     18  C   UNL     1       9.730  -0.398  67.531  0.00  0.00    +0.000 C 
ATOM     19  C   UNL     1       7.758  -1.010  68.633  0.00  0.00    +0.000 C 
ATOM     20  C   UNL     1       9.117  -0.531  68.837  0.00  0.00    +0.000 C 
ENDROOT
BRANCH   9  21
ATOM     21  O   UNL     1       4.238   2.683  61.176  0.00  0.00    +0.000 OA
ATOM     22  H   UNL     1       4.971   2.518  60.551  0.00  0.00    +0.000 HD
ENDBRANCH   9  21
TORSDOF 1
ENDMDL
MODEL 6
REMARK VINA RESULT:      -4.0     15.995     18.698
REMARK  Name = Testosterone.pdbqt.pdb
REMARK  1 active torsions:
REMARK  status: ('A' for Active; 'I' for Inactive)
REMARK    1  A    between atoms: C_9  and  O_21
REMARK                            x       y       z     vdW  Elec       q    Type
REMARK                         _______ _______ _______ _____ _____    ______ ____
ROOT
ATOM      1  O   UNL     1      14.287  15.382  63.599  0.00  0.00    +0.000 OA
ATOM      2  C   UNL     1      12.475  12.496  56.743  0.00  0.00    +0.000 C 
ATOM      3  C   UNL     1      13.566  12.311  55.585  0.00  0.00    +0.000 C 
ATOM      4  C   UNL     1      12.852  12.471  58.171  0.00  0.00    +0.000 C 
ATOM      5  C   UNL     1      14.246  12.592  58.721  0.00  0.00    +0.000 C 
ATOM      6  C   UNL     1      14.595  12.470  60.220  0.00  0.00    +0.000 C 
ATOM      7  C   UNL     1      14.860  12.605  56.205  0.00  0.00    +0.000 C 
ATOM      8  C   UNL     1      15.199  12.713  57.672  0.00  0.00    +0.000 C 
ATOM      9  C   UNL     1      13.166  13.373  54.534  0.00  0.00    +0.000 C 
ATOM     10  C   UNL     1      11.543  13.478  56.274  0.00  0.00    +0.000 C 
ATOM     11  C   UNL     1      11.866  12.482  59.185  0.00  0.00    +0.000 C 
ATOM     12  C   UNL     1      11.990  14.054  54.954  0.00  0.00    +0.000 C 
ATOM     13  C   UNL     1      13.332  12.717  61.261  0.00  0.00    +0.000 C 
ATOM     14  C   UNL     1      12.051  12.597  60.668  0.00  0.00    +0.000 C 
ATOM     15  C   UNL     1      13.479  10.885  54.986  0.00  0.00    +0.000 C 
ATOM     16  C   UNL     1      15.569  13.541  60.618  0.00  0.00    +0.000 C 
ATOM     17  C   UNL     1      15.153  11.050  60.514  0.00  0.00    +0.000 C 
ATOM     18  C   UNL     1      15.576  14.576  61.765  0.00  0.00    +0.000 C 
ATOM     19  C   UNL     1      13.489  13.614  62.212  0.00  0.00    +0.000 C 
ATOM     20  C   UNL     1      14.440  14.619  62.665  0.00  0.00    +0.000 C 
ENDROOT
BRANCH   9  21
ATOM     21  O   UNL     1      13.435  13.215  53.187  0.00  0.00    +0.000 OA
ATOM     22  H   UNL     1      14.183  12.603  53.043  0.00  0.00    +0.000 HD
ENDBRANCH   9  21
TORSDOF 1
ENDMDL
MODEL 7
REMARK VINA RESULT:      -3.9      3.825      7.657
REMARK  Name = Testosterone.pdbqt.pdb
REMARK  1 active torsions:
REMARK  status: ('A' for Active; 'I' for Inactive)
REMARK    1  A    between atoms: C_9  and  O_21
REMARK                            x       y       z     vdW  Elec       q    Type
REMARK                         _______ _______ _______ _____ _____    ______ ____
ROOT
ATOM      1  O   UNL     1       2.738  10.580  70.395  0.00  0.00    +0.000 OA
ATOM      2  C   UNL     1       2.763   7.018  63.618  0.00  0.00    +0.000 C 
ATOM      3  C   UNL     1       2.598   5.429  63.495  0.00  0.00    +0.000 C 
ATOM      4  C   UNL     1       2.195   7.767  64.757  0.00  0.00    +0.000 C 
ATOM      5  C   UNL     1       1.698   7.174  66.047  0.00  0.00    +0.000 C 
ATOM      6  C   UNL     1       1.029   7.995  67.172  0.00  0.00    +0.000 C 
ATOM      7  C   UNL     1       2.269   4.955  64.840  0.00  0.00    +0.000 C 
ATOM      8  C   UNL     1       1.821   5.757  66.038  0.00  0.00    +0.000 C 
ATOM      9  C   UNL     1       3.997   4.953  63.032  0.00  0.00    +0.000 C 
ATOM     10  C   UNL     1       4.082   7.330  63.154  0.00  0.00    +0.000 C 
ATOM     11  C   UNL     1       2.211   9.181  64.781  0.00  0.00    +0.000 C 
ATOM     12  C   UNL     1       4.855   6.071  62.848  0.00  0.00    +0.000 C 
ATOM     13  C   UNL     1       1.339   9.621  67.139  0.00  0.00    +0.000 C 
ATOM     14  C   UNL     1       1.813  10.102  65.893  0.00  0.00    +0.000 C 
ATOM     15  C   UNL     1       1.522   5.080  62.437  0.00  0.00    +0.000 C 
ATOM     16  C   UNL     1       1.568   7.580  68.510  0.00  0.00    +0.000 C 
ATOM     17  C   UNL     1      -0.513   7.826  67.097  0.00  0.00    +0.000 C 
ATOM     18  C   UNL     1       2.155   8.380  69.696  0.00  0.00    +0.000 C 
ATOM     19  C   UNL     1       1.813  10.176  68.235  0.00  0.00    +0.000 C 
ATOM     20  C   UNL     1       2.282   9.817  69.565  0.00  0.00    +0.000 C 
ENDROOT
BRANCH   9  21
ATOM     21  O   UNL     1       4.172   3.808  62.276  0.00  0.00    +0.000 OA
ATOM     22  H   UNL     1       4.416   3.046  62.836  0.00  0.00    +0.000 HD
ENDBRANCH   9  21
TORSDOF 1
ENDMDL
MODEL 8
REMARK VINA RESULT:      -3.9      8.918     11.870
REMARK  Name = Testosterone.pdbqt.pdb
REMARK  1 active torsions:
REMARK  status: ('A' for Active; 'I' for Inactive)
REMARK    1  A    between atoms: C_9  and  O_21
REMARK                            x       y       z     vdW  Elec       q    Type
REMARK                         _______ _______ _______ _____ _____    ______ ____
ROOT
ATOM      1  O   UNL     1      10.720  -0.273  70.692  0.00  0.00    +0.000 OA
ATOM      2  C   UNL     1       3.583  -0.473  67.930  0.00  0.00    +0.000 C 
ATOM      3  C   UNL     1       3.270  -0.276  66.370  0.00  0.00    +0.000 C 
ATOM      4  C   UNL     1       4.874  -1.016  68.396  0.00  0.00    +0.000 C 
ATOM      5  C   UNL     1       6.127  -1.150  67.575  0.00  0.00    +0.000 C 
ATOM      6  C   UNL     1       7.427  -1.809  68.086  0.00  0.00    +0.000 C 
ATOM      7  C   UNL     1       4.572  -0.269  65.701  0.00  0.00    +0.000 C 
ATOM      8  C   UNL     1       5.913  -0.700  66.242  0.00  0.00    +0.000 C 
ATOM      9  C   UNL     1       2.573   1.105  66.310  0.00  0.00    +0.000 C 
ATOM     10  C   UNL     1       2.999   0.646  68.608  0.00  0.00    +0.000 C 
ATOM     11  C   UNL     1       5.084  -1.329  69.759  0.00  0.00    +0.000 C 
ATOM     12  C   UNL     1       2.431   1.636  67.621  0.00  0.00    +0.000 C 
ATOM     13  C   UNL     1       7.571  -1.899  69.733  0.00  0.00    +0.000 C 
ATOM     14  C   UNL     1       6.351  -1.754  70.437  0.00  0.00    +0.000 C 
ATOM     15  C   UNL     1       2.322  -1.392  65.867  0.00  0.00    +0.000 C 
ATOM     16  C   UNL     1       8.618  -0.985  67.692  0.00  0.00    +0.000 C 
ATOM     17  C   UNL     1       7.528  -3.260  67.542  0.00  0.00    +0.000 C 
ATOM     18  C   UNL     1       9.815  -0.424  68.494  0.00  0.00    +0.000 C 
ATOM     19  C   UNL     1       8.662  -1.404  70.280  0.00  0.00    +0.000 C 
ATOM     20  C   UNL     1       9.862  -0.661  69.923  0.00  0.00    +0.000 C 
ENDROOT
BRANCH   9  21
ATOM     21  O   UNL     1       1.655   1.424  65.327  0.00  0.00    +0.000 OA
ATOM     22  H   UNL     1       1.081   2.165  65.603  0.00  0.00    +0.000 HD
ENDBRANCH   9  21
TORSDOF 1
ENDMDL
MODEL 9
REMARK VINA RESULT:      -3.8     11.379     14.138
REMARK  Name = Testosterone.pdbqt.pdb
REMARK  1 active torsions:
REMARK  status: ('A' for Active; 'I' for Inactive)
REMARK    1  A    between atoms: C_9  and  O_21
REMARK                            x       y       z     vdW  Elec       q    Type
REMARK                         _______ _______ _______ _____ _____    ______ ____
ROOT
ATOM      1  O   UNL     1       8.300   4.856  77.107  0.00  0.00    +0.000 OA
ATOM      2  C   UNL     1      14.211   2.593  72.799  0.00  0.00    +0.000 C 
ATOM      3  C   UNL     1      15.565   3.444  72.702  0.00  0.00    +0.000 C 
ATOM      4  C   UNL     1      13.345   2.653  73.994  0.00  0.00    +0.000 C 
ATOM      5  C   UNL     1      13.412   3.686  75.085  0.00  0.00    +0.000 C 
ATOM      6  C   UNL     1      12.541   3.650  76.360  0.00  0.00    +0.000 C 
ATOM      7  C   UNL     1      15.441   4.506  73.703  0.00  0.00    +0.000 C 
ATOM      8  C   UNL     1      14.456   4.620  74.840  0.00  0.00    +0.000 C 
ATOM      9  C   UNL     1      15.546   3.996  71.257  0.00  0.00    +0.000 C 
ATOM     10  C   UNL     1      13.619   2.617  71.495  0.00  0.00    +0.000 C 
ATOM     11  C   UNL     1      12.236   1.786  74.135  0.00  0.00    +0.000 C 
ATOM     12  C   UNL     1      14.399   3.514  70.567  0.00  0.00    +0.000 C 
ATOM     13  C   UNL     1      11.169   2.730  76.252  0.00  0.00    +0.000 C 
ATOM     14  C   UNL     1      11.177   1.787  75.194  0.00  0.00    +0.000 C 
ATOM     15  C   UNL     1      16.794   2.527  72.924  0.00  0.00    +0.000 C 
ATOM     16  C   UNL     1      12.001   5.018  76.661  0.00  0.00    +0.000 C 
ATOM     17  C   UNL     1      13.371   3.088  77.546  0.00  0.00    +0.000 C 
ATOM     18  C   UNL     1      10.576   5.541  76.955  0.00  0.00    +0.000 C 
ATOM     19  C   UNL     1      10.023   3.301  76.561  0.00  0.00    +0.000 C 
ATOM     20  C   UNL     1       9.474   4.600  76.919  0.00  0.00    +0.000 C 
ENDROOT
BRANCH   9  21
ATOM     21  O   UNL     1      16.707   4.283  70.562  0.00  0.00    +0.000 OA
ATOM     22  H   UNL     1      17.108   5.119  70.870  0.00  0.00    +0.000 HD
ENDBRANCH   9  21
TORSDOF 1
ENDMDL
