MODEL 1
REMARK VINA RESULT:      -2.0      0.000      0.000
REMARK  Name = Tetrachloroethylene.pdbqt.pdb
REMARK  0 active torsions:
REMARK  status: ('A' for Active; 'I' for Inactive)
REMARK                            x       y       z     vdW  Elec       q    Type
REMARK                         _______ _______ _______ _____ _____    ______ ____
ROOT
ATOM      1 CL   UNL     1       9.867  -0.243  67.283  0.00  0.00    +0.000 Cl
ATOM      2 CL   UNL     1       7.112  -1.011  67.910  0.00  0.00    +0.000 Cl
ATOM      3 CL   UNL     1       7.853  -1.117  71.040  0.00  0.00    +0.000 Cl
ATOM      4 CL   UNL     1      10.608  -0.349  70.413  0.00  0.00    +0.000 Cl
ATOM      5  C   UNL     1       8.705  -0.658  68.508  0.00  0.00    +0.000 C 
ATOM      6  C   UNL     1       9.015  -0.702  69.815  0.00  0.00    +0.000 C 
ENDROOT
TORSDOF 0
ENDMDL
MODEL 2
REMARK VINA RESULT:      -2.0     11.919     12.541
REMARK  Name = Tetrachloroethylene.pdbqt.pdb
REMARK  0 active torsions:
REMARK  status: ('A' for Active; 'I' for Inactive)
REMARK                            x       y       z     vdW  Elec       q    Type
REMARK                         _______ _______ _______ _____ _____    ______ ____
ROOT
ATOM      1 CL   UNL     1       6.397   3.969  58.307  0.00  0.00    +0.000 Cl
ATOM      2 CL   UNL     1       7.522   6.672  58.280  0.00  0.00    +0.000 Cl
ATOM      3 CL   UNL     1      10.486   5.437  58.070  0.00  0.00    +0.000 Cl
ATOM      4 CL   UNL     1       9.361   2.734  58.097  0.00  0.00    +0.000 Cl
ATOM      5  C   UNL     1       7.823   4.961  58.233  0.00  0.00    +0.000 C 
ATOM      6  C   UNL     1       9.060   4.445  58.145  0.00  0.00    +0.000 C 
ENDROOT
TORSDOF 0
ENDMDL
MODEL 3
REMARK VINA RESULT:      -2.0     12.032     12.445
REMARK  Name = Tetrachloroethylene.pdbqt.pdb
REMARK  0 active torsions:
REMARK  status: ('A' for Active; 'I' for Inactive)
REMARK                            x       y       z     vdW  Elec       q    Type
REMARK                         _______ _______ _______ _____ _____    ______ ____
ROOT
ATOM      1 CL   UNL     1       9.206   2.483  57.810  0.00  0.00    +0.000 Cl
ATOM      2 CL   UNL     1       6.505   3.598  57.994  0.00  0.00    +0.000 Cl
ATOM      3 CL   UNL     1       7.745   6.557  58.256  0.00  0.00    +0.000 Cl
ATOM      4 CL   UNL     1      10.446   5.441  58.072  0.00  0.00    +0.000 Cl
ATOM      5  C   UNL     1       8.217   3.902  57.978  0.00  0.00    +0.000 C 
ATOM      6  C   UNL     1       8.734   5.138  58.088  0.00  0.00    +0.000 C 
ENDROOT
TORSDOF 0
ENDMDL
MODEL 4
REMARK VINA RESULT:      -1.9     17.102     18.428
REMARK  Name = Tetrachloroethylene.pdbqt.pdb
REMARK  0 active torsions:
REMARK  status: ('A' for Active; 'I' for Inactive)
REMARK                            x       y       z     vdW  Elec       q    Type
REMARK                         _______ _______ _______ _____ _____    ______ ____
ROOT
ATOM      1 CL   UNL     1      17.369   0.731  53.673  0.00  0.00    +0.000 Cl
ATOM      2 CL   UNL     1      18.941  -0.211  55.956  0.00  0.00    +0.000 Cl
ATOM      3 CL   UNL     1      21.340   1.764  55.120  0.00  0.00    +0.000 Cl
ATOM      4 CL   UNL     1      19.768   2.706  52.836  0.00  0.00    +0.000 Cl
ATOM      5  C   UNL     1      18.854   0.835  54.571  0.00  0.00    +0.000 C 
ATOM      6  C   UNL     1      19.855   1.660  54.222  0.00  0.00    +0.000 C 
ENDROOT
TORSDOF 0
ENDMDL
MODEL 5
REMARK VINA RESULT:      -1.9     11.457     12.626
REMARK  Name = Tetrachloroethylene.pdbqt.pdb
REMARK  0 active torsions:
REMARK  status: ('A' for Active; 'I' for Inactive)
REMARK                            x       y       z     vdW  Elec       q    Type
REMARK                         _______ _______ _______ _____ _____    ______ ____
ROOT
ATOM      1 CL   UNL     1       6.094   9.432  62.868  0.00  0.00    +0.000 Cl
ATOM      2 CL   UNL     1       5.740   6.710  61.849  0.00  0.00    +0.000 Cl
ATOM      3 CL   UNL     1       7.668   7.389  59.364  0.00  0.00    +0.000 Cl
ATOM      4 CL   UNL     1       8.022  10.111  60.383  0.00  0.00    +0.000 Cl
ATOM      5  C   UNL     1       6.478   8.269  61.635  0.00  0.00    +0.000 C 
ATOM      6  C   UNL     1       7.284   8.552  60.597  0.00  0.00    +0.000 C 
ENDROOT
TORSDOF 0
ENDMDL
MODEL 6
REMARK VINA RESULT:      -1.9     11.222     12.294
REMARK  Name = Tetrachloroethylene.pdbqt.pdb
REMARK  0 active torsions:
REMARK  status: ('A' for Active; 'I' for Inactive)
REMARK                            x       y       z     vdW  Elec       q    Type
REMARK                         _______ _______ _______ _____ _____    ______ ____
ROOT
ATOM      1 CL   UNL     1      10.367   5.382  58.204  0.00  0.00    +0.000 Cl
ATOM      2 CL   UNL     1       7.712   6.284  57.360  0.00  0.00    +0.000 Cl
ATOM      3 CL   UNL     1       6.498   3.395  58.091  0.00  0.00    +0.000 Cl
ATOM      4 CL   UNL     1       9.153   2.493  58.935  0.00  0.00    +0.000 Cl
ATOM      5  C   UNL     1       8.686   4.992  57.994  0.00  0.00    +0.000 C 
ATOM      6  C   UNL     1       8.179   3.785  58.300  0.00  0.00    +0.000 C 
ENDROOT
TORSDOF 0
ENDMDL
MODEL 7
REMARK VINA RESULT:      -1.9     11.114     12.507
REMARK  Name = Tetrachloroethylene.pdbqt.pdb
REMARK  0 active torsions:
REMARK  status: ('A' for Active; 'I' for Inactive)
REMARK                            x       y       z     vdW  Elec       q    Type
REMARK                         _______ _______ _______ _____ _____    ______ ____
ROOT
ATOM      1 CL   UNL     1       6.308   3.542  57.983  0.00  0.00    +0.000 Cl
ATOM      2 CL   UNL     1       8.808   2.536  59.129  0.00  0.00    +0.000 Cl
ATOM      3 CL   UNL     1      10.281   5.282  58.326  0.00  0.00    +0.000 Cl
ATOM      4 CL   UNL     1       7.781   6.288  57.180  0.00  0.00    +0.000 Cl
ATOM      5  C   UNL     1       7.987   3.838  58.322  0.00  0.00    +0.000 C 
ATOM      6  C   UNL     1       8.602   4.985  57.987  0.00  0.00    +0.000 C 
ENDROOT
TORSDOF 0
ENDMDL
MODEL 8
REMARK VINA RESULT:      -1.9     17.624     18.455
REMARK  Name = Tetrachloroethylene.pdbqt.pdb
REMARK  0 active torsions:
REMARK  status: ('A' for Active; 'I' for Inactive)
REMARK                            x       y       z     vdW  Elec       q    Type
REMARK                         _______ _______ _______ _____ _____    ______ ____
ROOT
ATOM      1 CL   UNL     1      18.935   2.605  52.335  0.00  0.00    +0.000 Cl
ATOM      2 CL   UNL     1      17.307   0.646  53.780  0.00  0.00    +0.000 Cl
ATOM      3 CL   UNL     1      19.670   0.269  55.931  0.00  0.00    +0.000 Cl
ATOM      4 CL   UNL     1      21.298   2.227  54.487  0.00  0.00    +0.000 Cl
ATOM      5  C   UNL     1      18.809   1.516  53.684  0.00  0.00    +0.000 C 
ATOM      6  C   UNL     1      19.796   1.358  54.583  0.00  0.00    +0.000 C 
ENDROOT
TORSDOF 0
ENDMDL
MODEL 9
REMARK VINA RESULT:      -1.8     16.662     17.563
REMARK  Name = Tetrachloroethylene.pdbqt.pdb
REMARK  0 active torsions:
REMARK  status: ('A' for Active; 'I' for Inactive)
REMARK                            x       y       z     vdW  Elec       q    Type
REMARK                         _______ _______ _______ _____ _____    ______ ____
ROOT
ATOM      1 CL   UNL     1      15.984  -0.102  54.077  0.00  0.00    +0.000 Cl
ATOM      2 CL   UNL     1      17.618   1.936  52.754  0.00  0.00    +0.000 Cl
ATOM      3 CL   UNL     1      20.040   1.309  54.777  0.00  0.00    +0.000 Cl
ATOM      4 CL   UNL     1      18.407  -0.729  56.100  0.00  0.00    +0.000 Cl
ATOM      5  C   UNL     1      17.506   0.734  54.004  0.00  0.00    +0.000 C 
ATOM      6  C   UNL     1      18.518   0.472  54.849  0.00  0.00    +0.000 C 
ENDROOT
TORSDOF 0
ENDMDL
