MODEL 1
REMARK VINA RESULT:      -4.3      0.000      0.000
REMARK  Name = Thalidomide.pdbqt.pdb
REMARK  1 active torsions:
REMARK  status: ('A' for Active; 'I' for Inactive)
REMARK    1  A    between atoms: N_3  and  C_12
REMARK                            x       y       z     vdW  Elec       q    Type
REMARK                         _______ _______ _______ _____ _____    ______ ____
ROOT
ATOM      1  O   UNL     1       3.257   4.916  75.225  0.00  0.00    +0.000 OA
ATOM      2  O   UNL     1       5.956   8.584  75.879  0.00  0.00    +0.000 OA
ATOM      3  N   UNL     1       4.195   7.053  75.551  0.00  0.00    +0.000 N 
ATOM      4  C   UNL     1       4.132   5.679  75.592  0.00  0.00    +0.000 C 
ATOM      5  C   UNL     1       5.426   7.495  75.987  0.00  0.00    +0.000 C 
ATOM      6  C   UNL     1       5.366   5.216  76.216  0.00  0.00    +0.000 A 
ATOM      7  C   UNL     1       6.146   6.324  76.475  0.00  0.00    +0.000 A 
ATOM      8  C   UNL     1       5.785   3.937  76.516  0.00  0.00    +0.000 A 
ATOM      9  C   UNL     1       7.402   6.226  77.036  0.00  0.00    +0.000 A 
ATOM     10  C   UNL     1       7.048   3.812  77.099  0.00  0.00    +0.000 A 
ATOM     11  C   UNL     1       7.846   4.940  77.355  0.00  0.00    +0.000 A 
ENDROOT
BRANCH   3  12
ATOM     12  C   UNL     1       3.221   7.865  75.026  0.00  0.00    +0.000 C 
ATOM     13  C   UNL     1       2.250   8.519  75.818  0.00  0.00    +0.000 C 
ATOM     14  C   UNL     1       1.100   9.264  75.214  0.00  0.00    +0.000 C 
ATOM     15  C   UNL     1       0.940   9.405  73.797  0.00  0.00    +0.000 C 
ATOM     16  O   UNL     1       0.046  10.076  73.309  0.00  0.00    +0.000 OA
ATOM     17  N   UNL     1       1.934   8.754  73.071  0.00  0.00    +0.000 N 
ATOM     18  C   UNL     1       3.120   8.166  73.534  0.00  0.00    +0.000 C 
ATOM     19  H   UNL     1       1.923   8.950  72.081  0.00  0.00    +0.000 HD
ATOM     20  O   UNL     1       4.075   8.033  72.774  0.00  0.00    +0.000 OA
ENDBRANCH   3  12
TORSDOF 1
ENDMDL
MODEL 2
REMARK VINA RESULT:      -4.2     25.149     25.997
REMARK  Name = Thalidomide.pdbqt.pdb
REMARK  1 active torsions:
REMARK  status: ('A' for Active; 'I' for Inactive)
REMARK    1  A    between atoms: N_3  and  C_12
REMARK                            x       y       z     vdW  Elec       q    Type
REMARK                         _______ _______ _______ _____ _____    ______ ____
ROOT
ATOM      1  O   UNL     1      17.152  -1.476  56.001  0.00  0.00    +0.000 OA
ATOM      2  O   UNL     1      16.977   1.042  52.155  0.00  0.00    +0.000 OA
ATOM      3  N   UNL     1      16.555  -0.254  54.077  0.00  0.00    +0.000 N 
ATOM      4  C   UNL     1      17.347  -0.647  55.132  0.00  0.00    +0.000 C 
ATOM      5  C   UNL     1      17.223   0.650  53.280  0.00  0.00    +0.000 C 
ATOM      6  C   UNL     1      18.561   0.159  55.072  0.00  0.00    +0.000 A 
ATOM      7  C   UNL     1      18.476   0.963  53.955  0.00  0.00    +0.000 A 
ATOM      8  C   UNL     1      19.658   0.176  55.909  0.00  0.00    +0.000 A 
ATOM      9  C   UNL     1      19.488   1.827  53.592  0.00  0.00    +0.000 A 
ATOM     10  C   UNL     1      20.690   1.054  55.571  0.00  0.00    +0.000 A 
ATOM     11  C   UNL     1      20.607   1.868  54.428  0.00  0.00    +0.000 A 
ENDROOT
BRANCH   3  12
ATOM     12  C   UNL     1      15.323  -0.785  53.784  0.00  0.00    +0.000 C 
ATOM     13  C   UNL     1      14.107  -0.150  54.121  0.00  0.00    +0.000 C 
ATOM     14  C   UNL     1      12.781  -0.822  53.941  0.00  0.00    +0.000 C 
ATOM     15  C   UNL     1      12.658  -2.130  53.368  0.00  0.00    +0.000 C 
ATOM     16  O   UNL     1      11.573  -2.644  53.152  0.00  0.00    +0.000 OA
ATOM     17  N   UNL     1      13.887  -2.698  53.042  0.00  0.00    +0.000 N 
ATOM     18  C   UNL     1      15.157  -2.101  53.030  0.00  0.00    +0.000 C 
ATOM     19  H   UNL     1      13.823  -3.556  52.514  0.00  0.00    +0.000 HD
ATOM     20  O   UNL     1      16.046  -2.567  52.324  0.00  0.00    +0.000 OA
ENDBRANCH   3  12
TORSDOF 1
ENDMDL
MODEL 3
REMARK VINA RESULT:      -4.1     25.258     26.141
REMARK  Name = Thalidomide.pdbqt.pdb
REMARK  1 active torsions:
REMARK  status: ('A' for Active; 'I' for Inactive)
REMARK    1  A    between atoms: N_3  and  C_12
REMARK                            x       y       z     vdW  Elec       q    Type
REMARK                         _______ _______ _______ _____ _____    ______ ____
ROOT
ATOM      1  O   UNL     1      16.342   1.394  51.954  0.00  0.00    +0.000 OA
ATOM      2  O   UNL     1      16.975  -1.070  55.787  0.00  0.00    +0.000 OA
ATOM      3  N   UNL     1      16.322  -0.184  53.704  0.00  0.00    +0.000 N 
ATOM      4  C   UNL     1      16.820   0.834  52.924  0.00  0.00    +0.000 C 
ATOM      5  C   UNL     1      17.163  -0.438  54.766  0.00  0.00    +0.000 C 
ATOM      6  C   UNL     1      18.135   1.171  53.457  0.00  0.00    +0.000 A 
ATOM      7  C   UNL     1      18.352   0.382  54.567  0.00  0.00    +0.000 A 
ATOM      8  C   UNL     1      19.057   2.102  53.025  0.00  0.00    +0.000 A 
ATOM      9  C   UNL     1      19.499   0.481  55.327  0.00  0.00    +0.000 A 
ATOM     10  C   UNL     1      20.234   2.210  53.768  0.00  0.00    +0.000 A 
ATOM     11  C   UNL     1      20.452   1.411  54.905  0.00  0.00    +0.000 A 
ENDROOT
BRANCH   3  12
ATOM     12  C   UNL     1      15.096  -0.777  53.527  0.00  0.00    +0.000 C 
ATOM     13  C   UNL     1      13.890  -0.216  54.002  0.00  0.00    +0.000 C 
ATOM     14  C   UNL     1      12.590  -0.958  53.944  0.00  0.00    +0.000 C 
ATOM     15  C   UNL     1      12.477  -2.260  53.357  0.00  0.00    +0.000 C 
ATOM     16  O   UNL     1      11.405  -2.830  53.242  0.00  0.00    +0.000 OA
ATOM     17  N   UNL     1      13.694  -2.753  52.893  0.00  0.00    +0.000 N 
ATOM     18  C   UNL     1      14.922  -2.087  52.764  0.00  0.00    +0.000 C 
ATOM     19  H   UNL     1      13.622  -3.604  52.355  0.00  0.00    +0.000 HD
ATOM     20  O   UNL     1      15.756  -2.491  51.959  0.00  0.00    +0.000 OA
ENDBRANCH   3  12
TORSDOF 1
ENDMDL
MODEL 4
REMARK VINA RESULT:      -4.1     16.574     18.500
REMARK  Name = Thalidomide.pdbqt.pdb
REMARK  1 active torsions:
REMARK  status: ('A' for Active; 'I' for Inactive)
REMARK    1  A    between atoms: N_3  and  C_12
REMARK                            x       y       z     vdW  Elec       q    Type
REMARK                         _______ _______ _______ _____ _____    ______ ____
ROOT
ATOM      1  O   UNL     1       5.825   3.341  59.530  0.00  0.00    +0.000 OA
ATOM      2  O   UNL     1       8.881   6.046  57.406  0.00  0.00    +0.000 OA
ATOM      3  N   UNL     1       7.387   4.356  58.086  0.00  0.00    +0.000 N 
ATOM      4  C   UNL     1       6.437   4.292  59.081  0.00  0.00    +0.000 C 
ATOM      5  C   UNL     1       7.888   5.635  57.976  0.00  0.00    +0.000 C 
ATOM      6  C   UNL     1       6.229   5.656  59.555  0.00  0.00    +0.000 A 
ATOM      7  C   UNL     1       7.099   6.476  58.867  0.00  0.00    +0.000 A 
ATOM      8  C   UNL     1       5.369   6.139  60.519  0.00  0.00    +0.000 A 
ATOM      9  C   UNL     1       7.177   7.831  59.108  0.00  0.00    +0.000 A 
ATOM     10  C   UNL     1       5.418   7.512  60.770  0.00  0.00    +0.000 A 
ATOM     11  C   UNL     1       6.310   8.347  60.075  0.00  0.00    +0.000 A 
ENDROOT
BRANCH   3  12
ATOM     12  C   UNL     1       7.864   3.273  57.390  0.00  0.00    +0.000 C 
ATOM     13  C   UNL     1       7.268   2.793  56.202  0.00  0.00    +0.000 C 
ATOM     14  C   UNL     1       7.703   1.516  55.553  0.00  0.00    +0.000 C 
ATOM     15  C   UNL     1       8.784   0.727  56.065  0.00  0.00    +0.000 C 
ATOM     16  O   UNL     1       9.186  -0.273  55.492  0.00  0.00    +0.000 OA
ATOM     17  N   UNL     1       9.341   1.257  57.226  0.00  0.00    +0.000 N 
ATOM     18  C   UNL     1       9.111   2.506  57.821  0.00  0.00    +0.000 C 
ATOM     19  H   UNL     1      10.187   0.798  57.530  0.00  0.00    +0.000 HD
ATOM     20  O   UNL     1       9.962   3.001  58.555  0.00  0.00    +0.000 OA
ENDBRANCH   3  12
TORSDOF 1
ENDMDL
MODEL 5
REMARK VINA RESULT:      -4.0      3.918      5.637
REMARK  Name = Thalidomide.pdbqt.pdb
REMARK  1 active torsions:
REMARK  status: ('A' for Active; 'I' for Inactive)
REMARK    1  A    between atoms: N_3  and  C_12
REMARK                            x       y       z     vdW  Elec       q    Type
REMARK                         _______ _______ _______ _____ _____    ______ ____
ROOT
ATOM      1  O   UNL     1       8.404   5.613  77.475  0.00  0.00    +0.000 OA
ATOM      2  O   UNL     1       6.910   1.306  76.857  0.00  0.00    +0.000 OA
ATOM      3  N   UNL     1       7.180   3.633  77.110  0.00  0.00    +0.000 N 
ATOM      4  C   UNL     1       8.289   4.447  77.146  0.00  0.00    +0.000 C 
ATOM      5  C   UNL     1       7.533   2.346  76.766  0.00  0.00    +0.000 C 
ATOM      6  C   UNL     1       9.414   3.650  76.670  0.00  0.00    +0.000 A 
ATOM      7  C   UNL     1       8.949   2.376  76.420  0.00  0.00    +0.000 A 
ATOM      8  C   UNL     1      10.737   3.998  76.490  0.00  0.00    +0.000 A 
ATOM      9  C   UNL     1       9.778   1.362  75.987  0.00  0.00    +0.000 A 
ATOM     10  C   UNL     1      11.593   2.993  76.037  0.00  0.00    +0.000 A 
ATOM     11  C   UNL     1      11.121   1.692  75.789  0.00  0.00    +0.000 A 
ENDROOT
BRANCH   3  12
ATOM     12  C   UNL     1       5.917   4.015  77.489  0.00  0.00    +0.000 C 
ATOM     13  C   UNL     1       5.411   3.823  78.794  0.00  0.00    +0.000 C 
ATOM     14  C   UNL     1       3.979   4.095  79.141  0.00  0.00    +0.000 C 
ATOM     15  C   UNL     1       3.046   4.615  78.186  0.00  0.00    +0.000 C 
ATOM     16  O   UNL     1       1.901   4.907  78.490  0.00  0.00    +0.000 OA
ATOM     17  N   UNL     1       3.606   4.798  76.924  0.00  0.00    +0.000 N 
ATOM     18  C   UNL     1       4.953   4.719  76.539  0.00  0.00    +0.000 C 
ATOM     19  H   UNL     1       3.013   5.288  76.272  0.00  0.00    +0.000 HD
ATOM     20  O   UNL     1       5.340   5.316  75.539  0.00  0.00    +0.000 OA
ENDBRANCH   3  12
TORSDOF 1
ENDMDL
MODEL 6
REMARK VINA RESULT:      -3.9     24.390     25.529
REMARK  Name = Thalidomide.pdbqt.pdb
REMARK  1 active torsions:
REMARK  status: ('A' for Active; 'I' for Inactive)
REMARK    1  A    between atoms: N_3  and  C_12
REMARK                            x       y       z     vdW  Elec       q    Type
REMARK                         _______ _______ _______ _____ _____    ______ ____
ROOT
ATOM      1  O   UNL     1      16.111  -0.809  54.472  0.00  0.00    +0.000 OA
ATOM      2  O   UNL     1      19.758  -0.270  57.225  0.00  0.00    +0.000 OA
ATOM      3  N   UNL     1      17.854  -1.004  56.046  0.00  0.00    +0.000 N 
ATOM      4  C   UNL     1      17.200  -0.523  54.934  0.00  0.00    +0.000 C 
ATOM      5  C   UNL     1      19.032  -0.318  56.250  0.00  0.00    +0.000 C 
ATOM      6  C   UNL     1      18.085   0.456  54.313  0.00  0.00    +0.000 A 
ATOM      7  C   UNL     1      19.210   0.565  55.104  0.00  0.00    +0.000 A 
ATOM      8  C   UNL     1      17.917   1.204  53.166  0.00  0.00    +0.000 A 
ATOM      9  C   UNL     1      20.234   1.441  54.809  0.00  0.00    +0.000 A 
ATOM     10  C   UNL     1      18.948   2.086  52.837  0.00  0.00    +0.000 A 
ATOM     11  C   UNL     1      20.091   2.204  53.648  0.00  0.00    +0.000 A 
ENDROOT
BRANCH   3  12
ATOM     12  C   UNL     1      17.344  -1.943  56.907  0.00  0.00    +0.000 C 
ATOM     13  C   UNL     1      16.421  -1.633  57.931  0.00  0.00    +0.000 C 
ATOM     14  C   UNL     1      16.007  -2.639  58.961  0.00  0.00    +0.000 C 
ATOM     15  C   UNL     1      16.479  -3.991  58.943  0.00  0.00    +0.000 C 
ATOM     16  O   UNL     1      16.083  -4.828  59.737  0.00  0.00    +0.000 OA
ATOM     17  N   UNL     1      17.373  -4.240  57.904  0.00  0.00    +0.000 N 
ATOM     18  C   UNL     1      17.704  -3.423  56.813  0.00  0.00    +0.000 C 
ATOM     19  H   UNL     1      17.614  -5.213  57.786  0.00  0.00    +0.000 HD
ATOM     20  O   UNL     1      18.143  -3.925  55.783  0.00  0.00    +0.000 OA
ENDBRANCH   3  12
TORSDOF 1
ENDMDL
MODEL 7
REMARK VINA RESULT:      -3.9     26.940     27.816
REMARK  Name = Thalidomide.pdbqt.pdb
REMARK  1 active torsions:
REMARK  status: ('A' for Active; 'I' for Inactive)
REMARK    1  A    between atoms: N_3  and  C_12
REMARK                            x       y       z     vdW  Elec       q    Type
REMARK                         _______ _______ _______ _____ _____    ______ ____
ROOT
ATOM      1  O   UNL     1      16.582   1.443  52.210  0.00  0.00    +0.000 OA
ATOM      2  O   UNL     1      20.858   3.006  52.875  0.00  0.00    +0.000 OA
ATOM      3  N   UNL     1      18.601   2.654  52.293  0.00  0.00    +0.000 N 
ATOM      4  C   UNL     1      17.673   1.714  52.677  0.00  0.00    +0.000 C 
ATOM      5  C   UNL     1      19.747   2.542  53.051  0.00  0.00    +0.000 C 
ATOM      6  C   UNL     1      18.218   1.034  53.847  0.00  0.00    +0.000 A 
ATOM      7  C   UNL     1      19.473   1.553  54.087  0.00  0.00    +0.000 A 
ATOM      8  C   UNL     1      17.675   0.033  54.626  0.00  0.00    +0.000 A 
ATOM      9  C   UNL     1      20.275   1.095  55.111  0.00  0.00    +0.000 A 
ATOM     10  C   UNL     1      18.461  -0.437  55.679  0.00  0.00    +0.000 A 
ATOM     11  C   UNL     1      19.744   0.087  55.919  0.00  0.00    +0.000 A 
ENDROOT
BRANCH   3  12
ATOM     12  C   UNL     1      18.461   3.499  51.220  0.00  0.00    +0.000 C 
ATOM     13  C   UNL     1      18.189   4.879  51.353  0.00  0.00    +0.000 C 
ATOM     14  C   UNL     1      17.876   5.747  50.173  0.00  0.00    +0.000 C 
ATOM     15  C   UNL     1      17.884   5.244  48.832  0.00  0.00    +0.000 C 
ATOM     16  O   UNL     1      17.704   5.968  47.866  0.00  0.00    +0.000 OA
ATOM     17  N   UNL     1      18.174   3.884  48.763  0.00  0.00    +0.000 N 
ATOM     18  C   UNL     1      18.623   3.028  49.779  0.00  0.00    +0.000 C 
ATOM     19  H   UNL     1      18.320   3.535  47.827  0.00  0.00    +0.000 HD
ATOM     20  O   UNL     1      19.240   2.006  49.490  0.00  0.00    +0.000 OA
ENDBRANCH   3  12
TORSDOF 1
ENDMDL
MODEL 8
REMARK VINA RESULT:      -3.9      1.782      6.347
REMARK  Name = Thalidomide.pdbqt.pdb
REMARK  1 active torsions:
REMARK  status: ('A' for Active; 'I' for Inactive)
REMARK    1  A    between atoms: N_3  and  C_12
REMARK                            x       y       z     vdW  Elec       q    Type
REMARK                         _______ _______ _______ _____ _____    ______ ____
ROOT
ATOM      1  O   UNL     1       1.482   8.474  75.974  0.00  0.00    +0.000 OA
ATOM      2  O   UNL     1       4.074   8.022  72.200  0.00  0.00    +0.000 OA
ATOM      3  N   UNL     1       2.984   7.822  74.280  0.00  0.00    +0.000 N 
ATOM      4  C   UNL     1       1.895   8.459  74.829  0.00  0.00    +0.000 C 
ATOM      5  C   UNL     1       3.131   8.169  72.954  0.00  0.00    +0.000 C 
ATOM      6  C   UNL     1       1.226   9.167  73.743  0.00  0.00    +0.000 A 
ATOM      7  C   UNL     1       1.968   8.973  72.597  0.00  0.00    +0.000 A 
ATOM      8  C   UNL     1       0.079   9.933  73.755  0.00  0.00    +0.000 A 
ATOM      9  C   UNL     1       1.622   9.544  71.390  0.00  0.00    +0.000 A 
ATOM     10  C   UNL     1      -0.302  10.509  72.542  0.00  0.00    +0.000 A 
ATOM     11  C   UNL     1       0.459  10.318  71.375  0.00  0.00    +0.000 A 
ENDROOT
BRANCH   3  12
ATOM     12  C   UNL     1       3.877   7.053  74.983  0.00  0.00    +0.000 C 
ATOM     13  C   UNL     1       3.861   5.640  74.967  0.00  0.00    +0.000 C 
ATOM     14  C   UNL     1       4.735   4.823  75.869  0.00  0.00    +0.000 C 
ATOM     15  C   UNL     1       5.678   5.421  76.767  0.00  0.00    +0.000 C 
ATOM     16  O   UNL     1       6.442   4.754  77.445  0.00  0.00    +0.000 OA
ATOM     17  N   UNL     1       5.659   6.813  76.726  0.00  0.00    +0.000 N 
ATOM     18  C   UNL     1       4.998   7.658  75.823  0.00  0.00    +0.000 C 
ATOM     19  H   UNL     1       6.404   7.255  77.244  0.00  0.00    +0.000 HD
ATOM     20  O   UNL     1       5.410   8.799  75.638  0.00  0.00    +0.000 OA
ENDBRANCH   3  12
TORSDOF 1
ENDMDL
MODEL 9
REMARK VINA RESULT:      -3.9     27.167     28.116
REMARK  Name = Thalidomide.pdbqt.pdb
REMARK  1 active torsions:
REMARK  status: ('A' for Active; 'I' for Inactive)
REMARK    1  A    between atoms: N_3  and  C_12
REMARK                            x       y       z     vdW  Elec       q    Type
REMARK                         _______ _______ _______ _____ _____    ______ ____
ROOT
ATOM      1  O   UNL     1      16.336   2.648  51.577  0.00  0.00    +0.000 OA
ATOM      2  O   UNL     1      20.838   3.474  52.041  0.00  0.00    +0.000 OA
ATOM      3  N   UNL     1      18.523   3.523  51.600  0.00  0.00    +0.000 N 
ATOM      4  C   UNL     1      17.482   2.708  51.982  0.00  0.00    +0.000 C 
ATOM      5  C   UNL     1      19.680   3.174  52.263  0.00  0.00    +0.000 C 
ATOM      6  C   UNL     1      17.981   1.858  53.057  0.00  0.00    +0.000 A 
ATOM      7  C   UNL     1      19.315   2.156  53.242  0.00  0.00    +0.000 A 
ATOM      8  C   UNL     1      17.335   0.892  53.799  0.00  0.00    +0.000 A 
ATOM      9  C   UNL     1      20.095   1.498  54.169  0.00  0.00    +0.000 A 
ATOM     10  C   UNL     1      18.098   0.222  54.756  0.00  0.00    +0.000 A 
ATOM     11  C   UNL     1      19.460   0.520  54.939  0.00  0.00    +0.000 A 
ENDROOT
BRANCH   3  12
ATOM     12  C   UNL     1      18.454   4.465  50.604  0.00  0.00    +0.000 C 
ATOM     13  C   UNL     1      18.408   4.137  49.231  0.00  0.00    +0.000 C 
ATOM     14  C   UNL     1      18.501   5.179  48.159  0.00  0.00    +0.000 C 
ATOM     15  C   UNL     1      18.590   6.577  48.458  0.00  0.00    +0.000 C 
ATOM     16  O   UNL     1      18.589   7.429  47.585  0.00  0.00    +0.000 OA
ATOM     17  N   UNL     1      18.615   6.840  49.826  0.00  0.00    +0.000 N 
ATOM     18  C   UNL     1      18.385   5.961  50.894  0.00  0.00    +0.000 C 
ATOM     19  H   UNL     1      18.540   7.817  50.064  0.00  0.00    +0.000 HD
ATOM     20  O   UNL     1      18.012   6.400  51.978  0.00  0.00    +0.000 OA
ENDBRANCH   3  12
TORSDOF 1
ENDMDL
