MODEL 1
REMARK VINA RESULT:      -4.7      0.000      0.000
REMARK  Name = Thapsigargin.pdbqt.pdb
REMARK  10 active torsions:
REMARK  status: ('A' for Active; 'I' for Inactive)
REMARK    1  A    between atoms: O_2  and  C_24
REMARK    2  A    between atoms: C_17  and  O_43
REMARK    3  A    between atoms: C_19  and  C_24
REMARK    4  A    between atoms: C_19  and  O_47
REMARK    5  A    between atoms: C_27  and  C_35
REMARK    6  A    between atoms: C_35  and  C_36
REMARK    7  A    between atoms: C_37  and  C_38
REMARK    8  A    between atoms: C_39  and  C_40
REMARK    9  A    between atoms: C_42  and  O_43
REMARK   10  A    between atoms: C_42  and  C_44
REMARK                            x       y       z     vdW  Elec       q    Type
REMARK                         _______ _______ _______ _____ _____    ______ ____
ROOT
ATOM      1  O   UNL     1      16.363  10.081  70.427  0.00  0.00    +0.000 OA
ATOM      2  O   UNL     1      15.168   5.315  73.970  0.00  0.00    +0.000 OA
ATOM      3  O   UNL     1      13.245   6.920  74.490  0.00  0.00    +0.000 OA
ATOM      4  O   UNL     1      16.710   8.996  75.547  0.00  0.00    +0.000 OA
ATOM      5  O   UNL     1      16.260  11.163  68.416  0.00  0.00    +0.000 OA
ATOM      6  O   UNL     1      12.938   6.085  73.316  0.00  0.00    +0.000 OA
ATOM      7  O   UNL     1      13.000   6.800  76.923  0.00  0.00    +0.000 OA
ATOM      8  O   UNL     1      16.125  11.210  74.567  0.00  0.00    +0.000 OA
ATOM      9  C   UNL     1      16.688   6.902  72.697  0.00  0.00    +0.000 C 
ATOM     10  C   UNL     1      16.134   7.902  69.657  0.00  0.00    +0.000 C 
ATOM     11  C   UNL     1      16.367   8.741  70.793  0.00  0.00    +0.000 C 
ATOM     12  C   UNL     1      16.541   5.632  71.929  0.00  0.00    +0.000 C 
ATOM     13  C   UNL     1      16.609   8.315  72.052  0.00  0.00    +0.000 C 
ATOM     14  C   UNL     1      16.236   6.623  69.819  0.00  0.00    +0.000 C 
ATOM     15  C   UNL     1      16.457   5.466  70.596  0.00  0.00    +0.000 C 
ATOM     16  C   UNL     1      17.249   7.141  74.008  0.00  0.00    +0.000 C 
ATOM     17  C   UNL     1      15.940   8.738  68.459  0.00  0.00    +0.000 C 
ATOM     18  C   UNL     1      17.143   8.514  74.307  0.00  0.00    +0.000 C 
ATOM     19  C   UNL     1      16.916   9.210  73.173  0.00  0.00    +0.000 C 
ATOM     20  C   UNL     1      15.438   6.096  72.790  0.00  0.00    +0.000 C 
ATOM     21  C   UNL     1      16.188  10.122  69.063  0.00  0.00    +0.000 C 
ATOM     22  C   UNL     1      16.482  10.501  73.502  0.00  0.00    +0.000 C 
ATOM     23  C   UNL     1      14.142   5.348  72.968  0.00  0.00    +0.000 C 
ATOM     24  C   UNL     1      12.727   6.327  75.646  0.00  0.00    +0.000 C 
ATOM     25  C   UNL     1      15.903  10.194  75.544  0.00  0.00    +0.000 C 
ATOM     26  C   UNL     1      13.870   3.974  72.341  0.00  0.00    +0.000 C 
ATOM     27  C   UNL     1      14.781  10.230  76.293  0.00  0.00    +0.000 C 
ATOM     28  C   UNL     1      13.868  11.435  76.301  0.00  0.00    +0.000 C 
ATOM     29  C   UNL     1      14.209   9.020  76.779  0.00  0.00    +0.000 C 
ATOM     30  C   UNL     1      13.647   7.964  76.904  0.00  0.00    +0.000 C 
ENDROOT
BRANCH  17  31
ATOM     31  O   UNL     1      16.876   8.398  67.450  0.00  0.00    +0.000 OA
ATOM     32  H   UNL     1      16.945   7.426  67.474  0.00  0.00    +0.000 HD
ENDBRANCH  17  31
BRANCH  17  33
ATOM     33  C   UNL     1      14.570   8.592  67.936  0.00  0.00    +0.000 C 
BRANCH  33  34
ATOM     34  O   UNL     1      13.338   8.439  67.453  0.00  0.00    +0.000 OA
ATOM     35  H   UNL     1      13.337   7.854  66.672  0.00  0.00    +0.000 HD
ENDBRANCH  33  34
ENDBRANCH  17  33
BRANCH  24  36
ATOM     36  C   UNL     1      12.110   5.184  75.602  0.00  0.00    +0.000 C 
BRANCH  36  37
ATOM     37  C   UNL     1      11.382   3.836  75.603  0.00  0.00    +0.000 C 
ATOM     38  C   UNL     1      10.838   2.766  75.581  0.00  0.00    +0.000 C 
BRANCH  38  39
ATOM     39  C   UNL     1      10.164   1.390  75.539  0.00  0.00    +0.000 C 
ATOM     40  C   UNL     1       9.633   0.315  75.493  0.00  0.00    +0.000 C 
BRANCH  40  41
ATOM     41  C   UNL     1       8.954  -1.056  75.425  0.00  0.00    +0.000 C 
ATOM     42  C   UNL     1       8.362  -2.248  75.365  0.00  0.00    +0.000 C 
ENDBRANCH  40  41
ENDBRANCH  38  39
ENDBRANCH  36  37
ENDBRANCH  24  36
BRANCH  15  43
ATOM     43  O   UNL     1      16.857   4.265  69.998  0.00  0.00    +0.000 OA
BRANCH  43  45
ATOM     44  O   UNL     1      15.682   4.290  67.987  0.00  0.00    +0.000 OA
ATOM     45  C   UNL     1      15.981   3.788  69.062  0.00  0.00    +0.000 C 
BRANCH  45  46
ATOM     46  C   UNL     1      15.386   2.554  69.475  0.00  0.00    +0.000 C 
ATOM     47  C   UNL     1      14.893   1.521  69.825  0.00  0.00    +0.000 C 
ATOM     48  C   UNL     1      14.253   0.200  70.259  0.00  0.00    +0.000 C 
ENDBRANCH  45  46
ENDBRANCH  43  45
ENDBRANCH  15  43
TORSDOF 10
ENDMDL
MODEL 2
REMARK VINA RESULT:      -4.5      7.548     12.862
REMARK  Name = Thapsigargin.pdbqt.pdb
REMARK  10 active torsions:
REMARK  status: ('A' for Active; 'I' for Inactive)
REMARK    1  A    between atoms: O_2  and  C_24
REMARK    2  A    between atoms: C_17  and  O_43
REMARK    3  A    between atoms: C_19  and  C_24
REMARK    4  A    between atoms: C_19  and  O_47
REMARK    5  A    between atoms: C_27  and  C_35
REMARK    6  A    between atoms: C_35  and  C_36
REMARK    7  A    between atoms: C_37  and  C_38
REMARK    8  A    between atoms: C_39  and  C_40
REMARK    9  A    between atoms: C_42  and  O_43
REMARK   10  A    between atoms: C_42  and  C_44
REMARK                            x       y       z     vdW  Elec       q    Type
REMARK                         _______ _______ _______ _____ _____    ______ ____
ROOT
ATOM      1  O   UNL     1       1.799   4.915  78.572  0.00  0.00    +0.000 OA
ATOM      2  O   UNL     1       7.179   6.104  76.052  0.00  0.00    +0.000 OA
ATOM      3  O   UNL     1       6.336   8.419  76.741  0.00  0.00    +0.000 OA
ATOM      4  O   UNL     1       3.483   6.980  74.054  0.00  0.00    +0.000 OA
ATOM      5  O   UNL     1       0.511   4.299  80.357  0.00  0.00    +0.000 OA
ATOM      6  O   UNL     1       7.039   7.756  77.853  0.00  0.00    +0.000 OA
ATOM      7  O   UNL     1       6.891   9.854  74.836  0.00  0.00    +0.000 OA
ATOM      8  O   UNL     1       1.434   7.668  75.292  0.00  0.00    +0.000 OA
ATOM      9  C   UNL     1       5.030   4.785  76.355  0.00  0.00    +0.000 C 
ATOM     10  C   UNL     1       3.802   3.950  79.244  0.00  0.00    +0.000 C 
ATOM     11  C   UNL     1       3.112   4.652  78.204  0.00  0.00    +0.000 C 
ATOM     12  C   UNL     1       6.153   4.064  77.020  0.00  0.00    +0.000 C 
ATOM     13  C   UNL     1       3.628   4.984  77.000  0.00  0.00    +0.000 C 
ATOM     14  C   UNL     1       4.997   3.523  78.995  0.00  0.00    +0.000 C 
ATOM     15  C   UNL     1       6.134   3.370  78.174  0.00  0.00    +0.000 C 
ATOM     16  C   UNL     1       4.830   5.121  74.963  0.00  0.00    +0.000 C 
ATOM     17  C   UNL     1       2.895   3.751  80.388  0.00  0.00    +0.000 C 
ATOM     18  C   UNL     1       3.617   5.826  74.832  0.00  0.00    +0.000 C 
ATOM     19  C   UNL     1       2.862   5.640  75.935  0.00  0.00    +0.000 C 
ATOM     20  C   UNL     1       6.184   5.535  76.926  0.00  0.00    +0.000 C 
ATOM     21  C   UNL     1       1.609   4.345  79.809  0.00  0.00    +0.000 C 
ATOM     22  C   UNL     1       1.830   6.588  75.955  0.00  0.00    +0.000 C 
ATOM     23  C   UNL     1       7.311   6.385  77.453  0.00  0.00    +0.000 C 
ATOM     24  C   UNL     1       7.227   9.233  76.033  0.00  0.00    +0.000 C 
ATOM     25  C   UNL     1       2.604   8.013  74.551  0.00  0.00    +0.000 C 
ATOM     26  C   UNL     1       8.591   5.802  78.064  0.00  0.00    +0.000 C 
ATOM     27  C   UNL     1       3.027   9.294  74.541  0.00  0.00    +0.000 C 
ATOM     28  C   UNL     1       2.174  10.417  75.087  0.00  0.00    +0.000 C 
ATOM     29  C   UNL     1       4.412   9.587  74.394  0.00  0.00    +0.000 C 
ATOM     30  C   UNL     1       5.595   9.734  74.550  0.00  0.00    +0.000 C 
ENDROOT
BRANCH  17  31
ATOM     31  O   UNL     1       2.776   2.374  80.704  0.00  0.00    +0.000 OA
ATOM     32  H   UNL     1       2.773   1.909  79.847  0.00  0.00    +0.000 HD
ENDBRANCH  17  31
BRANCH  17  33
ATOM     33  C   UNL     1       3.373   4.493  81.569  0.00  0.00    +0.000 C 
BRANCH  33  34
ATOM     34  O   UNL     1       3.802   5.143  82.649  0.00  0.00    +0.000 OA
ATOM     35  H   UNL     1       3.838   4.552  83.424  0.00  0.00    +0.000 HD
ENDBRANCH  33  34
ENDBRANCH  17  33
BRANCH  24  36
ATOM     36  C   UNL     1       8.484   9.304  76.355  0.00  0.00    +0.000 C 
BRANCH  36  37
ATOM     37  C   UNL     1       9.967   9.337  76.737  0.00  0.00    +0.000 C 
ATOM     38  C   UNL     1      11.125   9.332  77.055  0.00  0.00    +0.000 C 
BRANCH  38  39
ATOM     39  C   UNL     1      12.598   9.301  77.474  0.00  0.00    +0.000 C 
ATOM     40  C   UNL     1      13.749   9.284  77.814  0.00  0.00    +0.000 C 
BRANCH  40  41
ATOM     41  C   UNL     1      15.215   9.264  78.256  0.00  0.00    +0.000 C 
ATOM     42  C   UNL     1      16.491   9.250  78.641  0.00  0.00    +0.000 C 
ENDBRANCH  40  41
ENDBRANCH  38  39
ENDBRANCH  36  37
ENDBRANCH  24  36
BRANCH  15  43
ATOM     43  O   UNL     1       7.050   2.336  78.401  0.00  0.00    +0.000 OA
BRANCH  43  45
ATOM     44  O   UNL     1       6.852   0.754  76.703  0.00  0.00    +0.000 OA
ATOM     45  C   UNL     1       7.432   1.669  77.270  0.00  0.00    +0.000 C 
BRANCH  45  46
ATOM     46  C   UNL     1       8.675   2.163  76.760  0.00  0.00    +0.000 C 
ATOM     47  C   UNL     1       9.712   2.576  76.327  0.00  0.00    +0.000 C 
ATOM     48  C   UNL     1      11.045   3.100  75.788  0.00  0.00    +0.000 C 
ENDBRANCH  45  46
ENDBRANCH  43  45
ENDBRANCH  15  43
TORSDOF 10
ENDMDL
MODEL 3
REMARK VINA RESULT:      -4.5      9.697     15.651
REMARK  Name = Thapsigargin.pdbqt.pdb
REMARK  10 active torsions:
REMARK  status: ('A' for Active; 'I' for Inactive)
REMARK    1  A    between atoms: O_2  and  C_24
REMARK    2  A    between atoms: C_17  and  O_43
REMARK    3  A    between atoms: C_19  and  C_24
REMARK    4  A    between atoms: C_19  and  O_47
REMARK    5  A    between atoms: C_27  and  C_35
REMARK    6  A    between atoms: C_35  and  C_36
REMARK    7  A    between atoms: C_37  and  C_38
REMARK    8  A    between atoms: C_39  and  C_40
REMARK    9  A    between atoms: C_42  and  O_43
REMARK   10  A    between atoms: C_42  and  C_44
REMARK                            x       y       z     vdW  Elec       q    Type
REMARK                         _______ _______ _______ _____ _____    ______ ____
ROOT
ATOM      1  O   UNL     1      17.810  13.524  63.584  0.00  0.00    +0.000 OA
ATOM      2  O   UNL     1      18.112   9.330  59.224  0.00  0.00    +0.000 OA
ATOM      3  O   UNL     1      18.229  11.529  57.923  0.00  0.00    +0.000 OA
ATOM      4  O   UNL     1      14.564  11.643  59.920  0.00  0.00    +0.000 OA
ATOM      5  O   UNL     1      18.788  14.826  65.189  0.00  0.00    +0.000 OA
ATOM      6  O   UNL     1      19.565  11.108  58.377  0.00  0.00    +0.000 OA
ATOM      7  O   UNL     1      16.765  11.167  55.994  0.00  0.00    +0.000 OA
ATOM      8  O   UNL     1      14.650  14.002  60.711  0.00  0.00    +0.000 OA
ATOM      9  C   UNL     1      17.404  10.236  61.488  0.00  0.00    +0.000 C 
ATOM     10  C   UNL     1      19.390  11.823  63.511  0.00  0.00    +0.000 C 
ATOM     11  C   UNL     1      18.121  12.287  63.035  0.00  0.00    +0.000 C 
ATOM     12  C   UNL     1      18.551   9.299  61.665  0.00  0.00    +0.000 C 
ATOM     13  C   UNL     1      17.297  11.614  62.203  0.00  0.00    +0.000 C 
ATOM     14  C   UNL     1      19.757  10.627  63.186  0.00  0.00    +0.000 C 
ATOM     15  C   UNL     1      19.582   9.392  62.526  0.00  0.00    +0.000 C 
ATOM     16  C   UNL     1      16.074   9.998  60.976  0.00  0.00    +0.000 C 
ATOM     17  C   UNL     1      19.971  12.827  64.420  0.00  0.00    +0.000 C 
ATOM     18  C   UNL     1      15.355  11.210  60.989  0.00  0.00    +0.000 C 
ATOM     19  C   UNL     1      15.972  12.096  61.800  0.00  0.00    +0.000 C 
ATOM     20  C   UNL     1      18.427  10.074  60.416  0.00  0.00    +0.000 C 
ATOM     21  C   UNL     1      18.828  13.845  64.452  0.00  0.00    +0.000 C 
ATOM     22  C   UNL     1      15.462  13.378  61.556  0.00  0.00    +0.000 C 
ATOM     23  C   UNL     1      19.394   9.970  59.266  0.00  0.00    +0.000 C 
ATOM     24  C   UNL     1      18.000  11.065  56.623  0.00  0.00    +0.000 C 
ATOM     25  C   UNL     1      14.543  13.060  59.645  0.00  0.00    +0.000 C 
ATOM     26  C   UNL     1      20.564   8.977  59.236  0.00  0.00    +0.000 C 
ATOM     27  C   UNL     1      14.687  13.483  58.372  0.00  0.00    +0.000 C 
ATOM     28  C   UNL     1      14.719  14.953  58.020  0.00  0.00    +0.000 C 
ATOM     29  C   UNL     1      15.207  12.601  57.381  0.00  0.00    +0.000 C 
ATOM     30  C   UNL     1      15.901  11.905  56.689  0.00  0.00    +0.000 C 
ENDROOT
BRANCH  17  31
ATOM     31  O   UNL     1      20.244  12.260  65.690  0.00  0.00    +0.000 OA
ATOM     32  H   UNL     1      20.024  11.313  65.606  0.00  0.00    +0.000 HD
ENDBRANCH  17  31
BRANCH  17  33
ATOM     33  C   UNL     1      21.208  13.393  63.852  0.00  0.00    +0.000 C 
BRANCH  33  34
ATOM     34  O   UNL     1      22.314  13.925  63.334  0.00  0.00    +0.000 OA
ATOM     35  H   UNL     1      22.151  14.270  62.436  0.00  0.00    +0.000 HD
ENDBRANCH  33  34
ENDBRANCH  17  33
BRANCH  24  36
ATOM     36  C   UNL     1      18.878  10.342  55.996  0.00  0.00    +0.000 C 
BRANCH  36  37
ATOM     37  C   UNL     1      19.887   9.448  55.268  0.00  0.00    +0.000 C 
ATOM     38  C   UNL     1      20.653   8.721  54.696  0.00  0.00    +0.000 C 
BRANCH  38  39
ATOM     39  C   UNL     1      21.609   7.774  53.964  0.00  0.00    +0.000 C 
ATOM     40  C   UNL     1      22.352   7.021  53.397  0.00  0.00    +0.000 C 
BRANCH  40  41
ATOM     41  C   UNL     1      23.294   6.054  52.675  0.00  0.00    +0.000 C 
ATOM     42  C   UNL     1      24.116   5.212  52.049  0.00  0.00    +0.000 C 
ENDBRANCH  40  41
ENDBRANCH  38  39
ENDBRANCH  36  37
ENDBRANCH  24  36
BRANCH  15  43
ATOM     43  O   UNL     1      20.257   8.245  62.959  0.00  0.00    +0.000 OA
BRANCH  43  45
ATOM     44  O   UNL     1      19.154   6.218  63.277  0.00  0.00    +0.000 OA
ATOM     45  C   UNL     1      19.465   7.348  63.624  0.00  0.00    +0.000 C 
BRANCH  45  46
ATOM     46  C   UNL     1      18.983   7.884  64.860  0.00  0.00    +0.000 C 
ATOM     47  C   UNL     1      18.585   8.332  65.896  0.00  0.00    +0.000 C 
ATOM     48  C   UNL     1      18.062   8.902  67.217  0.00  0.00    +0.000 C 
ENDBRANCH  45  46
ENDBRANCH  43  45
ENDBRANCH  15  43
TORSDOF 10
ENDMDL
MODEL 4
REMARK VINA RESULT:      -4.2      2.601      5.280
REMARK  Name = Thapsigargin.pdbqt.pdb
REMARK  10 active torsions:
REMARK  status: ('A' for Active; 'I' for Inactive)
REMARK    1  A    between atoms: O_2  and  C_24
REMARK    2  A    between atoms: C_17  and  O_43
REMARK    3  A    between atoms: C_19  and  C_24
REMARK    4  A    between atoms: C_19  and  O_47
REMARK    5  A    between atoms: C_27  and  C_35
REMARK    6  A    between atoms: C_35  and  C_36
REMARK    7  A    between atoms: C_37  and  C_38
REMARK    8  A    between atoms: C_39  and  C_40
REMARK    9  A    between atoms: C_42  and  O_43
REMARK   10  A    between atoms: C_42  and  C_44
REMARK                            x       y       z     vdW  Elec       q    Type
REMARK                         _______ _______ _______ _____ _____    ______ ____
ROOT
ATOM      1  O   UNL     1      14.803   8.857  71.661  0.00  0.00    +0.000 OA
ATOM      2  O   UNL     1      16.274   3.001  71.172  0.00  0.00    +0.000 OA
ATOM      3  O   UNL     1      13.750   2.933  71.582  0.00  0.00    +0.000 OA
ATOM      4  O   UNL     1      15.347   4.810  74.953  0.00  0.00    +0.000 OA
ATOM      5  O   UNL     1      14.247  10.871  70.733  0.00  0.00    +0.000 OA
ATOM      6  O   UNL     1      14.052   3.096  70.150  0.00  0.00    +0.000 OA
ATOM      7  O   UNL     1      13.447   1.104  73.181  0.00  0.00    +0.000 OA
ATOM      8  O   UNL     1      13.682   6.649  75.172  0.00  0.00    +0.000 OA
ATOM      9  C   UNL     1      16.713   5.435  71.750  0.00  0.00    +0.000 C 
ATOM     10  C   UNL     1      15.903   7.931  69.836  0.00  0.00    +0.000 C 
ATOM     11  C   UNL     1      15.540   7.769  71.212  0.00  0.00    +0.000 C 
ATOM     12  C   UNL     1      17.365   5.108  70.449  0.00  0.00    +0.000 C 
ATOM     13  C   UNL     1      15.892   6.732  72.003  0.00  0.00    +0.000 C 
ATOM     14  C   UNL     1      16.699   7.057  69.314  0.00  0.00    +0.000 C 
ATOM     15  C   UNL     1      17.482   5.883  69.355  0.00  0.00    +0.000 C 
ATOM     16  C   UNL     1      16.947   4.900  73.072  0.00  0.00    +0.000 C 
ATOM     17  C   UNL     1      15.353   9.201  69.329  0.00  0.00    +0.000 C 
ATOM     18  C   UNL     1      16.062   5.517  73.979  0.00  0.00    +0.000 C 
ATOM     19  C   UNL     1      15.560   6.643  73.429  0.00  0.00    +0.000 C 
ATOM     20  C   UNL     1      16.135   4.398  70.849  0.00  0.00    +0.000 C 
ATOM     21  C   UNL     1      14.731   9.749  70.616  0.00  0.00    +0.000 C 
ATOM     22  C   UNL     1      14.450   7.065  74.172  0.00  0.00    +0.000 C 
ATOM     23  C   UNL     1      15.483   3.323  70.020  0.00  0.00    +0.000 C 
ATOM     24  C   UNL     1      13.580   1.577  71.882  0.00  0.00    +0.000 C 
ATOM     25  C   UNL     1      14.006   5.261  75.244  0.00  0.00    +0.000 C 
ATOM     26  C   UNL     1      16.080   2.787  68.712  0.00  0.00    +0.000 C 
ATOM     27  C   UNL     1      13.013   4.352  75.324  0.00  0.00    +0.000 C 
ATOM     28  C   UNL     1      11.580   4.761  75.583  0.00  0.00    +0.000 C 
ATOM     29  C   UNL     1      13.194   3.047  74.784  0.00  0.00    +0.000 C 
ATOM     30  C   UNL     1      13.321   2.089  74.069  0.00  0.00    +0.000 C 
ENDROOT
BRANCH  17  31
ATOM     31  O   UNL     1      16.385  10.028  68.817  0.00  0.00    +0.000 OA
ATOM     32  H   UNL     1      15.934  10.811  68.448  0.00  0.00    +0.000 HD
ENDBRANCH  17  31
BRANCH  17  33
ATOM     33  C   UNL     1      14.347   8.954  68.281  0.00  0.00    +0.000 C 
BRANCH  33  34
ATOM     34  O   UNL     1      13.455   8.731  67.317  0.00  0.00    +0.000 OA
ATOM     35  H   UNL     1      13.003   7.876  67.448  0.00  0.00    +0.000 HD
ENDBRANCH  33  34
ENDBRANCH  17  33
BRANCH  24  36
ATOM     36  C   UNL     1      13.723   0.659  70.974  0.00  0.00    +0.000 C 
BRANCH  36  37
ATOM     37  C   UNL     1      13.860  -0.453  69.929  0.00  0.00    +0.000 C 
ATOM     38  C   UNL     1      13.965  -1.300  69.084  0.00  0.00    +0.000 C 
BRANCH  38  39
ATOM     39  C   UNL     1      14.099  -2.360  67.987  0.00  0.00    +0.000 C 
ATOM     40  C   UNL     1      14.191  -3.197  67.131  0.00  0.00    +0.000 C 
BRANCH  40  41
ATOM     41  C   UNL     1      14.301  -4.266  66.040  0.00  0.00    +0.000 C 
ATOM     42  C   UNL     1      14.395  -5.194  65.088  0.00  0.00    +0.000 C 
ENDBRANCH  40  41
ENDBRANCH  38  39
ENDBRANCH  36  37
ENDBRANCH  24  36
BRANCH  15  43
ATOM     43  O   UNL     1      18.531   5.688  68.450  0.00  0.00    +0.000 OA
BRANCH  43  45
ATOM     44  O   UNL     1      17.955   6.960  66.586  0.00  0.00    +0.000 OA
ATOM     45  C   UNL     1      18.188   5.896  67.142  0.00  0.00    +0.000 C 
BRANCH  45  46
ATOM     46  C   UNL     1      18.109   4.667  66.414  0.00  0.00    +0.000 C 
ATOM     47  C   UNL     1      18.047   3.641  65.801  0.00  0.00    +0.000 C 
ATOM     48  C   UNL     1      17.955   2.325  65.025  0.00  0.00    +0.000 C 
ENDBRANCH  45  46
ENDBRANCH  43  45
ENDBRANCH  15  43
TORSDOF 10
ENDMDL
MODEL 5
REMARK VINA RESULT:      -4.2     13.722     17.909
REMARK  Name = Thapsigargin.pdbqt.pdb
REMARK  10 active torsions:
REMARK  status: ('A' for Active; 'I' for Inactive)
REMARK    1  A    between atoms: O_2  and  C_24
REMARK    2  A    between atoms: C_17  and  O_43
REMARK    3  A    between atoms: C_19  and  C_24
REMARK    4  A    between atoms: C_19  and  O_47
REMARK    5  A    between atoms: C_27  and  C_35
REMARK    6  A    between atoms: C_35  and  C_36
REMARK    7  A    between atoms: C_37  and  C_38
REMARK    8  A    between atoms: C_39  and  C_40
REMARK    9  A    between atoms: C_42  and  O_43
REMARK   10  A    between atoms: C_42  and  C_44
REMARK                            x       y       z     vdW  Elec       q    Type
REMARK                         _______ _______ _______ _____ _____    ______ ____
ROOT
ATOM      1  O   UNL     1      -3.289   4.069  67.006  0.00  0.00    +0.000 OA
ATOM      2  O   UNL     1       2.535   5.487  66.125  0.00  0.00    +0.000 OA
ATOM      3  O   UNL     1       1.981   4.024  64.101  0.00  0.00    +0.000 OA
ATOM      4  O   UNL     1       1.310   1.582  67.420  0.00  0.00    +0.000 OA
ATOM      5  O   UNL     1      -5.519   4.543  66.834  0.00  0.00    +0.000 OA
ATOM      6  O   UNL     1       1.632   5.434  63.850  0.00  0.00    +0.000 OA
ATOM      7  O   UNL     1       3.930   2.562  63.861  0.00  0.00    +0.000 OA
ATOM      8  O   UNL     1      -0.837   0.553  66.691  0.00  0.00    +0.000 OA
ATOM      9  C   UNL     1       0.477   5.017  67.538  0.00  0.00    +0.000 C 
ATOM     10  C   UNL     1      -2.468   6.240  66.922  0.00  0.00    +0.000 C 
ATOM     11  C   UNL     1      -2.148   4.855  67.098  0.00  0.00    +0.000 C 
ATOM     12  C   UNL     1       0.712   6.488  67.477  0.00  0.00    +0.000 C 
ATOM     13  C   UNL     1      -0.921   4.358  67.366  0.00  0.00    +0.000 C 
ATOM     14  C   UNL     1      -1.527   7.106  67.108  0.00  0.00    +0.000 C 
ATOM     15  C   UNL     1      -0.198   7.478  67.404  0.00  0.00    +0.000 C 
ATOM     16  C   UNL     1       1.303   3.962  68.081  0.00  0.00    +0.000 C 
ATOM     17  C   UNL     1      -3.914   6.383  66.674  0.00  0.00    +0.000 C 
ATOM     18  C   UNL     1       0.654   2.726  67.885  0.00  0.00    +0.000 C 
ATOM     19  C   UNL     1      -0.652   2.937  67.613  0.00  0.00    +0.000 C 
ATOM     20  C   UNL     1       1.118   5.636  66.344  0.00  0.00    +0.000 C 
ATOM     21  C   UNL     1      -4.352   4.924  66.830  0.00  0.00    +0.000 C 
ATOM     22  C   UNL     1      -1.212   1.762  67.095  0.00  0.00    +0.000 C 
ATOM     23  C   UNL     1       1.789   6.159  65.100  0.00  0.00    +0.000 C 
ATOM     24  C   UNL     1       3.268   3.760  63.621  0.00  0.00    +0.000 C 
ATOM     25  C   UNL     1       0.572   0.711  66.535  0.00  0.00    +0.000 C 
ATOM     26  C   UNL     1       2.204   7.625  64.920  0.00  0.00    +0.000 C 
ATOM     27  C   UNL     1       1.169   0.259  65.413  0.00  0.00    +0.000 C 
ATOM     28  C   UNL     1       0.439  -0.620  64.423  0.00  0.00    +0.000 C 
ATOM     29  C   UNL     1       2.342   0.899  64.921  0.00  0.00    +0.000 C 
ATOM     30  C   UNL     1       3.140   1.652  64.430  0.00  0.00    +0.000 C 
ENDROOT
BRANCH  17  31
ATOM     31  O   UNL     1      -4.507   7.244  67.632  0.00  0.00    +0.000 OA
ATOM     32  H   UNL     1      -3.803   7.440  68.279  0.00  0.00    +0.000 HD
ENDBRANCH  17  31
BRANCH  17  33
ATOM     33  C   UNL     1      -4.163   6.901  65.317  0.00  0.00    +0.000 C 
BRANCH  33  34
ATOM     34  O   UNL     1      -4.394   7.346  64.083  0.00  0.00    +0.000 OA
ATOM     35  H   UNL     1      -5.196   7.901  64.054  0.00  0.00    +0.000 HD
ENDBRANCH  33  34
ENDBRANCH  17  33
BRANCH  24  36
ATOM     36  C   UNL     1       3.995   4.691  63.081  0.00  0.00    +0.000 C 
BRANCH  36  37
ATOM     37  C   UNL     1       4.836   5.822  62.480  0.00  0.00    +0.000 C 
ATOM     38  C   UNL     1       5.497   6.723  62.042  0.00  0.00    +0.000 C 
BRANCH  38  39
ATOM     39  C   UNL     1       6.345   7.883  61.508  0.00  0.00    +0.000 C 
ATOM     40  C   UNL     1       6.997   8.798  61.085  0.00  0.00    +0.000 C 
BRANCH  40  41
ATOM     41  C   UNL     1       7.821   9.970  60.545  0.00  0.00    +0.000 C 
ATOM     42  C   UNL     1       8.541  10.987  60.073  0.00  0.00    +0.000 C 
ENDBRANCH  40  41
ENDBRANCH  38  39
ENDBRANCH  36  37
ENDBRANCH  24  36
BRANCH  15  43
ATOM     43  O   UNL     1       0.100   8.759  67.883  0.00  0.00    +0.000 OA
BRANCH  43  45
ATOM     44  O   UNL     1      -0.990   9.107  69.912  0.00  0.00    +0.000 OA
ATOM     45  C   UNL     1       0.009   8.883  69.242  0.00  0.00    +0.000 C 
BRANCH  45  46
ATOM     46  C   UNL     1       1.283   8.723  69.874  0.00  0.00    +0.000 C 
ATOM     47  C   UNL     1       2.348   8.582  70.401  0.00  0.00    +0.000 C 
ATOM     48  C   UNL     1       3.709   8.417  71.081  0.00  0.00    +0.000 C 
ENDBRANCH  45  46
ENDBRANCH  43  45
ENDBRANCH  15  43
TORSDOF 10
ENDMDL
MODEL 6
REMARK VINA RESULT:      -4.1     12.540     17.889
REMARK  Name = Thapsigargin.pdbqt.pdb
REMARK  10 active torsions:
REMARK  status: ('A' for Active; 'I' for Inactive)
REMARK    1  A    between atoms: O_2  and  C_24
REMARK    2  A    between atoms: C_17  and  O_43
REMARK    3  A    between atoms: C_19  and  C_24
REMARK    4  A    between atoms: C_19  and  O_47
REMARK    5  A    between atoms: C_27  and  C_35
REMARK    6  A    between atoms: C_35  and  C_36
REMARK    7  A    between atoms: C_37  and  C_38
REMARK    8  A    between atoms: C_39  and  C_40
REMARK    9  A    between atoms: C_42  and  O_43
REMARK   10  A    between atoms: C_42  and  C_44
REMARK                            x       y       z     vdW  Elec       q    Type
REMARK                         _______ _______ _______ _____ _____    ______ ____
ROOT
ATOM      1  O   UNL     1      23.200   7.378  60.229  0.00  0.00    +0.000 OA
ATOM      2  O   UNL     1      19.873  10.997  56.688  0.00  0.00    +0.000 OA
ATOM      3  O   UNL     1      19.309   8.657  55.820  0.00  0.00    +0.000 OA
ATOM      4  O   UNL     1      23.428   9.057  55.265  0.00  0.00    +0.000 OA
ATOM      5  O   UNL     1      23.518   6.204  62.164  0.00  0.00    +0.000 OA
ATOM      6  O   UNL     1      18.446   9.026  56.955  0.00  0.00    +0.000 OA
ATOM      7  O   UNL     1      19.315   8.900  53.384  0.00  0.00    +0.000 OA
ATOM      8  O   UNL     1      24.127   6.807  56.072  0.00  0.00    +0.000 OA
ATOM      9  C   UNL     1      21.877  10.418  58.138  0.00  0.00    +0.000 C 
ATOM     10  C   UNL     1      21.667   8.934  61.019  0.00  0.00    +0.000 C 
ATOM     11  C   UNL     1      22.469   8.515  59.909  0.00  0.00    +0.000 C 
ATOM     12  C   UNL     1      20.937  11.280  58.911  0.00  0.00    +0.000 C 
ATOM     13  C   UNL     1      22.559   9.146  58.719  0.00  0.00    +0.000 C 
ATOM     14  C   UNL     1      21.027  10.052  60.914  0.00  0.00    +0.000 C 
ATOM     15  C   UNL     1      20.623  11.212  60.218  0.00  0.00    +0.000 C 
ATOM     16  C   UNL     1      22.616  10.695  56.926  0.00  0.00    +0.000 C 
ATOM     17  C   UNL     1      21.860   8.003  62.145  0.00  0.00    +0.000 C 
ATOM     18  C   UNL     1      23.359   9.551  56.572  0.00  0.00    +0.000 C 
ATOM     19  C   UNL     1      23.451   8.722  57.634  0.00  0.00    +0.000 C 
ATOM     20  C   UNL     1      20.411  10.375  57.872  0.00  0.00    +0.000 C 
ATOM     21  C   UNL     1      22.929   7.086  61.546  0.00  0.00    +0.000 C 
ATOM     22  C   UNL     1      23.885   7.463  57.201  0.00  0.00    +0.000 C 
ATOM     23  C   UNL     1      18.952  10.270  57.513  0.00  0.00    +0.000 C 
ATOM     24  C   UNL     1      18.676   8.981  54.615  0.00  0.00    +0.000 C 
ATOM     25  C   UNL     1      23.469   7.623  55.103  0.00  0.00    +0.000 C 
ATOM     26  C   UNL     1      17.866  11.161  58.130  0.00  0.00    +0.000 C 
ATOM     27  C   UNL     1      22.668   7.044  54.185  0.00  0.00    +0.000 C 
ATOM     28  C   UNL     1      22.630   5.544  53.995  0.00  0.00    +0.000 C 
ATOM     29  C   UNL     1      21.560   7.761  53.651  0.00  0.00    +0.000 C 
ATOM     30  C   UNL     1      20.509   8.316  53.470  0.00  0.00    +0.000 C 
ENDROOT
BRANCH  17  31
ATOM     31  O   UNL     1      22.306   8.693  63.300  0.00  0.00    +0.000 OA
ATOM     32  H   UNL     1      22.268   9.640  63.069  0.00  0.00    +0.000 HD
ENDBRANCH  17  31
BRANCH  17  33
ATOM     33  C   UNL     1      20.610   7.282  62.448  0.00  0.00    +0.000 C 
BRANCH  33  34
ATOM     34  O   UNL     1      19.468   6.647  62.707  0.00  0.00    +0.000 OA
ATOM     35  H   UNL     1      18.711   7.105  62.297  0.00  0.00    +0.000 HD
ENDBRANCH  33  34
ENDBRANCH  17  33
BRANCH  24  36
ATOM     36  C   UNL     1      17.512   9.557  54.595  0.00  0.00    +0.000 C 
BRANCH  36  37
ATOM     37  C   UNL     1      16.156  10.270  54.604  0.00  0.00    +0.000 C 
ATOM     38  C   UNL     1      15.095  10.830  54.575  0.00  0.00    +0.000 C 
BRANCH  38  39
ATOM     39  C   UNL     1      13.741  11.545  54.510  0.00  0.00    +0.000 C 
ATOM     40  C   UNL     1      12.685  12.115  54.468  0.00  0.00    +0.000 C 
BRANCH  40  41
ATOM     41  C   UNL     1      11.343  12.850  54.418  0.00  0.00    +0.000 C 
ATOM     42  C   UNL     1      10.173  13.487  54.373  0.00  0.00    +0.000 C 
ENDBRANCH  40  41
ENDBRANCH  38  39
ENDBRANCH  36  37
ENDBRANCH  24  36
BRANCH  15  43
ATOM     43  O   UNL     1      20.183  12.347  60.908  0.00  0.00    +0.000 OA
BRANCH  43  45
ATOM     44  O   UNL     1      19.919  12.262  63.221  0.00  0.00    +0.000 OA
ATOM     45  C   UNL     1      19.529  12.072  62.077  0.00  0.00    +0.000 C 
BRANCH  45  46
ATOM     46  C   UNL     1      18.245  11.488  61.839  0.00  0.00    +0.000 C 
ATOM     47  C   UNL     1      17.172  10.994  61.644  0.00  0.00    +0.000 C 
ATOM     48  C   UNL     1      15.798  10.373  61.382  0.00  0.00    +0.000 C 
ENDBRANCH  45  46
ENDBRANCH  43  45
ENDBRANCH  15  43
TORSDOF 10
ENDMDL
MODEL 7
REMARK VINA RESULT:      -4.1     13.787     17.429
REMARK  Name = Thapsigargin.pdbqt.pdb
REMARK  10 active torsions:
REMARK  status: ('A' for Active; 'I' for Inactive)
REMARK    1  A    between atoms: O_2  and  C_24
REMARK    2  A    between atoms: C_17  and  O_43
REMARK    3  A    between atoms: C_19  and  C_24
REMARK    4  A    between atoms: C_19  and  O_47
REMARK    5  A    between atoms: C_27  and  C_35
REMARK    6  A    between atoms: C_35  and  C_36
REMARK    7  A    between atoms: C_37  and  C_38
REMARK    8  A    between atoms: C_39  and  C_40
REMARK    9  A    between atoms: C_42  and  O_43
REMARK   10  A    between atoms: C_42  and  C_44
REMARK                            x       y       z     vdW  Elec       q    Type
REMARK                         _______ _______ _______ _____ _____    ______ ____
ROOT
ATOM      1  O   UNL     1      -1.138  -0.326  68.730  0.00  0.00    +0.000 OA
ATOM      2  O   UNL     1       4.420   0.391  66.428  0.00  0.00    +0.000 OA
ATOM      3  O   UNL     1       3.410  -1.436  64.949  0.00  0.00    +0.000 OA
ATOM      4  O   UNL     1       3.363  -3.017  68.813  0.00  0.00    +0.000 OA
ATOM      5  O   UNL     1      -3.337   0.276  68.889  0.00  0.00    +0.000 OA
ATOM      6  O   UNL     1       3.064  -0.094  64.449  0.00  0.00    +0.000 OA
ATOM      7  O   UNL     1       5.218  -3.066  64.685  0.00  0.00    +0.000 OA
ATOM      8  O   UNL     1       1.078  -4.007  68.776  0.00  0.00    +0.000 OA
ATOM      9  C   UNL     1       2.686   0.413  68.284  0.00  0.00    +0.000 C 
ATOM     10  C   UNL     1      -0.281   1.700  67.983  0.00  0.00    +0.000 C 
ATOM     11  C   UNL     1       0.023   0.368  68.413  0.00  0.00    +0.000 C 
ATOM     12  C   UNL     1       2.951   1.811  67.835  0.00  0.00    +0.000 C 
ATOM     13  C   UNL     1       1.262  -0.154  68.546  0.00  0.00    +0.000 C 
ATOM     14  C   UNL     1       0.707   2.508  67.775  0.00  0.00    +0.000 C 
ATOM     15  C   UNL     1       2.079   2.829  67.712  0.00  0.00    +0.000 C 
ATOM     16  C   UNL     1       3.571  -0.557  68.887  0.00  0.00    +0.000 C 
ATOM     17  C   UNL     1      -1.741   1.900  67.995  0.00  0.00    +0.000 C 
ATOM     18  C   UNL     1       2.855  -1.750  69.115  0.00  0.00    +0.000 C 
ATOM     19  C   UNL     1       1.529  -1.501  69.061  0.00  0.00    +0.000 C 
ATOM     20  C   UNL     1       3.086   0.698  66.877  0.00  0.00    +0.000 C 
ATOM     21  C   UNL     1      -2.185   0.552  68.569  0.00  0.00    +0.000 C 
ATOM     22  C   UNL     1       0.836  -2.713  68.951  0.00  0.00    +0.000 C 
ATOM     23  C   UNL     1       3.501   0.876  65.440  0.00  0.00    +0.000 C 
ATOM     24  C   UNL     1       4.561  -1.902  64.304  0.00  0.00    +0.000 C 
ATOM     25  C   UNL     1       2.429  -4.001  68.318  0.00  0.00    +0.000 C 
ATOM     26  C   UNL     1       3.917   2.228  64.844  0.00  0.00    +0.000 C 
ATOM     27  C   UNL     1       2.765  -4.738  67.238  0.00  0.00    +0.000 C 
ATOM     28  C   UNL     1       1.817  -5.754  66.642  0.00  0.00    +0.000 C 
ATOM     29  C   UNL     1       3.831  -4.319  66.392  0.00  0.00    +0.000 C 
ATOM     30  C   UNL     1       4.534  -3.760  65.593  0.00  0.00    +0.000 C 
ENDROOT
BRANCH  17  31
ATOM     31  O   UNL     1      -2.093   2.996  68.820  0.00  0.00    +0.000 OA
ATOM     32  H   UNL     1      -2.433   2.604  69.646  0.00  0.00    +0.000 HD
ENDBRANCH  17  31
BRANCH  17  33
ATOM     33  C   UNL     1      -2.249   2.121  66.629  0.00  0.00    +0.000 C 
BRANCH  33  34
ATOM     34  O   UNL     1      -2.731   2.317  65.403  0.00  0.00    +0.000 OA
ATOM     35  H   UNL     1      -2.010   2.447  64.758  0.00  0.00    +0.000 HD
ENDBRANCH  33  34
ENDBRANCH  17  33
BRANCH  24  36
ATOM     36  C   UNL     1       5.191  -1.175  63.431  0.00  0.00    +0.000 C 
BRANCH  36  37
ATOM     37  C   UNL     1       5.976  -0.326  62.426  0.00  0.00    +0.000 C 
ATOM     38  C   UNL     1       6.609   0.355  61.667  0.00  0.00    +0.000 C 
BRANCH  38  39
ATOM     39  C   UNL     1       7.431   1.235  60.720  0.00  0.00    +0.000 C 
ATOM     40  C   UNL     1       8.077   1.913  59.969  0.00  0.00    +0.000 C 
BRANCH  40  41
ATOM     41  C   UNL     1       8.901   2.772  59.005  0.00  0.00    +0.000 C 
ATOM     42  C   UNL     1       9.620   3.520  58.168  0.00  0.00    +0.000 C 
ENDBRANCH  40  41
ENDBRANCH  38  39
ENDBRANCH  36  37
ENDBRANCH  24  36
BRANCH  15  43
ATOM     43  O   UNL     1       2.512   4.156  67.810  0.00  0.00    +0.000 OA
BRANCH  43  45
ATOM     44  O   UNL     1       1.643   4.887  65.776  0.00  0.00    +0.000 OA
ATOM     45  C   UNL     1       1.861   5.020  66.972  0.00  0.00    +0.000 C 
BRANCH  45  46
ATOM     46  C   UNL     1       1.424   6.196  67.661  0.00  0.00    +0.000 C 
ATOM     47  C   UNL     1       1.060   7.177  68.242  0.00  0.00    +0.000 C 
ATOM     48  C   UNL     1       0.587   8.435  68.974  0.00  0.00    +0.000 C 
ENDBRANCH  45  46
ENDBRANCH  43  45
ENDBRANCH  15  43
TORSDOF 10
ENDMDL
MODEL 8
REMARK VINA RESULT:      -4.1      7.004     11.166
REMARK  Name = Thapsigargin.pdbqt.pdb
REMARK  10 active torsions:
REMARK  status: ('A' for Active; 'I' for Inactive)
REMARK    1  A    between atoms: O_2  and  C_24
REMARK    2  A    between atoms: C_17  and  O_43
REMARK    3  A    between atoms: C_19  and  C_24
REMARK    4  A    between atoms: C_19  and  O_47
REMARK    5  A    between atoms: C_27  and  C_35
REMARK    6  A    between atoms: C_35  and  C_36
REMARK    7  A    between atoms: C_37  and  C_38
REMARK    8  A    between atoms: C_39  and  C_40
REMARK    9  A    between atoms: C_42  and  O_43
REMARK   10  A    between atoms: C_42  and  C_44
REMARK                            x       y       z     vdW  Elec       q    Type
REMARK                         _______ _______ _______ _____ _____    ______ ____
ROOT
ATOM      1  O   UNL     1      17.416  10.649  64.239  0.00  0.00    +0.000 OA
ATOM      2  O   UNL     1      20.898   5.737  64.908  0.00  0.00    +0.000 OA
ATOM      3  O   UNL     1      18.526   4.797  65.092  0.00  0.00    +0.000 OA
ATOM      4  O   UNL     1      18.850   7.547  68.218  0.00  0.00    +0.000 OA
ATOM      5  O   UNL     1      16.333  12.179  62.930  0.00  0.00    +0.000 OA
ATOM      6  O   UNL     1      18.960   4.875  63.686  0.00  0.00    +0.000 OA
ATOM      7  O   UNL     1      18.650   3.206  66.949  0.00  0.00    +0.000 OA
ATOM      8  O   UNL     1      16.633   8.653  67.963  0.00  0.00    +0.000 OA
ATOM      9  C   UNL     1      20.367   8.214  65.093  0.00  0.00    +0.000 C 
ATOM     10  C   UNL     1      19.027   9.968  62.710  0.00  0.00    +0.000 C 
ATOM     11  C   UNL     1      18.545   9.861  64.055  0.00  0.00    +0.000 C 
ATOM     12  C   UNL     1      21.276   7.987  63.933  0.00  0.00    +0.000 C 
ATOM     13  C   UNL     1      19.116   9.139  65.042  0.00  0.00    +0.000 C 
ATOM     14  C   UNL     1      20.146   9.390  62.422  0.00  0.00    +0.000 C 
ATOM     15  C   UNL     1      21.275   8.603  62.736  0.00  0.00    +0.000 C 
ATOM     16  C   UNL     1      20.576   7.977  66.504  0.00  0.00    +0.000 C 
ATOM     17  C   UNL     1      18.149  10.870  61.943  0.00  0.00    +0.000 C 
ATOM     18  C   UNL     1      19.407   8.335  67.206  0.00  0.00    +0.000 C 
ATOM     19  C   UNL     1      18.630   9.117  66.426  0.00  0.00    +0.000 C 
ATOM     20  C   UNL     1      20.329   6.931  64.336  0.00  0.00    +0.000 C 
ATOM     21  C   UNL     1      17.191  11.310  63.054  0.00  0.00    +0.000 C 
ATOM     22  C   UNL     1      17.346   9.192  66.981  0.00  0.00    +0.000 C 
ATOM     23  C   UNL     1      20.223   5.594  63.650  0.00  0.00    +0.000 C 
ATOM     24  C   UNL     1      18.799   3.524  65.605  0.00  0.00    +0.000 C 
ATOM     25  C   UNL     1      17.408   7.505  68.303  0.00  0.00    +0.000 C 
ATOM     26  C   UNL     1      21.157   5.153  62.515  0.00  0.00    +0.000 C 
ATOM     27  C   UNL     1      16.796   6.311  68.449  0.00  0.00    +0.000 C 
ATOM     28  C   UNL     1      15.289   6.193  68.501  0.00  0.00    +0.000 C 
ATOM     29  C   UNL     1      17.499   5.107  68.162  0.00  0.00    +0.000 C 
ATOM     30  C   UNL     1      18.058   4.180  67.638  0.00  0.00    +0.000 C 
ENDROOT
BRANCH  17  31
ATOM     31  O   UNL     1      18.889  11.945  61.392  0.00  0.00    +0.000 OA
ATOM     32  H   UNL     1      18.535  12.072  60.492  0.00  0.00    +0.000 HD
ENDBRANCH  17  31
BRANCH  17  33
ATOM     33  C   UNL     1      17.459  10.136  60.867  0.00  0.00    +0.000 C 
BRANCH  33  34
ATOM     34  O   UNL     1      16.856   9.462  59.889  0.00  0.00    +0.000 OA
ATOM     35  H   UNL     1      16.379   8.686  60.240  0.00  0.00    +0.000 HD
ENDBRANCH  33  34
ENDBRANCH  17  33
BRANCH  24  36
ATOM     36  C   UNL     1      19.387   2.615  64.886  0.00  0.00    +0.000 C 
BRANCH  36  37
ATOM     37  C   UNL     1      20.123   1.551  64.066  0.00  0.00    +0.000 C 
ATOM     38  C   UNL     1      20.673   0.694  63.430  0.00  0.00    +0.000 C 
BRANCH  38  39
ATOM     39  C   UNL     1      21.354  -0.417  62.624  0.00  0.00    +0.000 C 
ATOM     40  C   UNL     1      21.892  -1.277  61.983  0.00  0.00    +0.000 C 
BRANCH  40  41
ATOM     41  C   UNL     1      22.584  -2.369  61.161  0.00  0.00    +0.000 C 
ATOM     42  C   UNL     1      23.188  -3.318  60.448  0.00  0.00    +0.000 C 
ENDBRANCH  40  41
ENDBRANCH  38  39
ENDBRANCH  36  37
ENDBRANCH  24  36
BRANCH  15  43
ATOM     43  O   UNL     1      22.448   8.695  61.978  0.00  0.00    +0.000 OA
BRANCH  43  45
ATOM     44  O   UNL     1      21.892   9.762  59.984  0.00  0.00    +0.000 OA
ATOM     45  C   UNL     1      22.236   8.782  60.630  0.00  0.00    +0.000 C 
BRANCH  45  46
ATOM     46  C   UNL     1      22.461   7.528  59.977  0.00  0.00    +0.000 C 
ATOM     47  C   UNL     1      22.646   6.476  59.437  0.00  0.00    +0.000 C 
ATOM     48  C   UNL     1      22.893   5.138  58.736  0.00  0.00    +0.000 C 
ENDBRANCH  45  46
ENDBRANCH  43  45
ENDBRANCH  15  43
TORSDOF 10
ENDMDL
MODEL 9
REMARK VINA RESULT:      -4.1      3.323      7.520
REMARK  Name = Thapsigargin.pdbqt.pdb
REMARK  10 active torsions:
REMARK  status: ('A' for Active; 'I' for Inactive)
REMARK    1  A    between atoms: O_2  and  C_24
REMARK    2  A    between atoms: C_17  and  O_43
REMARK    3  A    between atoms: C_19  and  C_24
REMARK    4  A    between atoms: C_19  and  O_47
REMARK    5  A    between atoms: C_27  and  C_35
REMARK    6  A    between atoms: C_35  and  C_36
REMARK    7  A    between atoms: C_37  and  C_38
REMARK    8  A    between atoms: C_39  and  C_40
REMARK    9  A    between atoms: C_42  and  O_43
REMARK   10  A    between atoms: C_42  and  C_44
REMARK                            x       y       z     vdW  Elec       q    Type
REMARK                         _______ _______ _______ _____ _____    ______ ____
ROOT
ATOM      1  O   UNL     1      20.420   4.324  68.148  0.00  0.00    +0.000 OA
ATOM      2  O   UNL     1      14.937   2.379  69.837  0.00  0.00    +0.000 OA
ATOM      3  O   UNL     1      16.477   1.406  71.633  0.00  0.00    +0.000 OA
ATOM      4  O   UNL     1      17.829  -0.235  68.040  0.00  0.00    +0.000 OA
ATOM      5  O   UNL     1      22.058   5.918  68.101  0.00  0.00    +0.000 OA
ATOM      6  O   UNL     1      16.061   2.777  71.975  0.00  0.00    +0.000 OA
ATOM      7  O   UNL     1      15.658  -0.878  71.959  0.00  0.00    +0.000 OA
ATOM      8  O   UNL     1      20.277   0.037  68.411  0.00  0.00    +0.000 OA
ATOM      9  C   UNL     1      16.692   3.112  68.154  0.00  0.00    +0.000 C 
ATOM     10  C   UNL     1      18.599   5.714  68.535  0.00  0.00    +0.000 C 
ATOM     11  C   UNL     1      19.037   4.377  68.265  0.00  0.00    +0.000 C 
ATOM     12  C   UNL     1      15.728   4.226  68.383  0.00  0.00    +0.000 C 
ATOM     13  C   UNL     1      18.235   3.303  68.097  0.00  0.00    +0.000 C 
ATOM     14  C   UNL     1      17.327   5.942  68.544  0.00  0.00    +0.000 C 
ATOM     15  C   UNL     1      15.976   5.548  68.443  0.00  0.00    +0.000 C 
ATOM     16  C   UNL     1      16.478   1.788  67.613  0.00  0.00    +0.000 C 
ATOM     17  C   UNL     1      19.769   6.606  68.623  0.00  0.00    +0.000 C 
ATOM     18  C   UNL     1      17.703   1.091  67.613  0.00  0.00    +0.000 C 
ATOM     19  C   UNL     1      18.723   1.965  67.749  0.00  0.00    +0.000 C 
ATOM     20  C   UNL     1      16.009   3.269  69.469  0.00  0.00    +0.000 C 
ATOM     21  C   UNL     1      20.882   5.613  68.279  0.00  0.00    +0.000 C 
ATOM     22  C   UNL     1      19.890   1.265  68.083  0.00  0.00    +0.000 C 
ATOM     23  C   UNL     1      15.359   3.327  70.827  0.00  0.00    +0.000 C 
ATOM     24  C   UNL     1      15.613   0.483  72.233  0.00  0.00    +0.000 C 
ATOM     25  C   UNL     1      19.039  -0.589  68.744  0.00  0.00    +0.000 C 
ATOM     26  C   UNL     1      14.264   4.338  71.195  0.00  0.00    +0.000 C 
ATOM     27  C   UNL     1      18.948  -1.311  69.881  0.00  0.00    +0.000 C 
ATOM     28  C   UNL     1      20.172  -1.679  70.690  0.00  0.00    +0.000 C 
ATOM     29  C   UNL     1      17.703  -1.410  70.566  0.00  0.00    +0.000 C 
ATOM     30  C   UNL     1      16.713  -1.212  71.217  0.00  0.00    +0.000 C 
ENDROOT
BRANCH  17  31
ATOM     31  O   UNL     1      19.665   7.667  67.690  0.00  0.00    +0.000 OA
ATOM     32  H   UNL     1      18.710   7.776  67.522  0.00  0.00    +0.000 HD
ENDBRANCH  17  31
BRANCH  17  33
ATOM     33  C   UNL     1      19.907   7.152  69.985  0.00  0.00    +0.000 C 
BRANCH  33  34
ATOM     34  O   UNL     1      20.012   7.633  71.223  0.00  0.00    +0.000 OA
ATOM     35  H   UNL     1      19.307   8.281  71.409  0.00  0.00    +0.000 HD
ENDBRANCH  33  34
ENDBRANCH  17  33
BRANCH  24  36
ATOM     36  C   UNL     1      14.594   0.869  72.941  0.00  0.00    +0.000 C 
BRANCH  36  37
ATOM     37  C   UNL     1      13.363   1.295  73.747  0.00  0.00    +0.000 C 
ATOM     38  C   UNL     1      12.417   1.657  74.392  0.00  0.00    +0.000 C 
BRANCH  38  39
ATOM     39  C   UNL     1      11.225   2.142  75.223  0.00  0.00    +0.000 C 
ATOM     40  C   UNL     1      10.299   2.525  75.884  0.00  0.00    +0.000 C 
BRANCH  40  41
ATOM     41  C   UNL     1       9.124   3.018  76.734  0.00  0.00    +0.000 C 
ATOM     42  C   UNL     1       8.101   3.449  77.471  0.00  0.00    +0.000 C 
ENDBRANCH  40  41
ENDBRANCH  38  39
ENDBRANCH  36  37
ENDBRANCH  24  36
BRANCH  15  43
ATOM     43  O   UNL     1      14.978   6.477  68.127  0.00  0.00    +0.000 OA
BRANCH  43  45
ATOM     44  O   UNL     1      15.701   8.683  67.931  0.00  0.00    +0.000 OA
ATOM     45  C   UNL     1      15.237   7.747  68.566  0.00  0.00    +0.000 C 
BRANCH  45  46
ATOM     46  C   UNL     1      14.902   7.906  69.948  0.00  0.00    +0.000 C 
ATOM     47  C   UNL     1      14.627   8.036  71.106  0.00  0.00    +0.000 C 
ATOM     48  C   UNL     1      14.260   8.207  72.582  0.00  0.00    +0.000 C 
ENDBRANCH  45  46
ENDBRANCH  43  45
ENDBRANCH  15  43
TORSDOF 10
ENDMDL
