MODEL 1
REMARK VINA RESULT:      -3.7      0.000      0.000
REMARK  Name = Thioguanosine.pdbqt.pdb
REMARK  5 active torsions:
REMARK  status: ('A' for Active; 'I' for Inactive)
REMARK    1  A    between atoms: N_2  and  C1*_12
REMARK    2  A    between atoms: C4*_14  and  C5*_17
REMARK    3  A    between atoms: C3*_15  and  O3*_20
REMARK    4  A    between atoms: C2*_16  and  O2*_22
REMARK    5  A    between atoms: C5*_17  and  O5*_18
REMARK                            x       y       z     vdW  Elec       q    Type
REMARK                         _______ _______ _______ _____ _____    ______ ____
ROOT
ATOM      1  S   UNL     1      16.702  12.291  57.622  0.00  0.00    +0.000 S 
ATOM      2  N   UNL     1      17.981  10.025  61.773  0.00  0.00    +0.000 N 
ATOM      3  N   UNL     1      19.006   9.107  59.732  0.00  0.00    +0.000 N 
ATOM      4  N   UNL     1      16.823  11.680  60.750  0.00  0.00    +0.000 NA
ATOM      5  N   UNL     1      18.384  10.144  57.683  0.00  0.00    +0.000 NA
ATOM      6  C   UNL     1      18.228   9.958  60.425  0.00  0.00    +0.000 A 
ATOM      7  C   UNL     1      17.131  11.113  61.900  0.00  0.00    +0.000 A 
ATOM      8  C   UNL     1      17.508  10.950  59.809  0.00  0.00    +0.000 A 
ATOM      9  C   UNL     1      17.578  11.068  58.352  0.00  0.00    +0.000 A 
ATOM     10  C   UNL     1      19.035   9.251  58.371  0.00  0.00    +0.000 A 
ATOM     11  H   UNL     1      19.515   8.343  60.170  0.00  0.00    +0.000 HD
ATOM     12  N   UNL     1      19.828   8.347  57.748  0.00  0.00    +0.000 N 
ATOM     13  H   UNL     1      20.743   8.237  58.164  0.00  0.00    +0.000 HD
ATOM     14  H   UNL     1      19.910   8.569  56.758  0.00  0.00    +0.000 HD
ENDROOT
BRANCH   2  15
ATOM     15  C1* UNL     1      18.417   9.227  62.812  0.00  0.00    +0.000 A 
ATOM     16  O4* UNL     1      19.279   8.125  62.598  0.00  0.00    +0.000 OA
ATOM     17  C4* UNL     1      19.540   7.495  63.827  0.00  0.00    +0.000 A 
ATOM     18  C3* UNL     1      18.838   8.210  64.854  0.00  0.00    +0.000 A 
ATOM     19  C2* UNL     1      18.147   9.294  64.228  0.00  0.00    +0.000 A 
BRANCH  18  20
ATOM     20  O3* UNL     1      18.319   7.613  65.971  0.00  0.00    +0.000 OA
ATOM     21  H3* UNL     1      18.790   6.787  66.188  0.00  0.00    +0.000 HD
ENDBRANCH  18  20
BRANCH  19  22
ATOM     22  O2* UNL     1      16.969   9.762  64.741  0.00  0.00    +0.000 OA
ATOM     23  H2* UNL     1      16.914  10.729  64.597  0.00  0.00    +0.000 HD
ENDBRANCH  19  22
BRANCH  17  24
ATOM     24  C5* UNL     1      20.154   6.233  63.921  0.00  0.00    +0.000 C 
BRANCH  24  25
ATOM     25  O5* UNL     1      20.716   5.031  63.999  0.00  0.00    +0.000 OA
ATOM     26  H5* UNL     1      20.779   4.742  64.926  0.00  0.00    +0.000 HD
ENDBRANCH  24  25
ENDBRANCH  17  24
ENDBRANCH   2  15
TORSDOF 5
ENDMDL
MODEL 2
REMARK VINA RESULT:      -3.3     12.559     14.798
REMARK  Name = Thioguanosine.pdbqt.pdb
REMARK  5 active torsions:
REMARK  status: ('A' for Active; 'I' for Inactive)
REMARK    1  A    between atoms: N_2  and  C1*_12
REMARK    2  A    between atoms: C4*_14  and  C5*_17
REMARK    3  A    between atoms: C3*_15  and  O3*_20
REMARK    4  A    between atoms: C2*_16  and  O2*_22
REMARK    5  A    between atoms: C5*_17  and  O5*_18
REMARK                            x       y       z     vdW  Elec       q    Type
REMARK                         _______ _______ _______ _____ _____    ______ ____
ROOT
ATOM      1  S   UNL     1       7.877  10.008  76.446  0.00  0.00    +0.000 S 
ATOM      2  N   UNL     1      10.214  11.244  72.322  0.00  0.00    +0.000 N 
ATOM      3  N   UNL     1       7.785  10.923  72.082  0.00  0.00    +0.000 N 
ATOM      4  N   UNL     1      10.304  10.824  74.545  0.00  0.00    +0.000 NA
ATOM      5  N   UNL     1       6.609  10.278  74.046  0.00  0.00    +0.000 NA
ATOM      6  C   UNL     1       8.945  10.963  72.763  0.00  0.00    +0.000 A 
ATOM      7  C   UNL     1      10.988  11.161  73.469  0.00  0.00    +0.000 A 
ATOM      8  C   UNL     1       9.010  10.690  74.105  0.00  0.00    +0.000 A 
ATOM      9  C   UNL     1       7.778  10.326  74.808  0.00  0.00    +0.000 A 
ATOM     10  C   UNL     1       6.661  10.571  72.779  0.00  0.00    +0.000 A 
ATOM     11  H   UNL     1       7.727  11.085  71.080  0.00  0.00    +0.000 HD
ATOM     12  N   UNL     1       5.540  10.538  72.019  0.00  0.00    +0.000 N 
ATOM     13  H   UNL     1       5.414  11.348  71.427  0.00  0.00    +0.000 HD
ATOM     14  H   UNL     1       4.720  10.390  72.602  0.00  0.00    +0.000 HD
ENDROOT
BRANCH   2  15
ATOM     15  C1* UNL     1      10.689  11.529  71.057  0.00  0.00    +0.000 A 
ATOM     16  O4* UNL     1       9.819  11.804  69.975  0.00  0.00    +0.000 OA
ATOM     17  C4* UNL     1      10.578  12.042  68.818  0.00  0.00    +0.000 A 
ATOM     18  C3* UNL     1      11.966  11.925  69.162  0.00  0.00    +0.000 A 
ATOM     19  C2* UNL     1      12.039  11.617  70.556  0.00  0.00    +0.000 A 
BRANCH  18  20
ATOM     20  O3* UNL     1      12.922  11.457  68.300  0.00  0.00    +0.000 OA
ATOM     21  H3* UNL     1      13.279  12.170  67.739  0.00  0.00    +0.000 HD
ENDBRANCH  18  20
BRANCH  19  22
ATOM     22  O2* UNL     1      13.069  10.867  71.054  0.00  0.00    +0.000 OA
ATOM     23  H2* UNL     1      12.755  10.359  71.830  0.00  0.00    +0.000 HD
ENDBRANCH  19  22
BRANCH  17  24
ATOM     24  C5* UNL     1      10.010  12.097  67.532  0.00  0.00    +0.000 C 
BRANCH  24  25
ATOM     25  O5* UNL     1       9.460  12.131  66.322  0.00  0.00    +0.000 OA
ATOM     26  H5* UNL     1       8.674  12.705  66.320  0.00  0.00    +0.000 HD
ENDBRANCH  24  25
ENDBRANCH  17  24
ENDBRANCH   2  15
TORSDOF 5
ENDMDL
MODEL 3
REMARK VINA RESULT:      -3.2     13.338     13.817
REMARK  Name = Thioguanosine.pdbqt.pdb
REMARK  5 active torsions:
REMARK  status: ('A' for Active; 'I' for Inactive)
REMARK    1  A    between atoms: N_2  and  C1*_12
REMARK    2  A    between atoms: C4*_14  and  C5*_17
REMARK    3  A    between atoms: C3*_15  and  O3*_20
REMARK    4  A    between atoms: C2*_16  and  O2*_22
REMARK    5  A    between atoms: C5*_17  and  O5*_18
REMARK                            x       y       z     vdW  Elec       q    Type
REMARK                         _______ _______ _______ _____ _____    ______ ____
ROOT
ATOM      1  S   UNL     1       5.587   4.357  57.525  0.00  0.00    +0.000 S 
ATOM      2  N   UNL     1       8.419   0.378  57.143  0.00  0.00    +0.000 N 
ATOM      3  N   UNL     1       9.581   2.410  57.906  0.00  0.00    +0.000 N 
ATOM      4  N   UNL     1       6.364   1.314  56.970  0.00  0.00    +0.000 NA
ATOM      5  N   UNL     1       8.260   4.381  58.067  0.00  0.00    +0.000 NA
ATOM      6  C   UNL     1       8.512   1.699  57.502  0.00  0.00    +0.000 A 
ATOM      7  C   UNL     1       7.074   0.210  56.850  0.00  0.00    +0.000 A 
ATOM      8  C   UNL     1       7.269   2.265  57.376  0.00  0.00    +0.000 A 
ATOM      9  C   UNL     1       7.112   3.690  57.674  0.00  0.00    +0.000 A 
ATOM     10  C   UNL     1       9.388   3.739  58.166  0.00  0.00    +0.000 A 
ATOM     11  H   UNL     1      10.516   2.014  57.967  0.00  0.00    +0.000 HD
ATOM     12  N   UNL     1      10.515   4.385  58.551  0.00  0.00    +0.000 N 
ATOM     13  H   UNL     1      11.048   3.905  59.264  0.00  0.00    +0.000 HD
ATOM     14  H   UNL     1      10.297   5.334  58.846  0.00  0.00    +0.000 HD
ENDROOT
BRANCH   2  15
ATOM     15  C1* UNL     1       9.386  -0.603  57.048  0.00  0.00    +0.000 A 
ATOM     16  O4* UNL     1       9.800  -1.356  58.173  0.00  0.00    +0.000 OA
ATOM     17  C4* UNL     1      10.798  -2.263  57.782  0.00  0.00    +0.000 A 
ATOM     18  C3* UNL     1      11.026  -2.098  56.375  0.00  0.00    +0.000 A 
ATOM     19  C2* UNL     1      10.142  -1.073  55.914  0.00  0.00    +0.000 A 
BRANCH  18  20
ATOM     20  O3* UNL     1      12.247  -2.276  55.781  0.00  0.00    +0.000 OA
ATOM     21  H3* UNL     1      12.819  -2.865  56.306  0.00  0.00    +0.000 HD
ENDBRANCH  18  20
BRANCH  19  22
ATOM     22  O2* UNL     1      10.491  -0.268  54.864  0.00  0.00    +0.000 OA
ATOM     23  H2* UNL     1      10.090  -0.615  54.042  0.00  0.00    +0.000 HD
ENDBRANCH  19  22
BRANCH  17  24
ATOM     24  C5* UNL     1      11.586  -2.975  58.705  0.00  0.00    +0.000 C 
BRANCH  24  25
ATOM     25  O5* UNL     1      12.348  -3.647  59.562  0.00  0.00    +0.000 OA
ATOM     26  H5* UNL     1      11.820  -3.957  60.319  0.00  0.00    +0.000 HD
ENDBRANCH  24  25
ENDBRANCH  17  24
ENDBRANCH   2  15
TORSDOF 5
ENDMDL
MODEL 4
REMARK VINA RESULT:      -3.2      2.925      4.873
REMARK  Name = Thioguanosine.pdbqt.pdb
REMARK  5 active torsions:
REMARK  status: ('A' for Active; 'I' for Inactive)
REMARK    1  A    between atoms: N_2  and  C1*_12
REMARK    2  A    between atoms: C4*_14  and  C5*_17
REMARK    3  A    between atoms: C3*_15  and  O3*_20
REMARK    4  A    between atoms: C2*_16  and  O2*_22
REMARK    5  A    between atoms: C5*_17  and  O5*_18
REMARK                            x       y       z     vdW  Elec       q    Type
REMARK                         _______ _______ _______ _____ _____    ______ ____
ROOT
ATOM      1  S   UNL     1      20.963   9.565  54.668  0.00  0.00    +0.000 S 
ATOM      2  N   UNL     1      18.671  10.112  58.963  0.00  0.00    +0.000 N 
ATOM      3  N   UNL     1      17.216  10.262  56.983  0.00  0.00    +0.000 N 
ATOM      4  N   UNL     1      20.593   9.718  57.832  0.00  0.00    +0.000 NA
ATOM      5  N   UNL     1      18.286  10.047  54.870  0.00  0.00    +0.000 NA
ATOM      6  C   UNL     1      18.389  10.094  57.620  0.00  0.00    +0.000 A 
ATOM      7  C   UNL     1      20.032   9.856  59.017  0.00  0.00    +0.000 A 
ATOM      8  C   UNL     1      19.560   9.875  56.941  0.00  0.00    +0.000 A 
ATOM      9  C   UNL     1      19.527   9.844  55.477  0.00  0.00    +0.000 A 
ATOM     10  C   UNL     1      17.235  10.232  55.615  0.00  0.00    +0.000 A 
ATOM     11  H   UNL     1      16.346  10.463  57.472  0.00  0.00    +0.000 HD
ATOM     12  N   UNL     1      16.018  10.425  55.052  0.00  0.00    +0.000 N 
ATOM     13  H   UNL     1      15.277   9.871  55.460  0.00  0.00    +0.000 HD
ATOM     14  H   UNL     1      16.064  10.275  54.046  0.00  0.00    +0.000 HD
ENDROOT
BRANCH   2  15
ATOM     15  C1* UNL     1      17.857  10.345  60.054  0.00  0.00    +0.000 A 
ATOM     16  O4* UNL     1      16.941  11.422  60.088  0.00  0.00    +0.000 OA
ATOM     17  C4* UNL     1      16.265  11.418  61.320  0.00  0.00    +0.000 A 
ATOM     18  C3* UNL     1      16.751  10.311  62.093  0.00  0.00    +0.000 A 
ATOM     19  C2* UNL     1      17.734   9.635  61.304  0.00  0.00    +0.000 A 
BRANCH  18  20
ATOM     20  O3* UNL     1      16.854  10.329  63.458  0.00  0.00    +0.000 OA
ATOM     21  H3* UNL     1      16.626  11.204  63.823  0.00  0.00    +0.000 HD
ENDBRANCH  18  20
BRANCH  19  22
ATOM     22  O2* UNL     1      18.780   8.983  61.898  0.00  0.00    +0.000 OA
ATOM     23  H2* UNL     1      18.440   8.212  62.396  0.00  0.00    +0.000 HD
ENDBRANCH  19  22
BRANCH  17  24
ATOM     24  C5* UNL     1      15.476  12.497  61.760  0.00  0.00    +0.000 C 
BRANCH  24  25
ATOM     25  O5* UNL     1      14.715  13.510  62.160  0.00  0.00    +0.000 OA
ATOM     26  H5* UNL     1      14.852  13.688  63.108  0.00  0.00    +0.000 HD
ENDBRANCH  24  25
ENDBRANCH  17  24
ENDBRANCH   2  15
TORSDOF 5
ENDMDL
MODEL 5
REMARK VINA RESULT:      -3.1      3.026      4.610
REMARK  Name = Thioguanosine.pdbqt.pdb
REMARK  5 active torsions:
REMARK  status: ('A' for Active; 'I' for Inactive)
REMARK    1  A    between atoms: N_2  and  C1*_12
REMARK    2  A    between atoms: C4*_14  and  C5*_17
REMARK    3  A    between atoms: C3*_15  and  O3*_20
REMARK    4  A    between atoms: C2*_16  and  O2*_22
REMARK    5  A    between atoms: C5*_17  and  O5*_18
REMARK                            x       y       z     vdW  Elec       q    Type
REMARK                         _______ _______ _______ _____ _____    ______ ____
ROOT
ATOM      1  S   UNL     1      16.877  10.814  52.874  0.00  0.00    +0.000 S 
ATOM      2  N   UNL     1      18.562   9.644  57.323  0.00  0.00    +0.000 N 
ATOM      3  N   UNL     1      16.869  11.430  57.291  0.00  0.00    +0.000 N 
ATOM      4  N   UNL     1      18.574   9.270  55.090  0.00  0.00    +0.000 NA
ATOM      5  N   UNL     1      16.049  12.067  55.152  0.00  0.00    +0.000 NA
ATOM      6  C   UNL     1      17.666  10.501  56.735  0.00  0.00    +0.000 A 
ATOM      7  C   UNL     1      19.064   8.910  56.259  0.00  0.00    +0.000 A 
ATOM      8  C   UNL     1      17.693  10.283  55.381  0.00  0.00    +0.000 A 
ATOM      9  C   UNL     1      16.838  11.104  54.520  0.00  0.00    +0.000 A 
ATOM     10  C   UNL     1      16.093  12.178  56.448  0.00  0.00    +0.000 A 
ATOM     11  H   UNL     1      16.867  11.630  58.289  0.00  0.00    +0.000 HD
ATOM     12  N   UNL     1      15.333  13.101  57.085  0.00  0.00    +0.000 N 
ATOM     13  H   UNL     1      14.833  12.746  57.889  0.00  0.00    +0.000 HD
ATOM     14  H   UNL     1      14.691  13.545  56.432  0.00  0.00    +0.000 HD
ENDROOT
BRANCH   2  15
ATOM     15  C1* UNL     1      18.945   9.503  58.642  0.00  0.00    +0.000 A 
ATOM     16  O4* UNL     1      20.254   9.104  59.003  0.00  0.00    +0.000 OA
ATOM     17  C4* UNL     1      20.348   9.032  60.403  0.00  0.00    +0.000 A 
ATOM     18  C3* UNL     1      19.076   9.399  60.956  0.00  0.00    +0.000 A 
ATOM     19  C2* UNL     1      18.204   9.703  59.863  0.00  0.00    +0.000 A 
BRANCH  18  20
ATOM     20  O3* UNL     1      18.574   8.869  62.114  0.00  0.00    +0.000 OA
ATOM     21  H3* UNL     1      18.989   8.012  62.326  0.00  0.00    +0.000 HD
ENDBRANCH  18  20
BRANCH  19  22
ATOM     22  O2* UNL     1      16.857   9.486  59.963  0.00  0.00    +0.000 OA
ATOM     23  H2* UNL     1      16.506   9.977  60.733  0.00  0.00    +0.000 HD
ENDBRANCH  19  22
BRANCH  17  24
ATOM     24  C5* UNL     1      21.434   8.429  61.064  0.00  0.00    +0.000 C 
BRANCH  24  25
ATOM     25  O5* UNL     1      22.445   7.850  61.703  0.00  0.00    +0.000 OA
ATOM     26  H5* UNL     1      22.246   7.765  62.653  0.00  0.00    +0.000 HD
ENDBRANCH  24  25
ENDBRANCH  17  24
ENDBRANCH   2  15
TORSDOF 5
ENDMDL
MODEL 6
REMARK VINA RESULT:      -3.1      6.225      8.280
REMARK  Name = Thioguanosine.pdbqt.pdb
REMARK  5 active torsions:
REMARK  status: ('A' for Active; 'I' for Inactive)
REMARK    1  A    between atoms: N_2  and  C1*_12
REMARK    2  A    between atoms: C4*_14  and  C5*_17
REMARK    3  A    between atoms: C3*_15  and  O3*_20
REMARK    4  A    between atoms: C2*_16  and  O2*_22
REMARK    5  A    between atoms: C5*_17  and  O5*_18
REMARK                            x       y       z     vdW  Elec       q    Type
REMARK                         _______ _______ _______ _____ _____    ______ ____
ROOT
ATOM      1  S   UNL     1      17.804   8.276  48.475  0.00  0.00    +0.000 S 
ATOM      2  N   UNL     1      18.307   9.314  53.236  0.00  0.00    +0.000 N 
ATOM      3  N   UNL     1      19.043   7.058  52.583  0.00  0.00    +0.000 N 
ATOM      4  N   UNL     1      17.699   9.990  51.163  0.00  0.00    +0.000 NA
ATOM      5  N   UNL     1      18.779   6.487  50.289  0.00  0.00    +0.000 NA
ATOM      6  C   UNL     1      18.540   8.286  52.359  0.00  0.00    +0.000 A 
ATOM      7  C   UNL     1      17.812  10.329  52.432  0.00  0.00    +0.000 A 
ATOM      8  C   UNL     1      18.151   8.695  51.109  0.00  0.00    +0.000 A 
ATOM      9  C   UNL     1      18.272   7.754  49.993  0.00  0.00    +0.000 A 
ATOM     10  C   UNL     1      19.130   6.211  51.512  0.00  0.00    +0.000 A 
ATOM     11  H   UNL     1      19.299   6.727  53.510  0.00  0.00    +0.000 HD
ATOM     12  N   UNL     1      19.630   4.991  51.825  0.00  0.00    +0.000 N 
ATOM     13  H   UNL     1      20.467   5.016  52.392  0.00  0.00    +0.000 HD
ATOM     14  H   UNL     1      19.787   4.444  50.981  0.00  0.00    +0.000 HD
ENDROOT
BRANCH   2  15
ATOM     15  C1* UNL     1      18.475   9.390  54.605  0.00  0.00    +0.000 A 
ATOM     16  O4* UNL     1      19.603   8.831  55.252  0.00  0.00    +0.000 OA
ATOM     17  C4* UNL     1      19.499   9.047  56.636  0.00  0.00    +0.000 A 
ATOM     18  C3* UNL     1      18.283   9.768  56.886  0.00  0.00    +0.000 A 
ATOM     19  C2* UNL     1      17.650   9.992  55.623  0.00  0.00    +0.000 A 
BRANCH  18  20
ATOM     20  O3* UNL     1      17.530   9.611  58.018  0.00  0.00    +0.000 OA
ATOM     21  H3* UNL     1      16.826   8.948  57.892  0.00  0.00    +0.000 HD
ENDBRANCH  18  20
BRANCH  19  22
ATOM     22  O2* UNL     1      16.287  10.070  55.528  0.00  0.00    +0.000 OA
ATOM     23  H2* UNL     1      15.884   9.356  56.063  0.00  0.00    +0.000 HD
ENDBRANCH  19  22
BRANCH  17  24
ATOM     24  C5* UNL     1      20.326   8.402  57.573  0.00  0.00    +0.000 C 
BRANCH  24  25
ATOM     25  O5* UNL     1      21.095   7.802  58.475  0.00  0.00    +0.000 OA
ATOM     26  H5* UNL     1      20.565   7.209  59.037  0.00  0.00    +0.000 HD
ENDBRANCH  24  25
ENDBRANCH  17  24
ENDBRANCH   2  15
TORSDOF 5
ENDMDL
MODEL 7
REMARK VINA RESULT:      -3.1      9.917     11.829
REMARK  Name = Thioguanosine.pdbqt.pdb
REMARK  5 active torsions:
REMARK  status: ('A' for Active; 'I' for Inactive)
REMARK    1  A    between atoms: N_2  and  C1*_12
REMARK    2  A    between atoms: C4*_14  and  C5*_17
REMARK    3  A    between atoms: C3*_15  and  O3*_20
REMARK    4  A    between atoms: C2*_16  and  O2*_22
REMARK    5  A    between atoms: C5*_17  and  O5*_18
REMARK                            x       y       z     vdW  Elec       q    Type
REMARK                         _______ _______ _______ _____ _____    ______ ____
ROOT
ATOM      1  S   UNL     1       9.905  13.515  74.163  0.00  0.00    +0.000 S 
ATOM      2  N   UNL     1      12.731  10.821  71.204  0.00  0.00    +0.000 N 
ATOM      3  N   UNL     1      10.794  11.876  70.111  0.00  0.00    +0.000 N 
ATOM      4  N   UNL     1      12.341  11.661  73.271  0.00  0.00    +0.000 NA
ATOM      5  N   UNL     1       9.364  13.160  71.513  0.00  0.00    +0.000 NA
ATOM      6  C   UNL     1      11.599  11.595  71.152  0.00  0.00    +0.000 A 
ATOM      7  C   UNL     1      13.141  10.925  72.524  0.00  0.00    +0.000 A 
ATOM      8  C   UNL     1      11.358  12.083  72.411  0.00  0.00    +0.000 A 
ATOM      9  C   UNL     1      10.175  12.920  72.624  0.00  0.00    +0.000 A 
ATOM     10  C   UNL     1       9.697  12.655  70.360  0.00  0.00    +0.000 A 
ATOM     11  H   UNL     1      10.938  11.490  69.182  0.00  0.00    +0.000 HD
ATOM     12  N   UNL     1       8.931  12.877  69.265  0.00  0.00    +0.000 N 
ATOM     13  H   UNL     1       9.449  13.156  68.442  0.00  0.00    +0.000 HD
ATOM     14  H   UNL     1       8.201  13.555  69.474  0.00  0.00    +0.000 HD
ENDROOT
BRANCH   2  15
ATOM     15  C1* UNL     1      13.360  10.073  70.229  0.00  0.00    +0.000 A 
ATOM     16  O4* UNL     1      13.780   8.741  70.462  0.00  0.00    +0.000 OA
ATOM     17  C4* UNL     1      14.397   8.240  69.304  0.00  0.00    +0.000 A 
ATOM     18  C3* UNL     1      14.368   9.266  68.301  0.00  0.00    +0.000 A 
ATOM     19  C2* UNL     1      13.714  10.404  68.870  0.00  0.00    +0.000 A 
BRANCH  18  20
ATOM     20  O3* UNL     1      15.348   9.431  67.360  0.00  0.00    +0.000 OA
ATOM     21  H3* UNL     1      15.103  10.110  66.704  0.00  0.00    +0.000 HD
ENDBRANCH  18  20
BRANCH  19  22
ATOM     22  O2* UNL     1      14.043  11.671  68.473  0.00  0.00    +0.000 OA
ATOM     23  H2* UNL     1      14.606  12.088  69.156  0.00  0.00    +0.000 HD
ENDBRANCH  19  22
BRANCH  17  24
ATOM     24  C5* UNL     1      15.138   7.044  69.292  0.00  0.00    +0.000 C 
BRANCH  24  25
ATOM     25  O5* UNL     1      15.818   5.902  69.282  0.00  0.00    +0.000 OA
ATOM     26  H5* UNL     1      15.210   5.141  69.287  0.00  0.00    +0.000 HD
ENDBRANCH  24  25
ENDBRANCH  17  24
ENDBRANCH   2  15
TORSDOF 5
ENDMDL
MODEL 8
REMARK VINA RESULT:      -3.1     17.087     17.975
REMARK  Name = Thioguanosine.pdbqt.pdb
REMARK  5 active torsions:
REMARK  status: ('A' for Active; 'I' for Inactive)
REMARK    1  A    between atoms: N_2  and  C1*_12
REMARK    2  A    between atoms: C4*_14  and  C5*_17
REMARK    3  A    between atoms: C3*_15  and  O3*_20
REMARK    4  A    between atoms: C2*_16  and  O2*_22
REMARK    5  A    between atoms: C5*_17  and  O5*_18
REMARK                            x       y       z     vdW  Elec       q    Type
REMARK                         _______ _______ _______ _____ _____    ______ ____
ROOT
ATOM      1  S   UNL     1       1.300  10.208  65.478  0.00  0.00    +0.000 S 
ATOM      2  N   UNL     1       1.386   5.648  67.266  0.00  0.00    +0.000 N 
ATOM      3  N   UNL     1       2.634   5.964  65.168  0.00  0.00    +0.000 N 
ATOM      4  N   UNL     1       0.716   7.800  67.486  0.00  0.00    +0.000 NA
ATOM      5  N   UNL     1       2.589   8.150  64.234  0.00  0.00    +0.000 NA
ATOM      6  C   UNL     1       1.877   6.366  66.205  0.00  0.00    +0.000 A 
ATOM      7  C   UNL     1       0.704   6.593  68.017  0.00  0.00    +0.000 A 
ATOM      8  C   UNL     1       1.450   7.663  66.333  0.00  0.00    +0.000 A 
ATOM      9  C   UNL     1       1.820   8.629  65.297  0.00  0.00    +0.000 A 
ATOM     10  C   UNL     1       2.949   6.900  64.221  0.00  0.00    +0.000 A 
ATOM     11  H   UNL     1       2.925   4.998  65.040  0.00  0.00    +0.000 HD
ATOM     12  N   UNL     1       3.699   6.411  63.205  0.00  0.00    +0.000 N 
ATOM     13  H   UNL     1       4.488   5.851  63.500  0.00  0.00    +0.000 HD
ATOM     14  H   UNL     1       4.005   7.165  62.594  0.00  0.00    +0.000 HD
ENDROOT
BRANCH   2  15
ATOM     15  C1* UNL     1       1.484   4.305  67.572  0.00  0.00    +0.000 A 
ATOM     16  O4* UNL     1       2.706   3.599  67.460  0.00  0.00    +0.000 OA
ATOM     17  C4* UNL     1       2.501   2.257  67.820  0.00  0.00    +0.000 A 
ATOM     18  C3* UNL     1       1.121   2.096  68.179  0.00  0.00    +0.000 A 
ATOM     19  C2* UNL     1       0.488   3.370  68.036  0.00  0.00    +0.000 A 
BRANCH  18  20
ATOM     20  O3* UNL     1       0.414   0.944  67.962  0.00  0.00    +0.000 OA
ATOM     21  H3* UNL     1       0.316   0.424  68.781  0.00  0.00    +0.000 HD
ENDBRANCH  18  20
BRANCH  19  22
ATOM     22  O2* UNL     1      -0.834   3.460  67.698  0.00  0.00    +0.000 OA
ATOM     23  H2* UNL     1      -0.918   3.490  66.723  0.00  0.00    +0.000 HD
ENDBRANCH  19  22
BRANCH  17  24
ATOM     24  C5* UNL     1       3.453   1.249  67.577  0.00  0.00    +0.000 C 
BRANCH  24  25
ATOM     25  O5* UNL     1       4.342   0.294  67.328  0.00  0.00    +0.000 OA
ATOM     26  H5* UNL     1       3.970  -0.371  66.721  0.00  0.00    +0.000 HD
ENDBRANCH  24  25
ENDBRANCH  17  24
ENDBRANCH   2  15
TORSDOF 5
ENDMDL
MODEL 9
REMARK VINA RESULT:      -2.9     14.319     14.888
REMARK  Name = Thioguanosine.pdbqt.pdb
REMARK  5 active torsions:
REMARK  status: ('A' for Active; 'I' for Inactive)
REMARK    1  A    between atoms: N_2  and  C1*_12
REMARK    2  A    between atoms: C4*_14  and  C5*_17
REMARK    3  A    between atoms: C3*_15  and  O3*_20
REMARK    4  A    between atoms: C2*_16  and  O2*_22
REMARK    5  A    between atoms: C5*_17  and  O5*_18
REMARK                            x       y       z     vdW  Elec       q    Type
REMARK                         _______ _______ _______ _____ _____    ______ ____
ROOT
ATOM      1  S   UNL     1       5.464  -3.626  57.611  0.00  0.00    +0.000 S 
ATOM      2  N   UNL     1       7.129   0.966  57.969  0.00  0.00    +0.000 N 
ATOM      3  N   UNL     1       8.689  -0.624  56.923  0.00  0.00    +0.000 N 
ATOM      4  N   UNL     1       5.449  -0.514  58.305  0.00  0.00    +0.000 NA
ATOM      5  N   UNL     1       7.947  -2.878  56.764  0.00  0.00    +0.000 NA
ATOM      6  C   UNL     1       7.531  -0.259  57.501  0.00  0.00    +0.000 A 
ATOM      7  C   UNL     1       5.841   0.739  58.427  0.00  0.00    +0.000 A 
ATOM      8  C   UNL     1       6.517  -1.155  57.726  0.00  0.00    +0.000 A 
ATOM      9  C   UNL     1       6.716  -2.553  57.339  0.00  0.00    +0.000 A 
ATOM     10  C   UNL     1       8.834  -1.942  56.585  0.00  0.00    +0.000 A 
ATOM     11  H   UNL     1       9.464   0.020  56.785  0.00  0.00    +0.000 HD
ATOM     12  N   UNL     1      10.033  -2.230  56.025  0.00  0.00    +0.000 N 
ATOM     13  H   UNL     1      10.316  -1.590  55.294  0.00  0.00    +0.000 HD
ATOM     14  H   UNL     1      10.045  -3.189  55.684  0.00  0.00    +0.000 HD
ENDROOT
BRANCH   2  15
ATOM     15  C1* UNL     1       7.796   2.175  58.027  0.00  0.00    +0.000 A 
ATOM     16  O4* UNL     1       7.226   3.368  57.522  0.00  0.00    +0.000 OA
ATOM     17  C4* UNL     1       8.132   4.427  57.703  0.00  0.00    +0.000 A 
ATOM     18  C3* UNL     1       9.306   3.907  58.344  0.00  0.00    +0.000 A 
ATOM     19  C2* UNL     1       9.095   2.508  58.556  0.00  0.00    +0.000 A 
BRANCH  18  20
ATOM     20  O3* UNL     1      10.567   4.390  58.119  0.00  0.00    +0.000 OA
ATOM     21  H3* UNL     1      10.564   5.357  57.996  0.00  0.00    +0.000 HD
ENDBRANCH  18  20
BRANCH  19  22
ATOM     22  O2* UNL     1      10.148   1.635  58.555  0.00  0.00    +0.000 OA
ATOM     23  H2* UNL     1      10.034   0.991  57.826  0.00  0.00    +0.000 HD
ENDBRANCH  19  22
BRANCH  17  24
ATOM     24  C5* UNL     1       7.969   5.682  57.088  0.00  0.00    +0.000 C 
BRANCH  24  25
ATOM     25  O5* UNL     1       7.828   6.860  56.490  0.00  0.00    +0.000 OA
ATOM     26  H5* UNL     1       7.419   6.753  55.614  0.00  0.00    +0.000 HD
ENDBRANCH  24  25
ENDBRANCH  17  24
ENDBRANCH   2  15
TORSDOF 5
ENDMDL
