MODEL 1
REMARK VINA RESULT:      -4.4      0.000      0.000
REMARK  Name = Trichostatin_A.pdbqt.pdb
REMARK  6 active torsions:
REMARK  status: ('A' for Active; 'I' for Inactive)
REMARK    1  A    between atoms: C_1  and  C_15
REMARK    2  A    between atoms: C_4  and  C_6
REMARK    3  A    between atoms: C_7  and  C_10
REMARK    4  A    between atoms: N_9  and  O_12
REMARK    5  A    between atoms: C_15  and  C_16
REMARK    6  A    between atoms: C_17  and  N_22
REMARK                            x       y       z     vdW  Elec       q    Type
REMARK                         _______ _______ _______ _____ _____    ______ ____
ROOT
ATOM      1  C   UNL     1      19.753  -1.374  56.836  0.00  0.00    +0.000 C 
ATOM      2  C   UNL     1      20.035  -2.549  55.922  0.00  0.00    +0.000 C 
ATOM      3  C   UNL     1      18.885  -1.632  57.925  0.00  0.00    +0.000 C 
ATOM      4  C   UNL     1      18.094  -1.812  58.930  0.00  0.00    +0.000 C 
ATOM      5  C   UNL     1      18.673  -2.098  60.282  0.00  0.00    +0.000 C 
ENDROOT
BRANCH   4   6
ATOM      6  C   UNL     1      16.712  -1.546  58.802  0.00  0.00    +0.000 C 
ATOM      7  C   UNL     1      15.537  -1.316  58.693  0.00  0.00    +0.000 C 
BRANCH   7  10
ATOM      8  O   UNL     1      13.544  -0.389  59.410  0.00  0.00    +0.000 OA
ATOM      9  N   UNL     1      13.524  -1.554  57.442  0.00  0.00    +0.000 N 
ATOM     10  C   UNL     1      14.131  -1.043  58.556  0.00  0.00    +0.000 C 
ATOM     11  H   UNL     1      13.992  -2.102  56.731  0.00  0.00    +0.000 HD
BRANCH   9  12
ATOM     12  O   UNL     1      12.144  -1.313  57.281  0.00  0.00    +0.000 OA
ATOM     13  H   UNL     1      11.935  -1.790  56.448  0.00  0.00    +0.000 HD
ENDBRANCH   9  12
ENDBRANCH   7  10
ENDBRANCH   4   6
BRANCH   1  15
ATOM     14  O   UNL     1      20.890   0.679  57.205  0.00  0.00    +0.000 OA
ATOM     15  C   UNL     1      20.109   0.038  56.501  0.00  0.00    +0.000 C 
BRANCH  15  16
ATOM     16  C   UNL     1      19.537   0.686  55.303  0.00  0.00    +0.000 A 
ATOM     17  C   UNL     1      18.581   1.859  52.912  0.00  0.00    +0.000 A 
ATOM     18  C   UNL     1      18.287   0.335  54.803  0.00  0.00    +0.000 A 
ATOM     19  C   UNL     1      20.326   1.597  54.605  0.00  0.00    +0.000 A 
ATOM     20  C   UNL     1      17.817   0.926  53.631  0.00  0.00    +0.000 A 
ATOM     21  C   UNL     1      19.844   2.181  53.434  0.00  0.00    +0.000 A 
BRANCH  17  22
ATOM     22  N   UNL     1      18.088   2.469  51.731  0.00  0.00    +0.000 N 
ATOM     23  C   UNL     1      17.719   1.669  50.575  0.00  0.00    +0.000 C 
ATOM     24  C   UNL     1      18.334   3.875  51.456  0.00  0.00    +0.000 C 
ENDBRANCH  17  22
ENDBRANCH  15  16
ENDBRANCH   1  15
TORSDOF 6
ENDMDL
MODEL 2
REMARK VINA RESULT:      -4.2     20.673     23.090
REMARK  Name = Trichostatin_A.pdbqt.pdb
REMARK  6 active torsions:
REMARK  status: ('A' for Active; 'I' for Inactive)
REMARK    1  A    between atoms: C_1  and  C_15
REMARK    2  A    between atoms: C_4  and  C_6
REMARK    3  A    between atoms: C_7  and  C_10
REMARK    4  A    between atoms: N_9  and  O_12
REMARK    5  A    between atoms: C_15  and  C_16
REMARK    6  A    between atoms: C_17  and  N_22
REMARK                            x       y       z     vdW  Elec       q    Type
REMARK                         _______ _______ _______ _____ _____    ______ ____
ROOT
ATOM      1  C   UNL     1      10.513   5.441  77.427  0.00  0.00    +0.000 C 
ATOM      2  C   UNL     1      10.866   5.200  78.881  0.00  0.00    +0.000 C 
ATOM      3  C   UNL     1       9.352   6.217  77.193  0.00  0.00    +0.000 C 
ATOM      4  C   UNL     1       8.298   6.914  76.925  0.00  0.00    +0.000 C 
ATOM      5  C   UNL     1       8.436   8.376  76.626  0.00  0.00    +0.000 C 
ENDROOT
BRANCH   4   6
ATOM      6  C   UNL     1       7.056   6.271  76.717  0.00  0.00    +0.000 C 
ATOM      7  C   UNL     1       6.001   5.724  76.537  0.00  0.00    +0.000 C 
BRANCH   7  10
ATOM      8  O   UNL     1       4.500   4.523  75.252  0.00  0.00    +0.000 OA
ATOM      9  N   UNL     1       3.865   5.087  77.375  0.00  0.00    +0.000 N 
ATOM     10  C   UNL     1       4.740   5.063  76.326  0.00  0.00    +0.000 C 
ATOM     11  H   UNL     1       4.044   5.535  78.266  0.00  0.00    +0.000 HD
BRANCH   9  12
ATOM     12  O   UNL     1       2.615   4.456  77.199  0.00  0.00    +0.000 OA
ATOM     13  H   UNL     1       2.709   3.634  77.728  0.00  0.00    +0.000 HD
ENDBRANCH   9  12
ENDBRANCH   7  10
ENDBRANCH   4   6
BRANCH   1  15
ATOM     14  O   UNL     1      11.990   5.244  75.577  0.00  0.00    +0.000 OA
ATOM     15  C   UNL     1      11.144   4.704  76.291  0.00  0.00    +0.000 C 
BRANCH  15  16
ATOM     16  C   UNL     1      10.770   3.303  76.012  0.00  0.00    +0.000 A 
ATOM     17  C   UNL     1       9.900   0.681  75.395  0.00  0.00    +0.000 A 
ATOM     18  C   UNL     1      11.543   2.483  75.196  0.00  0.00    +0.000 A 
ATOM     19  C   UNL     1       9.552   2.835  76.500  0.00  0.00    +0.000 A 
ATOM     20  C   UNL     1      11.115   1.188  74.906  0.00  0.00    +0.000 A 
ATOM     21  C   UNL     1       9.135   1.537  76.203  0.00  0.00    +0.000 A 
BRANCH  17  22
ATOM     22  N   UNL     1       9.481  -0.642  75.111  0.00  0.00    +0.000 N 
ATOM     23  C   UNL     1       8.098  -0.930  74.765  0.00  0.00    +0.000 C 
ATOM     24  C   UNL     1      10.255  -1.787  75.562  0.00  0.00    +0.000 C 
ENDBRANCH  17  22
ENDBRANCH  15  16
ENDBRANCH   1  15
TORSDOF 6
ENDMDL
MODEL 3
REMARK VINA RESULT:      -4.1     15.538     18.597
REMARK  Name = Trichostatin_A.pdbqt.pdb
REMARK  6 active torsions:
REMARK  status: ('A' for Active; 'I' for Inactive)
REMARK    1  A    between atoms: C_1  and  C_15
REMARK    2  A    between atoms: C_4  and  C_6
REMARK    3  A    between atoms: C_7  and  C_10
REMARK    4  A    between atoms: N_9  and  O_12
REMARK    5  A    between atoms: C_15  and  C_16
REMARK    6  A    between atoms: C_17  and  N_22
REMARK                            x       y       z     vdW  Elec       q    Type
REMARK                         _______ _______ _______ _____ _____    ______ ____
ROOT
ATOM      1  C   UNL     1      12.012   2.677  74.885  0.00  0.00    +0.000 C 
ATOM      2  C   UNL     1      10.652   2.413  75.497  0.00  0.00    +0.000 C 
ATOM      3  C   UNL     1      12.550   3.968  75.107  0.00  0.00    +0.000 C 
ATOM      4  C   UNL     1      13.082   5.133  75.274  0.00  0.00    +0.000 C 
ATOM      5  C   UNL     1      14.079   5.338  76.374  0.00  0.00    +0.000 C 
ENDROOT
BRANCH   4   6
ATOM      6  C   UNL     1      12.882   6.150  74.312  0.00  0.00    +0.000 C 
ATOM      7  C   UNL     1      12.716   7.015  73.494  0.00  0.00    +0.000 C 
BRANCH   7  10
ATOM      8  O   UNL     1      11.542   8.787  72.585  0.00  0.00    +0.000 OA
ATOM      9  N   UNL     1      13.455   8.126  71.521  0.00  0.00    +0.000 N 
ATOM     10  C   UNL     1      12.514   8.045  72.509  0.00  0.00    +0.000 C 
ATOM     11  H   UNL     1      14.260   7.516  71.440  0.00  0.00    +0.000 HD
BRANCH   9  12
ATOM     12  O   UNL     1      13.284   9.118  70.534  0.00  0.00    +0.000 OA
ATOM     13  H   UNL     1      14.206   9.388  70.333  0.00  0.00    +0.000 HD
ENDBRANCH   9  12
ENDBRANCH   7  10
ENDBRANCH   4   6
BRANCH   1  15
ATOM     14  O   UNL     1      12.277   0.615  73.737  0.00  0.00    +0.000 OA
ATOM     15  C   UNL     1      12.654   1.778  73.879  0.00  0.00    +0.000 C 
BRANCH  15  16
ATOM     16  C   UNL     1      13.750   2.278  73.024  0.00  0.00    +0.000 A 
ATOM     17  C   UNL     1      15.778   3.406  71.404  0.00  0.00    +0.000 A 
ATOM     18  C   UNL     1      15.083   2.194  73.413  0.00  0.00    +0.000 A 
ATOM     19  C   UNL     1      13.417   2.946  71.848  0.00  0.00    +0.000 A 
ATOM     20  C   UNL     1      16.079   2.741  72.604  0.00  0.00    +0.000 A 
ATOM     21  C   UNL     1      14.423   3.488  71.047  0.00  0.00    +0.000 A 
BRANCH  17  22
ATOM     22  N   UNL     1      16.796   3.944  70.578  0.00  0.00    +0.000 N 
ATOM     23  C   UNL     1      18.200   3.791  70.927  0.00  0.00    +0.000 C 
ATOM     24  C   UNL     1      16.508   5.006  69.629  0.00  0.00    +0.000 C 
ENDBRANCH  17  22
ENDBRANCH  15  16
ENDBRANCH   1  15
TORSDOF 6
ENDMDL
MODEL 4
REMARK VINA RESULT:      -4.0     12.564     14.676
REMARK  Name = Trichostatin_A.pdbqt.pdb
REMARK  6 active torsions:
REMARK  status: ('A' for Active; 'I' for Inactive)
REMARK    1  A    between atoms: C_1  and  C_15
REMARK    2  A    between atoms: C_4  and  C_6
REMARK    3  A    between atoms: C_7  and  C_10
REMARK    4  A    between atoms: N_9  and  O_12
REMARK    5  A    between atoms: C_15  and  C_16
REMARK    6  A    between atoms: C_17  and  N_22
REMARK                            x       y       z     vdW  Elec       q    Type
REMARK                         _______ _______ _______ _____ _____    ______ ____
ROOT
ATOM      1  C   UNL     1       6.577   4.321  58.192  0.00  0.00    +0.000 C 
ATOM      2  C   UNL     1       5.730   3.912  57.004  0.00  0.00    +0.000 C 
ATOM      3  C   UNL     1       6.369   3.586  59.383  0.00  0.00    +0.000 C 
ATOM      4  C   UNL     1       6.213   2.950  60.497  0.00  0.00    +0.000 C 
ATOM      5  C   UNL     1       7.143   1.827  60.842  0.00  0.00    +0.000 C 
ENDROOT
BRANCH   4   6
ATOM      6  C   UNL     1       5.307   3.433  61.469  0.00  0.00    +0.000 C 
ATOM      7  C   UNL     1       4.535   3.841  62.295  0.00  0.00    +0.000 C 
BRANCH   7  10
ATOM      8  O   UNL     1       2.625   3.674  63.587  0.00  0.00    +0.000 OA
ATOM      9  N   UNL     1       3.925   5.536  63.853  0.00  0.00    +0.000 N 
ATOM     10  C   UNL     1       3.617   4.330  63.290  0.00  0.00    +0.000 C 
ATOM     11  H   UNL     1       4.736   6.094  63.614  0.00  0.00    +0.000 HD
BRANCH   9  12
ATOM     12  O   UNL     1       3.041   6.050  64.825  0.00  0.00    +0.000 OA
ATOM     13  H   UNL     1       3.588   6.048  65.641  0.00  0.00    +0.000 HD
ENDBRANCH   9  12
ENDBRANCH   7  10
ENDBRANCH   4   6
BRANCH   1  15
ATOM     14  O   UNL     1       8.434   5.683  57.609  0.00  0.00    +0.000 OA
ATOM     15  C   UNL     1       7.381   5.581  58.238  0.00  0.00    +0.000 C 
BRANCH  15  16
ATOM     16  C   UNL     1       6.914   6.733  59.034  0.00  0.00    +0.000 A 
ATOM     17  C   UNL     1       6.111   9.052  60.444  0.00  0.00    +0.000 A 
ATOM     18  C   UNL     1       5.564   7.049  59.151  0.00  0.00    +0.000 A 
ATOM     19  C   UNL     1       7.869   7.581  59.591  0.00  0.00    +0.000 A 
ATOM     20  C   UNL     1       5.174   8.186  59.857  0.00  0.00    +0.000 A 
ATOM     21  C   UNL     1       7.466   8.715  60.296  0.00  0.00    +0.000 A 
BRANCH  17  22
ATOM     22  N   UNL     1       5.707  10.197  61.176  0.00  0.00    +0.000 N 
ATOM     23  C   UNL     1       6.673  10.986  61.922  0.00  0.00    +0.000 C 
ATOM     24  C   UNL     1       4.320  10.381  61.573  0.00  0.00    +0.000 C 
ENDBRANCH  17  22
ENDBRANCH  15  16
ENDBRANCH   1  15
TORSDOF 6
ENDMDL
MODEL 5
REMARK VINA RESULT:      -4.0     10.203     13.632
REMARK  Name = Trichostatin_A.pdbqt.pdb
REMARK  6 active torsions:
REMARK  status: ('A' for Active; 'I' for Inactive)
REMARK    1  A    between atoms: C_1  and  C_15
REMARK    2  A    between atoms: C_4  and  C_6
REMARK    3  A    between atoms: C_7  and  C_10
REMARK    4  A    between atoms: N_9  and  O_12
REMARK    5  A    between atoms: C_15  and  C_16
REMARK    6  A    between atoms: C_17  and  N_22
REMARK                            x       y       z     vdW  Elec       q    Type
REMARK                         _______ _______ _______ _____ _____    ______ ____
ROOT
ATOM      1  C   UNL     1       7.492   6.511  58.015  0.00  0.00    +0.000 C 
ATOM      2  C   UNL     1       6.808   6.731  56.681  0.00  0.00    +0.000 C 
ATOM      3  C   UNL     1       7.194   7.454  59.027  0.00  0.00    +0.000 C 
ATOM      4  C   UNL     1       6.960   8.292  59.983  0.00  0.00    +0.000 C 
ATOM      5  C   UNL     1       5.923   7.964  61.013  0.00  0.00    +0.000 C 
ENDROOT
BRANCH   4   6
ATOM      6  C   UNL     1       7.807   9.408  60.171  0.00  0.00    +0.000 C 
ATOM      7  C   UNL     1       8.529  10.356  60.328  0.00  0.00    +0.000 C 
BRANCH   7  10
ATOM      8  O   UNL     1      10.413  11.392  61.177  0.00  0.00    +0.000 OA
ATOM      9  N   UNL     1       8.982  12.658  59.920  0.00  0.00    +0.000 N 
ATOM     10  C   UNL     1       9.387  11.496  60.515  0.00  0.00    +0.000 C 
ATOM     11  H   UNL     1       8.134  12.763  59.376  0.00  0.00    +0.000 HD
BRANCH   9  12
ATOM     12  O   UNL     1       9.796  13.798  60.090  0.00  0.00    +0.000 OA
ATOM     13  H   UNL     1       9.213  14.529  59.789  0.00  0.00    +0.000 HD
ENDBRANCH   9  12
ENDBRANCH   7  10
ENDBRANCH   4   6
BRANCH   1  15
ATOM     14  O   UNL     1       9.782   5.955  58.318  0.00  0.00    +0.000 OA
ATOM     15  C   UNL     1       8.623   5.554  58.215  0.00  0.00    +0.000 C 
BRANCH  15  16
ATOM     16  C   UNL     1       8.363   4.102  58.305  0.00  0.00    +0.000 A 
ATOM     17  C   UNL     1       7.989   1.315  58.614  0.00  0.00    +0.000 A 
ATOM     18  C   UNL     1       7.113   3.599  58.649  0.00  0.00    +0.000 A 
ATOM     19  C   UNL     1       9.436   3.229  58.142  0.00  0.00    +0.000 A 
ATOM     20  C   UNL     1       6.932   2.223  58.788  0.00  0.00    +0.000 A 
ATOM     21  C   UNL     1       9.242   1.854  58.283  0.00  0.00    +0.000 A 
BRANCH  17  22
ATOM     22  N   UNL     1       7.793  -0.084  58.739  0.00  0.00    +0.000 N 
ATOM     23  C   UNL     1       6.729  -0.618  59.573  0.00  0.00    +0.000 C 
ATOM     24  C   UNL     1       8.859  -1.021  58.424  0.00  0.00    +0.000 C 
ENDBRANCH  17  22
ENDBRANCH  15  16
ENDBRANCH   1  15
TORSDOF 6
ENDMDL
MODEL 6
REMARK VINA RESULT:      -3.8     11.093     12.984
REMARK  Name = Trichostatin_A.pdbqt.pdb
REMARK  6 active torsions:
REMARK  status: ('A' for Active; 'I' for Inactive)
REMARK    1  A    between atoms: C_1  and  C_15
REMARK    2  A    between atoms: C_4  and  C_6
REMARK    3  A    between atoms: C_7  and  C_10
REMARK    4  A    between atoms: N_9  and  O_12
REMARK    5  A    between atoms: C_15  and  C_16
REMARK    6  A    between atoms: C_17  and  N_22
REMARK                            x       y       z     vdW  Elec       q    Type
REMARK                         _______ _______ _______ _____ _____    ______ ____
ROOT
ATOM      1  C   UNL     1      16.033  12.310  60.285  0.00  0.00    +0.000 C 
ATOM      2  C   UNL     1      16.614  13.706  60.388  0.00  0.00    +0.000 C 
ATOM      3  C   UNL     1      16.960  11.272  60.025  0.00  0.00    +0.000 C 
ATOM      4  C   UNL     1      17.763  10.290  59.783  0.00  0.00    +0.000 C 
ATOM      5  C   UNL     1      18.280   9.462  60.919  0.00  0.00    +0.000 C 
ENDROOT
BRANCH   4   6
ATOM      6  C   UNL     1      17.993   9.873  58.451  0.00  0.00    +0.000 C 
ATOM      7  C   UNL     1      18.192   9.518  57.320  0.00  0.00    +0.000 C 
BRANCH   7  10
ATOM      8  O   UNL     1      17.486   8.986  55.184  0.00  0.00    +0.000 OA
ATOM      9  N   UNL     1      19.721   8.811  55.636  0.00  0.00    +0.000 N 
ATOM     10  C   UNL     1      18.424   9.088  55.966  0.00  0.00    +0.000 C 
ATOM     11  H   UNL     1      20.506   8.882  56.272  0.00  0.00    +0.000 HD
BRANCH   9  12
ATOM     12  O   UNL     1      19.982   8.378  54.319  0.00  0.00    +0.000 OA
ATOM     13  H   UNL     1      19.737   7.428  54.349  0.00  0.00    +0.000 HD
ENDBRANCH   9  12
ENDBRANCH   7  10
ENDBRANCH   4   6
BRANCH   1  15
ATOM     14  O   UNL     1      13.945  11.539  61.114  0.00  0.00    +0.000 OA
ATOM     15  C   UNL     1      14.569  12.031  60.174  0.00  0.00    +0.000 C 
BRANCH  15  16
ATOM     16  C   UNL     1      13.840  12.356  58.931  0.00  0.00    +0.000 A 
ATOM     17  C   UNL     1      12.494  12.813  56.484  0.00  0.00    +0.000 A 
ATOM     18  C   UNL     1      12.465  12.566  58.918  0.00  0.00    +0.000 A 
ATOM     19  C   UNL     1      14.545  12.343  57.730  0.00  0.00    +0.000 A 
ATOM     20  C   UNL     1      11.809  12.803  57.710  0.00  0.00    +0.000 A 
ATOM     21  C   UNL     1      13.878  12.582  56.528  0.00  0.00    +0.000 A 
BRANCH  17  22
ATOM     22  N   UNL     1      11.824  13.072  55.262  0.00  0.00    +0.000 N 
ATOM     23  C   UNL     1      12.199  12.377  54.042  0.00  0.00    +0.000 C 
ATOM     24  C   UNL     1      11.070  14.300  55.067  0.00  0.00    +0.000 C 
ENDBRANCH  17  22
ENDBRANCH  15  16
ENDBRANCH   1  15
TORSDOF 6
ENDMDL
MODEL 7
REMARK VINA RESULT:      -3.8     17.781     20.377
REMARK  Name = Trichostatin_A.pdbqt.pdb
REMARK  6 active torsions:
REMARK  status: ('A' for Active; 'I' for Inactive)
REMARK    1  A    between atoms: C_1  and  C_15
REMARK    2  A    between atoms: C_4  and  C_6
REMARK    3  A    between atoms: C_7  and  C_10
REMARK    4  A    between atoms: N_9  and  O_12
REMARK    5  A    between atoms: C_15  and  C_16
REMARK    6  A    between atoms: C_17  and  N_22
REMARK                            x       y       z     vdW  Elec       q    Type
REMARK                         _______ _______ _______ _____ _____    ______ ____
ROOT
ATOM      1  C   UNL     1      12.367  -0.043  73.991  0.00  0.00    +0.000 C 
ATOM      2  C   UNL     1      13.278  -0.945  74.798  0.00  0.00    +0.000 C 
ATOM      3  C   UNL     1      11.794   1.045  74.692  0.00  0.00    +0.000 C 
ATOM      4  C   UNL     1      11.239   2.049  75.287  0.00  0.00    +0.000 C 
ATOM      5  C   UNL     1      11.866   3.406  75.183  0.00  0.00    +0.000 C 
ENDROOT
BRANCH   4   6
ATOM      6  C   UNL     1       9.954   1.913  75.860  0.00  0.00    +0.000 C 
ATOM      7  C   UNL     1       8.862   1.799  76.350  0.00  0.00    +0.000 C 
BRANCH   7  10
ATOM      8  O   UNL     1       7.027   2.623  77.490  0.00  0.00    +0.000 OA
ATOM      9  N   UNL     1       6.963   0.439  76.813  0.00  0.00    +0.000 N 
ATOM     10  C   UNL     1       7.552   1.667  76.930  0.00  0.00    +0.000 C 
ATOM     11  H   UNL     1       7.385  -0.362  76.360  0.00  0.00    +0.000 HD
BRANCH   9  12
ATOM     12  O   UNL     1       5.681   0.272  77.379  0.00  0.00    +0.000 OA
ATOM     13  H   UNL     1       5.138   0.925  76.887  0.00  0.00    +0.000 HD
ENDBRANCH   9  12
ENDBRANCH   7  10
ENDBRANCH   4   6
BRANCH   1  15
ATOM     14  O   UNL     1      12.584  -0.314  71.640  0.00  0.00    +0.000 OA
ATOM     15  C   UNL     1      11.855  -0.390  72.630  0.00  0.00    +0.000 C 
BRANCH  15  16
ATOM     16  C   UNL     1      10.462  -0.847  72.453  0.00  0.00    +0.000 A 
ATOM     17  C   UNL     1       7.738  -1.573  72.208  0.00  0.00    +0.000 A 
ATOM     18  C   UNL     1       9.872  -0.937  71.196  0.00  0.00    +0.000 A 
ATOM     19  C   UNL     1       9.696  -1.088  73.591  0.00  0.00    +0.000 A 
ATOM     20  C   UNL     1       8.533  -1.308  71.081  0.00  0.00    +0.000 A 
ATOM     21  C   UNL     1       8.357  -1.459  73.463  0.00  0.00    +0.000 A 
BRANCH  17  22
ATOM     22  N   UNL     1       6.382  -1.967  72.084  0.00  0.00    +0.000 N 
ATOM     23  C   UNL     1       5.722  -2.719  73.138  0.00  0.00    +0.000 C 
ATOM     24  C   UNL     1       5.738  -2.034  70.782  0.00  0.00    +0.000 C 
ENDBRANCH  17  22
ENDBRANCH  15  16
ENDBRANCH   1  15
TORSDOF 6
ENDMDL
MODEL 8
REMARK VINA RESULT:      -3.7     14.140     18.092
REMARK  Name = Trichostatin_A.pdbqt.pdb
REMARK  6 active torsions:
REMARK  status: ('A' for Active; 'I' for Inactive)
REMARK    1  A    between atoms: C_1  and  C_15
REMARK    2  A    between atoms: C_4  and  C_6
REMARK    3  A    between atoms: C_7  and  C_10
REMARK    4  A    between atoms: N_9  and  O_12
REMARK    5  A    between atoms: C_15  and  C_16
REMARK    6  A    between atoms: C_17  and  N_22
REMARK                            x       y       z     vdW  Elec       q    Type
REMARK                         _______ _______ _______ _____ _____    ______ ____
ROOT
ATOM      1  C   UNL     1       1.512   3.807  65.843  0.00  0.00    +0.000 C 
ATOM      2  C   UNL     1       0.357   3.138  65.126  0.00  0.00    +0.000 C 
ATOM      3  C   UNL     1       1.889   5.081  65.354  0.00  0.00    +0.000 C 
ATOM      4  C   UNL     1       2.277   6.243  64.943  0.00  0.00    +0.000 C 
ATOM      5  C   UNL     1       1.774   7.475  65.632  0.00  0.00    +0.000 C 
ENDROOT
BRANCH   4   6
ATOM      6  C   UNL     1       3.315   6.347  63.989  0.00  0.00    +0.000 C 
ATOM      7  C   UNL     1       4.195   6.439  63.176  0.00  0.00    +0.000 C 
BRANCH   7  10
ATOM      8  O   UNL     1       5.548   5.593  61.502  0.00  0.00    +0.000 OA
ATOM      9  N   UNL     1       5.883   7.763  62.141  0.00  0.00    +0.000 N 
ATOM     10  C   UNL     1       5.254   6.551  62.208  0.00  0.00    +0.000 C 
ATOM     11  H   UNL     1       5.659   8.562  62.722  0.00  0.00    +0.000 HD
BRANCH   9  12
ATOM     12  O   UNL     1       6.933   7.905  61.210  0.00  0.00    +0.000 OA
ATOM     13  H   UNL     1       7.710   8.084  61.782  0.00  0.00    +0.000 HD
ENDBRANCH   9  12
ENDBRANCH   7  10
ENDBRANCH   4   6
BRANCH   1  15
ATOM     14  O   UNL     1       2.396   3.391  68.009  0.00  0.00    +0.000 OA
ATOM     15  C   UNL     1       2.403   3.100  66.812  0.00  0.00    +0.000 C 
BRANCH  15  16
ATOM     16  C   UNL     1       3.303   2.025  66.349  0.00  0.00    +0.000 A 
ATOM     17  C   UNL     1       5.160   0.092  65.439  0.00  0.00    +0.000 A 
ATOM     18  C   UNL     1       3.687   0.977  67.181  0.00  0.00    +0.000 A 
ATOM     19  C   UNL     1       3.860   2.132  65.077  0.00  0.00    +0.000 A 
ATOM     20  C   UNL     1       4.593   0.021  66.722  0.00  0.00    +0.000 A 
ATOM     21  C   UNL     1       4.765   1.169  64.630  0.00  0.00    +0.000 A 
BRANCH  17  22
ATOM     22  N   UNL     1       6.066  -0.893  64.974  0.00  0.00    +0.000 N 
ATOM     23  C   UNL     1       7.044  -0.582  63.944  0.00  0.00    +0.000 C 
ATOM     24  C   UNL     1       5.793  -2.310  65.158  0.00  0.00    +0.000 C 
ENDBRANCH  17  22
ENDBRANCH  15  16
ENDBRANCH   1  15
TORSDOF 6
ENDMDL
MODEL 9
REMARK VINA RESULT:      -3.6     14.507     16.490
REMARK  Name = Trichostatin_A.pdbqt.pdb
REMARK  6 active torsions:
REMARK  status: ('A' for Active; 'I' for Inactive)
REMARK    1  A    between atoms: C_1  and  C_15
REMARK    2  A    between atoms: C_4  and  C_6
REMARK    3  A    between atoms: C_7  and  C_10
REMARK    4  A    between atoms: N_9  and  O_12
REMARK    5  A    between atoms: C_15  and  C_16
REMARK    6  A    between atoms: C_17  and  N_22
REMARK                            x       y       z     vdW  Elec       q    Type
REMARK                         _______ _______ _______ _____ _____    ______ ____
ROOT
ATOM      1  C   UNL     1       3.580   2.497  61.574  0.00  0.00    +0.000 C 
ATOM      2  C   UNL     1       2.418   2.727  60.628  0.00  0.00    +0.000 C 
ATOM      3  C   UNL     1       3.258   1.892  62.812  0.00  0.00    +0.000 C 
ATOM      4  C   UNL     1       3.018   1.349  63.960  0.00  0.00    +0.000 C 
ATOM      5  C   UNL     1       3.218  -0.126  64.134  0.00  0.00    +0.000 C 
ENDROOT
BRANCH   4   6
ATOM      6  C   UNL     1       2.763   2.160  65.090  0.00  0.00    +0.000 C 
ATOM      7  C   UNL     1       2.544   2.851  66.048  0.00  0.00    +0.000 C 
BRANCH   7  10
ATOM      8  O   UNL     1       1.879   3.162  68.240  0.00  0.00    +0.000 OA
ATOM      9  N   UNL     1       2.502   5.012  67.048  0.00  0.00    +0.000 N 
ATOM     10  C   UNL     1       2.280   3.672  67.200  0.00  0.00    +0.000 C 
ATOM     11  H   UNL     1       2.826   5.450  66.194  0.00  0.00    +0.000 HD
BRANCH   9  12
ATOM     12  O   UNL     1       2.244   5.848  68.155  0.00  0.00    +0.000 OA
ATOM     13  H   UNL     1       1.502   5.390  68.606  0.00  0.00    +0.000 HD
ENDBRANCH   9  12
ENDBRANCH   7  10
ENDBRANCH   4   6
BRANCH   1  15
ATOM     14  O   UNL     1       5.922   2.390  61.191  0.00  0.00    +0.000 OA
ATOM     15  C   UNL     1       4.934   3.099  61.380  0.00  0.00    +0.000 C 
BRANCH  15  16
ATOM     16  C   UNL     1       5.106   4.566  61.402  0.00  0.00    +0.000 A 
ATOM     17  C   UNL     1       5.557   7.354  61.582  0.00  0.00    +0.000 A 
ATOM     18  C   UNL     1       5.634   5.260  60.318  0.00  0.00    +0.000 A 
ATOM     19  C   UNL     1       4.829   5.246  62.585  0.00  0.00    +0.000 A 
ATOM     20  C   UNL     1       5.842   6.636  60.409  0.00  0.00    +0.000 A 
ATOM     21  C   UNL     1       5.041   6.623  62.663  0.00  0.00    +0.000 A 
BRANCH  17  22
ATOM     22  N   UNL     1       5.755   8.755  61.660  0.00  0.00    +0.000 N 
ATOM     23  C   UNL     1       5.807   9.432  62.946  0.00  0.00    +0.000 C 
ATOM     24  C   UNL     1       5.482   9.616  60.521  0.00  0.00    +0.000 C 
ENDBRANCH  17  22
ENDBRANCH  15  16
ENDBRANCH   1  15
TORSDOF 6
ENDMDL
