MODEL 1
REMARK VINA RESULT:      -3.8      0.000      0.000
REMARK  Name = Trifluridine.pdbqt.pdb
REMARK  5 active torsions:
REMARK  status: ('A' for Active; 'I' for Inactive)
REMARK    1  A    between atoms: N_3  and  C1*_10
REMARK    2  A    between atoms: C_7  and  C_20
REMARK    3  A    between atoms: C4*_12  and  C5*_15
REMARK    4  A    between atoms: C3*_13  and  O3*_18
REMARK    5  A    between atoms: C5*_15  and  O5*_16
REMARK                            x       y       z     vdW  Elec       q    Type
REMARK                         _______ _______ _______ _____ _____    ______ ____
ROOT
ATOM      1  O   UNL     1       1.995   9.064  76.162  0.00  0.00    +0.000 OA
ATOM      2  O   UNL     1       0.974  10.574  71.950  0.00  0.00    +0.000 OA
ATOM      3  N   UNL     1       3.014   7.986  74.315  0.00  0.00    +0.000 N 
ATOM      4  N   UNL     1       1.531   9.780  74.031  0.00  0.00    +0.000 N 
ATOM      5  C   UNL     1       3.058   8.031  72.969  0.00  0.00    +0.000 A 
ATOM      6  C   UNL     1       2.183   8.932  74.958  0.00  0.00    +0.000 A 
ATOM      7  C   UNL     1       2.505   8.752  72.050  0.00  0.00    +0.000 A 
ATOM      8  C   UNL     1       1.607   9.780  72.632  0.00  0.00    +0.000 A 
ATOM      9  H   UNL     1       0.922  10.474  74.440  0.00  0.00    +0.000 HD
ENDROOT
BRANCH   3  10
ATOM     10  C1* UNL     1       3.752   7.045  74.974  0.00  0.00    +0.000 A 
ATOM     11  O4* UNL     1       4.959   7.359  75.608  0.00  0.00    +0.000 OA
ATOM     12  C4* UNL     1       5.455   6.167  76.152  0.00  0.00    +0.000 A 
ATOM     13  C3* UNL     1       4.538   5.096  75.853  0.00  0.00    +0.000 A 
ATOM     14  C2* UNL     1       3.490   5.668  75.110  0.00  0.00    +0.000 A 
BRANCH  13  15
ATOM     15  O3* UNL     1       4.983   3.814  75.690  0.00  0.00    +0.000 OA
ATOM     16  H3* UNL     1       5.016   3.573  74.748  0.00  0.00    +0.000 HD
ENDBRANCH  13  15
BRANCH  12  17
ATOM     17  C5* UNL     1       6.755   6.062  76.685  0.00  0.00    +0.000 C 
BRANCH  17  18
ATOM     18  O5* UNL     1       7.984   5.963  77.182  0.00  0.00    +0.000 OA
ATOM     19  H5* UNL     1       8.277   5.037  77.170  0.00  0.00    +0.000 HD
ENDBRANCH  17  18
ENDBRANCH  12  17
ENDBRANCH   3  10
BRANCH   7  20
ATOM     20  C   UNL     1       2.623   8.674  70.588  0.00  0.00    +0.000 C 
ATOM     21  F   UNL     1       3.488   7.709  70.185  0.00  0.00    +0.000 F 
ATOM     22  F   UNL     1       1.430   8.378  70.003  0.00  0.00    +0.000 F 
ATOM     23  F   UNL     1       3.032   9.843  70.036  0.00  0.00    +0.000 F 
ENDBRANCH   7  20
TORSDOF 5
ENDMDL
MODEL 2
REMARK VINA RESULT:      -3.2     25.577     27.239
REMARK  Name = Trifluridine.pdbqt.pdb
REMARK  5 active torsions:
REMARK  status: ('A' for Active; 'I' for Inactive)
REMARK    1  A    between atoms: N_3  and  C1*_10
REMARK    2  A    between atoms: C_7  and  C_20
REMARK    3  A    between atoms: C4*_12  and  C5*_15
REMARK    4  A    between atoms: C3*_13  and  O3*_18
REMARK    5  A    between atoms: C5*_15  and  O5*_16
REMARK                            x       y       z     vdW  Elec       q    Type
REMARK                         _______ _______ _______ _____ _____    ______ ____
ROOT
ATOM      1  O   UNL     1      15.684   2.622  51.466  0.00  0.00    +0.000 OA
ATOM      2  O   UNL     1      17.150  -0.361  54.631  0.00  0.00    +0.000 OA
ATOM      3  N   UNL     1      17.925   2.802  52.212  0.00  0.00    +0.000 N 
ATOM      4  N   UNL     1      16.478   1.153  53.041  0.00  0.00    +0.000 N 
ATOM      5  C   UNL     1      18.797   2.222  53.060  0.00  0.00    +0.000 A 
ATOM      6  C   UNL     1      16.624   2.251  52.159  0.00  0.00    +0.000 A 
ATOM      7  C   UNL     1      18.757   1.237  53.895  0.00  0.00    +0.000 A 
ATOM      8  C   UNL     1      17.421   0.592  53.912  0.00  0.00    +0.000 A 
ATOM      9  H   UNL     1      15.564   0.724  53.043  0.00  0.00    +0.000 HD
ENDROOT
BRANCH   3  10
ATOM     10  C1* UNL     1      18.332   3.871  51.467  0.00  0.00    +0.000 A 
ATOM     11  O4* UNL     1      17.970   5.183  51.792  0.00  0.00    +0.000 OA
ATOM     12  C4* UNL     1      18.530   6.015  50.814  0.00  0.00    +0.000 A 
ATOM     13  C3* UNL     1      19.256   5.205  49.867  0.00  0.00    +0.000 A 
ATOM     14  C2* UNL     1      19.109   3.873  50.292  0.00  0.00    +0.000 A 
BRANCH  13  15
ATOM     15  O3* UNL     1      19.371   5.585  48.560  0.00  0.00    +0.000 OA
ATOM     16  H3* UNL     1      19.791   4.886  48.029  0.00  0.00    +0.000 HD
ENDBRANCH  13  15
BRANCH  12  17
ATOM     17  C5* UNL     1      18.200   7.380  50.703  0.00  0.00    +0.000 C 
BRANCH  17  18
ATOM     18  O5* UNL     1      17.885   8.666  50.596  0.00  0.00    +0.000 OA
ATOM     19  H5* UNL     1      17.989   9.111  51.454  0.00  0.00    +0.000 HD
ENDBRANCH  17  18
ENDBRANCH  12  17
ENDBRANCH   3  10
BRANCH   7  20
ATOM     20  C   UNL     1      19.795   0.719  54.797  0.00  0.00    +0.000 C 
ATOM     21  F   UNL     1      20.301  -0.469  54.382  0.00  0.00    +0.000 F 
ATOM     22  F   UNL     1      20.855   1.569  54.884  0.00  0.00    +0.000 F 
ATOM     23  F   UNL     1      19.344   0.550  56.065  0.00  0.00    +0.000 F 
ENDBRANCH   7  20
TORSDOF 5
ENDMDL
MODEL 3
REMARK VINA RESULT:      -3.2     25.311     26.601
REMARK  Name = Trifluridine.pdbqt.pdb
REMARK  5 active torsions:
REMARK  status: ('A' for Active; 'I' for Inactive)
REMARK    1  A    between atoms: N_3  and  C1*_10
REMARK    2  A    between atoms: C_7  and  C_20
REMARK    3  A    between atoms: C4*_12  and  C5*_15
REMARK    4  A    between atoms: C3*_13  and  O3*_18
REMARK    5  A    between atoms: C5*_15  and  O5*_16
REMARK                            x       y       z     vdW  Elec       q    Type
REMARK                         _______ _______ _______ _____ _____    ______ ____
ROOT
ATOM      1  O   UNL     1      17.731  -0.926  56.083  0.00  0.00    +0.000 OA
ATOM      2  O   UNL     1      21.839   1.098  56.375  0.00  0.00    +0.000 OA
ATOM      3  N   UNL     1      18.341   0.605  54.382  0.00  0.00    +0.000 N 
ATOM      4  N   UNL     1      19.776   0.111  56.169  0.00  0.00    +0.000 N 
ATOM      5  C   UNL     1      19.354   1.413  54.014  0.00  0.00    +0.000 A 
ATOM      6  C   UNL     1      18.519  -0.141  55.570  0.00  0.00    +0.000 A 
ATOM      7  C   UNL     1      20.518   1.710  54.489  0.00  0.00    +0.000 A 
ATOM      8  C   UNL     1      20.798   0.972  55.746  0.00  0.00    +0.000 A 
ATOM      9  H   UNL     1      19.953  -0.397  57.024  0.00  0.00    +0.000 HD
ENDROOT
BRANCH   3  10
ATOM     10  C1* UNL     1      17.216   0.554  53.611  0.00  0.00    +0.000 A 
ATOM     11  O4* UNL     1      16.762  -0.638  53.035  0.00  0.00    +0.000 OA
ATOM     12  C4* UNL     1      15.614  -0.323  52.297  0.00  0.00    +0.000 A 
ATOM     13  C3* UNL     1      15.348   1.088  52.418  0.00  0.00    +0.000 A 
ATOM     14  C2* UNL     1      16.366   1.613  53.234  0.00  0.00    +0.000 A 
BRANCH  13  15
ATOM     15  O3* UNL     1      14.743   1.779  51.407  0.00  0.00    +0.000 OA
ATOM     16  H3* UNL     1      14.570   2.700  51.668  0.00  0.00    +0.000 HD
ENDBRANCH  13  15
BRANCH  12  17
ATOM     17  C5* UNL     1      15.009  -1.240  51.415  0.00  0.00    +0.000 C 
BRANCH  17  18
ATOM     18  O5* UNL     1      14.439  -2.108  50.585  0.00  0.00    +0.000 OA
ATOM     19  H5* UNL     1      13.971  -2.796  51.088  0.00  0.00    +0.000 HD
ENDBRANCH  17  18
ENDBRANCH  12  17
ENDBRANCH   3  10
BRANCH   7  20
ATOM     20  C   UNL     1      21.532   2.649  53.990  0.00  0.00    +0.000 C 
ATOM     21  F   UNL     1      22.058   3.420  54.974  0.00  0.00    +0.000 F 
ATOM     22  F   UNL     1      22.583   1.997  53.420  0.00  0.00    +0.000 F 
ATOM     23  F   UNL     1      21.045   3.481  53.036  0.00  0.00    +0.000 F 
ENDBRANCH   7  20
TORSDOF 5
ENDMDL
MODEL 4
REMARK VINA RESULT:      -3.1     23.876     25.618
REMARK  Name = Trifluridine.pdbqt.pdb
REMARK  5 active torsions:
REMARK  status: ('A' for Active; 'I' for Inactive)
REMARK    1  A    between atoms: N_3  and  C1*_10
REMARK    2  A    between atoms: C_7  and  C_20
REMARK    3  A    between atoms: C4*_12  and  C5*_15
REMARK    4  A    between atoms: C3*_13  and  O3*_18
REMARK    5  A    between atoms: C5*_15  and  O5*_16
REMARK                            x       y       z     vdW  Elec       q    Type
REMARK                         _______ _______ _______ _____ _____    ______ ____
ROOT
ATOM      1  O   UNL     1      16.226   9.971  54.862  0.00  0.00    +0.000 OA
ATOM      2  O   UNL     1      19.052   9.542  58.453  0.00  0.00    +0.000 OA
ATOM      3  N   UNL     1      18.365   9.025  54.489  0.00  0.00    +0.000 N 
ATOM      4  N   UNL     1      17.681   9.722  56.620  0.00  0.00    +0.000 N 
ATOM      5  C   UNL     1      19.494   8.695  55.146  0.00  0.00    +0.000 A 
ATOM      6  C   UNL     1      17.325   9.598  55.256  0.00  0.00    +0.000 A 
ATOM      7  C   UNL     1      19.908   8.772  56.367  0.00  0.00    +0.000 A 
ATOM      8  C   UNL     1      18.878   9.368  57.255  0.00  0.00    +0.000 A 
ATOM      9  H   UNL     1      16.971  10.130  57.213  0.00  0.00    +0.000 HD
ENDROOT
BRANCH   3  10
ATOM     10  C1* UNL     1      18.286   8.799  53.145  0.00  0.00    +0.000 A 
ATOM     11  O4* UNL     1      18.030   9.828  52.232  0.00  0.00    +0.000 OA
ATOM     12  C4* UNL     1      17.991   9.244  50.959  0.00  0.00    +0.000 A 
ATOM     13  C3* UNL     1      18.231   7.828  51.084  0.00  0.00    +0.000 A 
ATOM     14  C2* UNL     1      18.403   7.575  52.457  0.00  0.00    +0.000 A 
BRANCH  13  15
ATOM     15  O3* UNL     1      17.678   6.941  50.204  0.00  0.00    +0.000 OA
ATOM     16  H3* UNL     1      17.005   7.373  49.650  0.00  0.00    +0.000 HD
ENDBRANCH  13  15
BRANCH  12  17
ATOM     17  C5* UNL     1      17.551   9.944  49.820  0.00  0.00    +0.000 C 
BRANCH  17  18
ATOM     18  O5* UNL     1      17.130  10.604  48.745  0.00  0.00    +0.000 OA
ATOM     19  H5* UNL     1      17.757  10.486  48.012  0.00  0.00    +0.000 HD
ENDBRANCH  17  18
ENDBRANCH  12  17
ENDBRANCH   3  10
BRANCH   7  20
ATOM     20  C   UNL     1      21.201   8.394  56.953  0.00  0.00    +0.000 C 
ATOM     21  F   UNL     1      21.856   9.449  57.498  0.00  0.00    +0.000 F 
ATOM     22  F   UNL     1      21.051   7.485  57.956  0.00  0.00    +0.000 F 
ATOM     23  F   UNL     1      22.034   7.821  56.049  0.00  0.00    +0.000 F 
ENDBRANCH   7  20
TORSDOF 5
ENDMDL
MODEL 5
REMARK VINA RESULT:      -3.1     13.023     14.563
REMARK  Name = Trifluridine.pdbqt.pdb
REMARK  5 active torsions:
REMARK  status: ('A' for Active; 'I' for Inactive)
REMARK    1  A    between atoms: N_3  and  C1*_10
REMARK    2  A    between atoms: C_7  and  C_20
REMARK    3  A    between atoms: C4*_12  and  C5*_15
REMARK    4  A    between atoms: C3*_13  and  O3*_18
REMARK    5  A    between atoms: C5*_15  and  O5*_16
REMARK                            x       y       z     vdW  Elec       q    Type
REMARK                         _______ _______ _______ _____ _____    ______ ____
ROOT
ATOM      1  O   UNL     1      16.668   4.001  70.823  0.00  0.00    +0.000 OA
ATOM      2  O   UNL     1      14.823   8.110  71.704  0.00  0.00    +0.000 OA
ATOM      3  N   UNL     1      16.147   5.404  68.987  0.00  0.00    +0.000 N 
ATOM      4  N   UNL     1      15.751   6.072  71.200  0.00  0.00    +0.000 N 
ATOM      5  C   UNL     1      15.632   6.618  68.709  0.00  0.00    +0.000 A 
ATOM      6  C   UNL     1      16.238   5.048  70.353  0.00  0.00    +0.000 A 
ATOM      7  C   UNL     1      15.165   7.604  69.401  0.00  0.00    +0.000 A 
ATOM      8  C   UNL     1      15.217   7.320  70.857  0.00  0.00    +0.000 A 
ATOM      9  H   UNL     1      15.792   5.865  72.188  0.00  0.00    +0.000 HD
ENDROOT
BRANCH   3  10
ATOM     10  C1* UNL     1      16.541   4.597  67.959  0.00  0.00    +0.000 A 
ATOM     11  O4* UNL     1      17.488   5.006  67.014  0.00  0.00    +0.000 OA
ATOM     12  C4* UNL     1      17.632   3.954  66.100  0.00  0.00    +0.000 A 
ATOM     13  C3* UNL     1      16.761   2.873  66.485  0.00  0.00    +0.000 A 
ATOM     14  C2* UNL     1      16.085   3.302  67.642  0.00  0.00    +0.000 A 
BRANCH  13  15
ATOM     15  O3* UNL     1      16.223   2.036  65.550  0.00  0.00    +0.000 OA
ATOM     16  H3* UNL     1      15.251   2.093  65.547  0.00  0.00    +0.000 HD
ENDBRANCH  13  15
BRANCH  12  17
ATOM     17  C5* UNL     1      18.348   4.093  64.895  0.00  0.00    +0.000 C 
BRANCH  17  18
ATOM     18  O5* UNL     1      19.021   4.227  63.756  0.00  0.00    +0.000 OA
ATOM     19  H5* UNL     1      19.937   4.496  63.936  0.00  0.00    +0.000 HD
ENDBRANCH  17  18
ENDBRANCH  12  17
ENDBRANCH   3  10
BRANCH   7  20
ATOM     20  C   UNL     1      14.597   8.885  68.958  0.00  0.00    +0.000 C 
ATOM     21  F   UNL     1      13.357   9.107  69.462  0.00  0.00    +0.000 F 
ATOM     22  F   UNL     1      15.361   9.938  69.360  0.00  0.00    +0.000 F 
ATOM     23  F   UNL     1      14.511   8.976  67.608  0.00  0.00    +0.000 F 
ENDBRANCH   7  20
TORSDOF 5
ENDMDL
MODEL 6
REMARK VINA RESULT:      -3.1     15.084     16.584
REMARK  Name = Trifluridine.pdbqt.pdb
REMARK  5 active torsions:
REMARK  status: ('A' for Active; 'I' for Inactive)
REMARK    1  A    between atoms: N_3  and  C1*_10
REMARK    2  A    between atoms: C_7  and  C_20
REMARK    3  A    between atoms: C4*_12  and  C5*_15
REMARK    4  A    between atoms: C3*_13  and  O3*_18
REMARK    5  A    between atoms: C5*_15  and  O5*_16
REMARK                            x       y       z     vdW  Elec       q    Type
REMARK                         _______ _______ _______ _____ _____    ______ ____
ROOT
ATOM      1  O   UNL     1      14.801  -3.346  66.144  0.00  0.00    +0.000 OA
ATOM      2  O   UNL     1      10.796  -2.776  68.310  0.00  0.00    +0.000 OA
ATOM      3  N   UNL     1      13.448  -1.506  65.516  0.00  0.00    +0.000 N 
ATOM      4  N   UNL     1      12.791  -3.003  67.197  0.00  0.00    +0.000 N 
ATOM      5  C   UNL     1      12.270  -0.923  65.812  0.00  0.00    +0.000 A 
ATOM      6  C   UNL     1      13.789  -2.664  66.253  0.00  0.00    +0.000 A 
ATOM      7  C   UNL     1      11.306  -1.156  66.640  0.00  0.00    +0.000 A 
ATOM      8  C   UNL     1      11.574  -2.362  67.462  0.00  0.00    +0.000 A 
ATOM      9  H   UNL     1      12.986  -3.826  67.749  0.00  0.00    +0.000 HD
ENDROOT
BRANCH   3  10
ATOM     10  C1* UNL     1      14.232  -0.966  64.538  0.00  0.00    +0.000 A 
ATOM     11  O4* UNL     1      13.810  -0.890  63.205  0.00  0.00    +0.000 OA
ATOM     12  C4* UNL     1      14.858  -0.312  62.478  0.00  0.00    +0.000 A 
ATOM     13  C3* UNL     1      15.949  -0.021  63.375  0.00  0.00    +0.000 A 
ATOM     14  C2* UNL     1      15.536  -0.446  64.650  0.00  0.00    +0.000 A 
BRANCH  13  15
ATOM     15  O3* UNL     1      17.243  -0.047  62.940  0.00  0.00    +0.000 OA
ATOM     16  H3* UNL     1      17.610  -0.947  62.988  0.00  0.00    +0.000 HD
ENDBRANCH  13  15
BRANCH  12  17
ATOM     17  C5* UNL     1      14.869  -0.271  61.071  0.00  0.00    +0.000 C 
BRANCH  17  18
ATOM     18  O5* UNL     1      14.874  -0.233  59.742  0.00  0.00    +0.000 OA
ATOM     19  H5* UNL     1      14.060   0.186  59.415  0.00  0.00    +0.000 HD
ENDBRANCH  17  18
ENDBRANCH  12  17
ENDBRANCH   3  10
BRANCH   7  20
ATOM     20  C   UNL     1      10.039  -0.439  66.843  0.00  0.00    +0.000 C 
ATOM     21  F   UNL     1       9.962   0.700  66.110  0.00  0.00    +0.000 F 
ATOM     22  F   UNL     1       8.969  -1.196  66.475  0.00  0.00    +0.000 F 
ATOM     23  F   UNL     1       9.834  -0.104  68.141  0.00  0.00    +0.000 F 
ENDBRANCH   7  20
TORSDOF 5
ENDMDL
MODEL 7
REMARK VINA RESULT:      -3.0     26.233     27.270
REMARK  Name = Trifluridine.pdbqt.pdb
REMARK  5 active torsions:
REMARK  status: ('A' for Active; 'I' for Inactive)
REMARK    1  A    between atoms: N_3  and  C1*_10
REMARK    2  A    between atoms: C_7  and  C_20
REMARK    3  A    between atoms: C4*_12  and  C5*_15
REMARK    4  A    between atoms: C3*_13  and  O3*_18
REMARK    5  A    between atoms: C5*_15  and  O5*_16
REMARK                            x       y       z     vdW  Elec       q    Type
REMARK                         _______ _______ _______ _____ _____    ______ ____
ROOT
ATOM      1  O   UNL     1      18.442   4.492  50.122  0.00  0.00    +0.000 OA
ATOM      2  O   UNL     1      21.112   2.785  53.441  0.00  0.00    +0.000 OA
ATOM      3  N   UNL     1      17.561   2.763  51.480  0.00  0.00    +0.000 N 
ATOM      4  N   UNL     1      19.726   3.603  51.804  0.00  0.00    +0.000 N 
ATOM      5  C   UNL     1      17.898   1.971  52.518  0.00  0.00    +0.000 A 
ATOM      6  C   UNL     1      18.537   3.688  51.042  0.00  0.00    +0.000 A 
ATOM      7  C   UNL     1      18.942   1.819  53.263  0.00  0.00    +0.000 A 
ATOM      8  C   UNL     1      20.028   2.753  52.875  0.00  0.00    +0.000 A 
ATOM      9  H   UNL     1      20.457   4.244  51.528  0.00  0.00    +0.000 HD
ENDROOT
BRANCH   3  10
ATOM     10  C1* UNL     1      16.326   2.630  50.914  0.00  0.00    +0.000 A 
ATOM     11  O4* UNL     1      15.676   3.700  50.290  0.00  0.00    +0.000 OA
ATOM     12  C4* UNL     1      14.434   3.222  49.851  0.00  0.00    +0.000 A 
ATOM     13  C3* UNL     1      14.313   1.830  50.207  0.00  0.00    +0.000 A 
ATOM     14  C2* UNL     1      15.502   1.488  50.876  0.00  0.00    +0.000 A 
BRANCH  13  15
ATOM     15  O3* UNL     1      13.094   1.278  50.478  0.00  0.00    +0.000 OA
ATOM     16  H3* UNL     1      12.920   1.268  51.436  0.00  0.00    +0.000 HD
ENDBRANCH  13  15
BRANCH  12  17
ATOM     17  C5* UNL     1      13.426   4.076  49.363  0.00  0.00    +0.000 C 
BRANCH  17  18
ATOM     18  O5* UNL     1      12.474   4.879  48.898  0.00  0.00    +0.000 OA
ATOM     19  H5* UNL     1      12.229   4.620  47.994  0.00  0.00    +0.000 HD
ENDBRANCH  17  18
ENDBRANCH  12  17
ENDBRANCH   3  10
BRANCH   7  20
ATOM     20  C   UNL     1      19.188   0.879  54.365  0.00  0.00    +0.000 C 
ATOM     21  F   UNL     1      19.892   1.439  55.380  0.00  0.00    +0.000 F 
ATOM     22  F   UNL     1      18.025   0.432  54.914  0.00  0.00    +0.000 F 
ATOM     23  F   UNL     1      19.863  -0.227  53.963  0.00  0.00    +0.000 F 
ENDBRANCH   7  20
TORSDOF 5
ENDMDL
MODEL 8
REMARK VINA RESULT:      -3.0     10.663     12.840
REMARK  Name = Trifluridine.pdbqt.pdb
REMARK  5 active torsions:
REMARK  status: ('A' for Active; 'I' for Inactive)
REMARK    1  A    between atoms: N_3  and  C1*_10
REMARK    2  A    between atoms: C_7  and  C_20
REMARK    3  A    between atoms: C4*_12  and  C5*_15
REMARK    4  A    between atoms: C3*_13  and  O3*_18
REMARK    5  A    between atoms: C5*_15  and  O5*_16
REMARK                            x       y       z     vdW  Elec       q    Type
REMARK                         _______ _______ _______ _____ _____    ______ ____
ROOT
ATOM      1  O   UNL     1      15.339   0.958  72.022  0.00  0.00    +0.000 OA
ATOM      2  O   UNL     1      12.208   0.294  75.310  0.00  0.00    +0.000 OA
ATOM      3  N   UNL     1      14.177   2.848  72.851  0.00  0.00    +0.000 N 
ATOM      4  N   UNL     1      13.767   0.691  73.673  0.00  0.00    +0.000 N 
ATOM      5  C   UNL     1      13.230   3.186  73.748  0.00  0.00    +0.000 A 
ATOM      6  C   UNL     1      14.515   1.478  72.765  0.00  0.00    +0.000 A 
ATOM      7  C   UNL     1      12.500   2.550  74.603  0.00  0.00    +0.000 A 
ATOM      8  C   UNL     1      12.784   1.094  74.586  0.00  0.00    +0.000 A 
ATOM      9  H   UNL     1      13.971  -0.298  73.650  0.00  0.00    +0.000 HD
ENDROOT
BRANCH   3  10
ATOM     10  C1* UNL     1      14.744   3.824  72.082  0.00  0.00    +0.000 A 
ATOM     11  O4* UNL     1      14.601   3.850  70.690  0.00  0.00    +0.000 OA
ATOM     12  C4* UNL     1      15.324   4.957  70.227  0.00  0.00    +0.000 A 
ATOM     13  C3* UNL     1      15.924   5.631  71.351  0.00  0.00    +0.000 A 
ATOM     14  C2* UNL     1      15.555   4.900  72.494  0.00  0.00    +0.000 A 
BRANCH  13  15
ATOM     15  O3* UNL     1      17.107   6.302  71.219  0.00  0.00    +0.000 OA
ATOM     16  H3* UNL     1      16.957   7.260  71.137  0.00  0.00    +0.000 HD
ENDBRANCH  13  15
BRANCH  12  17
ATOM     17  C5* UNL     1      15.576   5.177  68.859  0.00  0.00    +0.000 C 
BRANCH  17  18
ATOM     18  O5* UNL     1      15.815   5.388  67.569  0.00  0.00    +0.000 OA
ATOM     19  H5* UNL     1      15.541   4.617  67.045  0.00  0.00    +0.000 HD
ENDBRANCH  17  18
ENDBRANCH  12  17
ENDBRANCH   3  10
BRANCH   7  20
ATOM     20  C   UNL     1      11.465   3.050  75.519  0.00  0.00    +0.000 C 
ATOM     21  F   UNL     1      11.267   4.386  75.402  0.00  0.00    +0.000 F 
ATOM     22  F   UNL     1      10.258   2.467  75.279  0.00  0.00    +0.000 F 
ATOM     23  F   UNL     1      11.754   2.793  76.819  0.00  0.00    +0.000 F 
ENDBRANCH   7  20
TORSDOF 5
ENDMDL
MODEL 9
REMARK VINA RESULT:      -3.0      1.491      2.298
REMARK  Name = Trifluridine.pdbqt.pdb
REMARK  5 active torsions:
REMARK  status: ('A' for Active; 'I' for Inactive)
REMARK    1  A    between atoms: N_3  and  C1*_10
REMARK    2  A    between atoms: C_7  and  C_20
REMARK    3  A    between atoms: C4*_12  and  C5*_15
REMARK    4  A    between atoms: C3*_13  and  O3*_18
REMARK    5  A    between atoms: C5*_15  and  O5*_16
REMARK                            x       y       z     vdW  Elec       q    Type
REMARK                         _______ _______ _______ _____ _____    ______ ____
ROOT
ATOM      1  O   UNL     1       1.259  10.029  75.804  0.00  0.00    +0.000 OA
ATOM      2  O   UNL     1       0.710  10.823  71.317  0.00  0.00    +0.000 OA
ATOM      3  N   UNL     1       2.401   8.624  74.277  0.00  0.00    +0.000 N 
ATOM      4  N   UNL     1       1.031  10.382  73.547  0.00  0.00    +0.000 N 
ATOM      5  C   UNL     1       2.575   8.437  72.954  0.00  0.00    +0.000 A 
ATOM      6  C   UNL     1       1.554   9.688  74.664  0.00  0.00    +0.000 A 
ATOM      7  C   UNL     1       2.144   9.004  71.876  0.00  0.00    +0.000 A 
ATOM      8  C   UNL     1       1.240  10.140  72.183  0.00  0.00    +0.000 A 
ATOM      9  H   UNL     1       0.417  11.152  73.771  0.00  0.00    +0.000 HD
ENDROOT
BRANCH   3  10
ATOM     10  C1* UNL     1       3.031   7.791  75.156  0.00  0.00    +0.000 A 
ATOM     11  O4* UNL     1       2.415   6.641  75.662  0.00  0.00    +0.000 OA
ATOM     12  C4* UNL     1       3.325   6.046  76.544  0.00  0.00    +0.000 A 
ATOM     13  C3* UNL     1       4.529   6.838  76.584  0.00  0.00    +0.000 A 
ATOM     14  C2* UNL     1       4.316   7.924  75.717  0.00  0.00    +0.000 A 
BRANCH  13  15
ATOM     15  O3* UNL     1       5.294   6.897  77.714  0.00  0.00    +0.000 OA
ATOM     16  H3* UNL     1       6.223   7.087  77.497  0.00  0.00    +0.000 HD
ENDBRANCH  13  15
BRANCH  12  17
ATOM     17  C5* UNL     1       2.967   4.983  77.396  0.00  0.00    +0.000 C 
BRANCH  17  18
ATOM     18  O5* UNL     1       2.631   3.976  78.197  0.00  0.00    +0.000 OA
ATOM     19  H5* UNL     1       2.061   4.295  78.917  0.00  0.00    +0.000 HD
ENDBRANCH  17  18
ENDBRANCH  12  17
ENDBRANCH   3  10
BRANCH   7  20
ATOM     20  C   UNL     1       2.397   8.673  70.467  0.00  0.00    +0.000 C 
ATOM     21  F   UNL     1       1.288   8.218  69.831  0.00  0.00    +0.000 F 
ATOM     22  F   UNL     1       2.815   9.761  69.763  0.00  0.00    +0.000 F 
ATOM     23  F   UNL     1       3.366   7.736  70.319  0.00  0.00    +0.000 F 
ENDBRANCH   7  20
TORSDOF 5
ENDMDL
