MODEL 1
REMARK VINA RESULT:      -6.0      0.000      0.000
REMARK  Name = Troglitazone.pdbqt.pdb
REMARK  4 active torsions:
REMARK  status: ('A' for Active; 'I' for Inactive)
REMARK    1  A    between atoms: C_1  and  O_2
REMARK    2  A    between atoms: C_1  and  C_18
REMARK    3  A    between atoms: O_2  and  C_3
REMARK    4  A    between atoms: C_26  and  O_32
REMARK                            x       y       z     vdW  Elec       q    Type
REMARK                         _______ _______ _______ _____ _____    ______ ____
ROOT
ATOM      1  C   UNL     1      14.823  -1.698  55.541  0.00  0.00    +0.000 C 
ENDROOT
BRANCH   1   2
ATOM      2  C   UNL     1      15.833  -1.426  54.505  0.00  0.00    +0.000 C 
ATOM      3  O   UNL     1      16.992  -0.816  55.180  0.00  0.00    +0.000 OA
ATOM      4  C   UNL     1      17.813   0.150  54.585  0.00  0.00    +0.000 A 
ATOM      5  C   UNL     1      17.416   0.964  53.483  0.00  0.00    +0.000 A 
ATOM      6  C   UNL     1      19.082   0.352  55.167  0.00  0.00    +0.000 A 
ATOM      7  C   UNL     1      16.115   0.687  52.989  0.00  0.00    +0.000 C 
ATOM      8  C   UNL     1      18.269   1.938  52.949  0.00  0.00    +0.000 A 
ATOM      9  C   UNL     1      15.347  -0.484  53.505  0.00  0.00    +0.000 C 
ATOM     10  C   UNL     1      19.536   2.117  53.524  0.00  0.00    +0.000 A 
ATOM     11  C   UNL     1      17.822   2.788  51.779  0.00  0.00    +0.000 C 
ATOM     12  C   UNL     1      19.942   1.333  54.625  0.00  0.00    +0.000 A 
ATOM     13  C   UNL     1      21.336   1.628  55.178  0.00  0.00    +0.000 C 
ATOM     14  C   UNL     1      19.478  -0.488  56.376  0.00  0.00    +0.000 C 
ATOM     15  C   UNL     1      16.337  -2.732  53.842  0.00  0.00    +0.000 C 
BRANCH  10  16
ATOM     16  O   UNL     1      20.398   3.075  53.016  0.00  0.00    +0.000 OA
ATOM     17  H   UNL     1      20.329   3.878  53.578  0.00  0.00    +0.000 HD
ENDBRANCH  10  16
ENDBRANCH   1   2
BRANCH   1  18
ATOM     18  O   UNL     1      13.910  -1.956  56.479  0.00  0.00    +0.000 OA
BRANCH  18  19
ATOM     19  C   UNL     1      14.247  -1.529  57.740  0.00  0.00    +0.000 C 
ATOM     20  C   UNL     1      13.336  -1.046  58.681  0.00  0.00    +0.000 C 
ATOM     21  C   UNL     1      13.774  -0.642  59.940  0.00  0.00    +0.000 C 
ATOM     22  C   UNL     1      15.127  -0.719  60.259  0.00  0.00    +0.000 C 
ATOM     23  C   UNL     1      16.042  -1.199  59.324  0.00  0.00    +0.000 C 
ATOM     24  C   UNL     1      15.601  -1.605  58.066  0.00  0.00    +0.000 C 
ATOM     25  C   UNL     1      15.578  -0.307  61.546  0.00  0.00    +0.000 C 
ATOM     26  C   UNL     1      16.032   0.107  62.818  0.00  0.00    +0.000 C 
ATOM     27  S   UNL     1      15.208  -0.183  64.302  0.00  0.00    +0.000 S 
ATOM     28  C   UNL     1      16.454   0.627  65.230  0.00  0.00    +0.000 C 
ATOM     29  O   UNL     1      16.436   0.750  66.443  0.00  0.00    +0.000 OA
ATOM     30  N   UNL     1      17.424   1.084  64.400  0.00  0.00    +0.000 N 
ATOM     31  C   UNL     1      17.290   0.843  63.064  0.00  0.00    +0.000 C 
ATOM     32  H   UNL     1      18.226   1.574  64.763  0.00  0.00    +0.000 HD
ATOM     33  O   UNL     1      18.092   1.182  62.210  0.00  0.00    +0.000 OA
ENDBRANCH  18  19
ENDBRANCH   1  18
TORSDOF 4
ENDMDL
MODEL 2
REMARK VINA RESULT:      -5.7     13.555     17.953
REMARK  Name = Troglitazone.pdbqt.pdb
REMARK  4 active torsions:
REMARK  status: ('A' for Active; 'I' for Inactive)
REMARK    1  A    between atoms: C_1  and  O_2
REMARK    2  A    between atoms: C_1  and  C_18
REMARK    3  A    between atoms: O_2  and  C_3
REMARK    4  A    between atoms: C_26  and  O_32
REMARK                            x       y       z     vdW  Elec       q    Type
REMARK                         _______ _______ _______ _____ _____    ______ ____
ROOT
ATOM      1  C   UNL     1       8.142  -1.374  74.572  0.00  0.00    +0.000 C 
ENDROOT
BRANCH   1   2
ATOM      2  C   UNL     1       8.012  -2.128  73.314  0.00  0.00    +0.000 C 
ATOM      3  O   UNL     1       8.697  -1.347  72.269  0.00  0.00    +0.000 OA
ATOM      4  C   UNL     1       8.280  -1.311  70.932  0.00  0.00    +0.000 A 
ATOM      5  C   UNL     1       6.961  -1.639  70.500  0.00  0.00    +0.000 A 
ATOM      6  C   UNL     1       9.224  -0.863  69.984  0.00  0.00    +0.000 A 
ATOM      7  C   UNL     1       6.092  -2.060  71.540  0.00  0.00    +0.000 C 
ATOM      8  C   UNL     1       6.591  -1.553  69.152  0.00  0.00    +0.000 A 
ATOM      9  C   UNL     1       6.619  -2.288  72.917  0.00  0.00    +0.000 C 
ATOM     10  C   UNL     1       7.544  -1.125  68.215  0.00  0.00    +0.000 A 
ATOM     11  C   UNL     1       5.184  -1.908  68.721  0.00  0.00    +0.000 C 
ATOM     12  C   UNL     1       8.849  -0.780  68.624  0.00  0.00    +0.000 A 
ATOM     13  C   UNL     1       9.795  -0.312  67.518  0.00  0.00    +0.000 C 
ATOM     14  C   UNL     1      10.615  -0.467  70.462  0.00  0.00    +0.000 C 
ATOM     15  C   UNL     1       8.731  -3.497  73.392  0.00  0.00    +0.000 C 
BRANCH  10  16
ATOM     16  O   UNL     1       7.202  -1.030  66.876  0.00  0.00    +0.000 OA
ATOM     17  H   UNL     1       7.445  -1.874  66.437  0.00  0.00    +0.000 HD
ENDBRANCH  10  16
ENDBRANCH   1   2
BRANCH   1  18
ATOM     18  O   UNL     1       8.250  -0.688  75.711  0.00  0.00    +0.000 OA
BRANCH  18  19
ATOM     19  C   UNL     1       9.119   0.373  75.661  0.00  0.00    +0.000 C 
ATOM     20  C   UNL     1      10.321   0.378  74.949  0.00  0.00    +0.000 C 
ATOM     21  C   UNL     1      11.134   1.508  74.953  0.00  0.00    +0.000 C 
ATOM     22  C   UNL     1      10.747   2.637  75.669  0.00  0.00    +0.000 C 
ATOM     23  C   UNL     1       9.550   2.639  76.382  0.00  0.00    +0.000 C 
ATOM     24  C   UNL     1       8.736   1.508  76.376  0.00  0.00    +0.000 C 
ATOM     25  C   UNL     1      11.577   3.795  75.674  0.00  0.00    +0.000 C 
ATOM     26  C   UNL     1      12.399   4.944  75.688  0.00  0.00    +0.000 C 
ATOM     27  S   UNL     1      13.264   5.554  74.330  0.00  0.00    +0.000 S 
ATOM     28  C   UNL     1      13.918   6.888  75.260  0.00  0.00    +0.000 C 
ATOM     29  O   UNL     1      14.659   7.743  74.806  0.00  0.00    +0.000 OA
ATOM     30  N   UNL     1      13.471   6.820  76.539  0.00  0.00    +0.000 N 
ATOM     31  C   UNL     1      12.631   5.799  76.871  0.00  0.00    +0.000 C 
ATOM     32  H   UNL     1      13.744   7.512  77.218  0.00  0.00    +0.000 HD
ATOM     33  O   UNL     1      12.144   5.627  77.976  0.00  0.00    +0.000 OA
ENDBRANCH  18  19
ENDBRANCH   1  18
TORSDOF 4
ENDMDL
MODEL 3
REMARK VINA RESULT:      -5.6     13.351     17.714
REMARK  Name = Troglitazone.pdbqt.pdb
REMARK  4 active torsions:
REMARK  status: ('A' for Active; 'I' for Inactive)
REMARK    1  A    between atoms: C_1  and  O_2
REMARK    2  A    between atoms: C_1  and  C_18
REMARK    3  A    between atoms: O_2  and  C_3
REMARK    4  A    between atoms: C_26  and  O_32
REMARK                            x       y       z     vdW  Elec       q    Type
REMARK                         _______ _______ _______ _____ _____    ______ ____
ROOT
ATOM      1  C   UNL     1       8.552  -0.886  74.875  0.00  0.00    +0.000 C 
ENDROOT
BRANCH   1   2
ATOM      2  C   UNL     1       8.708  -1.650  73.625  0.00  0.00    +0.000 C 
ATOM      3  O   UNL     1       9.915  -1.140  72.953  0.00  0.00    +0.000 OA
ATOM      4  C   UNL     1      10.056  -1.072  71.562  0.00  0.00    +0.000 A 
ATOM      5  C   UNL     1       8.959  -1.064  70.650  0.00  0.00    +0.000 A 
ATOM      6  C   UNL     1      11.368  -0.945  71.060  0.00  0.00    +0.000 A 
ATOM      7  C   UNL     1       7.685  -1.179  71.265  0.00  0.00    +0.000 C 
ATOM      8  C   UNL     1       9.158  -0.962  69.268  0.00  0.00    +0.000 A 
ATOM      9  C   UNL     1       7.577  -1.459  72.726  0.00  0.00    +0.000 C 
ATOM     10  C   UNL     1      10.470  -0.855  68.779  0.00  0.00    +0.000 A 
ATOM     11  C   UNL     1       7.976  -0.955  68.322  0.00  0.00    +0.000 C 
ATOM     12  C   UNL     1      11.567  -0.845  69.666  0.00  0.00    +0.000 A 
ATOM     13  C   UNL     1      12.946  -0.708  69.020  0.00  0.00    +0.000 C 
ATOM     14  C   UNL     1      12.530  -0.904  72.045  0.00  0.00    +0.000 C 
ATOM     15  C   UNL     1       8.952  -3.154  73.903  0.00  0.00    +0.000 C 
BRANCH  10  16
ATOM     16  O   UNL     1      10.694  -0.750  67.416  0.00  0.00    +0.000 OA
ATOM     17  H   UNL     1      10.288  -1.530  66.978  0.00  0.00    +0.000 HD
ENDBRANCH  10  16
ENDBRANCH   1   2
BRANCH   1  18
ATOM     18  O   UNL     1       8.418  -0.202  76.012  0.00  0.00    +0.000 OA
BRANCH  18  19
ATOM     19  C   UNL     1       9.090   0.995  76.043  0.00  0.00    +0.000 C 
ATOM     20  C   UNL     1       8.636   2.140  76.702  0.00  0.00    +0.000 C 
ATOM     21  C   UNL     1       9.394   3.308  76.682  0.00  0.00    +0.000 C 
ATOM     22  C   UNL     1      10.609   3.333  76.002  0.00  0.00    +0.000 C 
ATOM     23  C   UNL     1      11.067   2.195  75.343  0.00  0.00    +0.000 C 
ATOM     24  C   UNL     1      10.308   1.027  75.365  0.00  0.00    +0.000 C 
ATOM     25  C   UNL     1      11.386   4.526  75.982  0.00  0.00    +0.000 C 
ATOM     26  C   UNL     1      12.159   5.709  75.951  0.00  0.00    +0.000 C 
ATOM     27  S   UNL     1      12.371   6.782  77.281  0.00  0.00    +0.000 S 
ATOM     28  C   UNL     1      13.406   7.844  76.347  0.00  0.00    +0.000 C 
ATOM     29  O   UNL     1      13.919   8.860  76.782  0.00  0.00    +0.000 OA
ATOM     30  N   UNL     1      13.544   7.360  75.087  0.00  0.00    +0.000 N 
ATOM     31  C   UNL     1      12.909   6.195  74.774  0.00  0.00    +0.000 C 
ATOM     32  H   UNL     1      14.112   7.843  74.408  0.00  0.00    +0.000 HD
ATOM     33  O   UNL     1      12.959   5.642  73.689  0.00  0.00    +0.000 OA
ENDBRANCH  18  19
ENDBRANCH   1  18
TORSDOF 4
ENDMDL
MODEL 4
REMARK VINA RESULT:      -5.4     19.421     22.593
REMARK  Name = Troglitazone.pdbqt.pdb
REMARK  4 active torsions:
REMARK  status: ('A' for Active; 'I' for Inactive)
REMARK    1  A    between atoms: C_1  and  O_2
REMARK    2  A    between atoms: C_1  and  C_18
REMARK    3  A    between atoms: O_2  and  C_3
REMARK    4  A    between atoms: C_26  and  O_32
REMARK                            x       y       z     vdW  Elec       q    Type
REMARK                         _______ _______ _______ _____ _____    ______ ____
ROOT
ATOM      1  C   UNL     1       5.449   3.547  78.281  0.00  0.00    +0.000 C 
ENDROOT
BRANCH   1   2
ATOM      2  C   UNL     1       6.760   2.878  78.349  0.00  0.00    +0.000 C 
ATOM      3  O   UNL     1       7.731   3.759  77.678  0.00  0.00    +0.000 OA
ATOM      4  C   UNL     1       8.832   3.285  76.953  0.00  0.00    +0.000 A 
ATOM      5  C   UNL     1       8.923   1.969  76.412  0.00  0.00    +0.000 A 
ATOM      6  C   UNL     1       9.874   4.204  76.707  0.00  0.00    +0.000 A 
ATOM      7  C   UNL     1       7.812   1.137  76.706  0.00  0.00    +0.000 C 
ATOM      8  C   UNL     1      10.035   1.561  75.666  0.00  0.00    +0.000 A 
ATOM      9  C   UNL     1       6.754   1.598  77.652  0.00  0.00    +0.000 C 
ATOM     10  C   UNL     1      11.075   2.477  75.444  0.00  0.00    +0.000 A 
ATOM     11  C   UNL     1      10.106   0.157  75.103  0.00  0.00    +0.000 C 
ATOM     12  C   UNL     1      10.997   3.789  75.957  0.00  0.00    +0.000 A 
ATOM     13  C   UNL     1      12.179   4.703  75.637  0.00  0.00    +0.000 C 
ATOM     14  C   UNL     1       9.745   5.623  77.246  0.00  0.00    +0.000 C 
ATOM     15  C   UNL     1       7.241   2.714  79.812  0.00  0.00    +0.000 C 
BRANCH  10  16
ATOM     16  O   UNL     1      12.185   2.098  74.707  0.00  0.00    +0.000 OA
ATOM     17  H   UNL     1      12.199   2.627  73.880  0.00  0.00    +0.000 HD
ENDBRANCH  10  16
ENDBRANCH   1   2
BRANCH   1  18
ATOM     18  O   UNL     1       4.265   4.156  78.209  0.00  0.00    +0.000 OA
BRANCH  18  19
ATOM     19  C   UNL     1       4.122   5.008  77.142  0.00  0.00    +0.000 C 
ATOM     20  C   UNL     1       4.640   4.772  75.867  0.00  0.00    +0.000 C 
ATOM     21  C   UNL     1       4.437   5.696  74.844  0.00  0.00    +0.000 C 
ATOM     22  C   UNL     1       3.715   6.859  75.096  0.00  0.00    +0.000 C 
ATOM     23  C   UNL     1       3.196   7.101  76.366  0.00  0.00    +0.000 C 
ATOM     24  C   UNL     1       3.399   6.175  77.387  0.00  0.00    +0.000 C 
ATOM     25  C   UNL     1       3.505   7.804  74.052  0.00  0.00    +0.000 C 
ATOM     26  C   UNL     1       3.300   8.750  73.023  0.00  0.00    +0.000 C 
ATOM     27  S   UNL     1       2.957   8.360  71.380  0.00  0.00    +0.000 S 
ATOM     28  C   UNL     1       2.865  10.051  70.928  0.00  0.00    +0.000 C 
ATOM     29  O   UNL     1       2.622  10.448  69.801  0.00  0.00    +0.000 OA
ATOM     30  N   UNL     1       3.099  10.832  72.013  0.00  0.00    +0.000 N 
ATOM     31  C   UNL     1       3.339  10.216  73.205  0.00  0.00    +0.000 C 
ATOM     32  H   UNL     1       3.081  11.836  71.939  0.00  0.00    +0.000 HD
ATOM     33  O   UNL     1       3.549  10.793  74.259  0.00  0.00    +0.000 OA
ENDBRANCH  18  19
ENDBRANCH   1  18
TORSDOF 4
ENDMDL
MODEL 5
REMARK VINA RESULT:      -5.3     15.267     20.769
REMARK  Name = Troglitazone.pdbqt.pdb
REMARK  4 active torsions:
REMARK  status: ('A' for Active; 'I' for Inactive)
REMARK    1  A    between atoms: C_1  and  O_2
REMARK    2  A    between atoms: C_1  and  C_18
REMARK    3  A    between atoms: O_2  and  C_3
REMARK    4  A    between atoms: C_26  and  O_32
REMARK                            x       y       z     vdW  Elec       q    Type
REMARK                         _______ _______ _______ _____ _____    ______ ____
ROOT
ATOM      1  C   UNL     1      10.156   7.237  77.238  0.00  0.00    +0.000 C 
ENDROOT
BRANCH   1   2
ATOM      2  C   UNL     1      10.101   5.853  77.736  0.00  0.00    +0.000 C 
ATOM      3  O   UNL     1      10.611   4.984  76.661  0.00  0.00    +0.000 OA
ATOM      4  C   UNL     1      10.143   3.685  76.429  0.00  0.00    +0.000 A 
ATOM      5  C   UNL     1       8.878   3.202  76.877  0.00  0.00    +0.000 A 
ATOM      6  C   UNL     1      10.966   2.842  75.652  0.00  0.00    +0.000 A 
ATOM      7  C   UNL     1       8.128   4.139  77.634  0.00  0.00    +0.000 C 
ATOM      8  C   UNL     1       8.448   1.901  76.587  0.00  0.00    +0.000 A 
ATOM      9  C   UNL     1       8.737   5.438  78.042  0.00  0.00    +0.000 C 
ATOM     10  C   UNL     1       9.283   1.065  75.830  0.00  0.00    +0.000 A 
ATOM     11  C   UNL     1       7.101   1.414  77.075  0.00  0.00    +0.000 C 
ATOM     12  C   UNL     1      10.531   1.530  75.363  0.00  0.00    +0.000 A 
ATOM     13  C   UNL     1      11.346   0.537  74.534  0.00  0.00    +0.000 C 
ATOM     14  C   UNL     1      12.293   3.384  75.135  0.00  0.00    +0.000 C 
ATOM     15  C   UNL     1      11.033   5.648  78.957  0.00  0.00    +0.000 C 
BRANCH  10  16
ATOM     16  O   UNL     1       8.880  -0.225  75.527  0.00  0.00    +0.000 OA
ATOM     17  H   UNL     1       8.285  -0.185  74.747  0.00  0.00    +0.000 HD
ENDBRANCH  10  16
ENDBRANCH   1   2
BRANCH   1  18
ATOM     18  O   UNL     1      10.196   8.492  76.787  0.00  0.00    +0.000 OA
BRANCH  18  19
ATOM     19  C   UNL     1      10.896   8.660  75.618  0.00  0.00    +0.000 C 
ATOM     20  C   UNL     1      12.075   7.984  75.299  0.00  0.00    +0.000 C 
ATOM     21  C   UNL     1      12.711   8.216  74.082  0.00  0.00    +0.000 C 
ATOM     22  C   UNL     1      12.167   9.127  73.181  0.00  0.00    +0.000 C 
ATOM     23  C   UNL     1      10.990   9.806  73.493  0.00  0.00    +0.000 C 
ATOM     24  C   UNL     1      10.355   9.570  74.710  0.00  0.00    +0.000 C 
ATOM     25  C   UNL     1      12.814   9.366  71.935  0.00  0.00    +0.000 C 
ATOM     26  C   UNL     1      13.456   9.613  70.700  0.00  0.00    +0.000 C 
ATOM     27  S   UNL     1      14.204   8.411  69.720  0.00  0.00    +0.000 S 
ATOM     28  C   UNL     1      14.661   9.589  68.506  0.00  0.00    +0.000 C 
ATOM     29  O   UNL     1      15.261   9.319  67.479  0.00  0.00    +0.000 OA
ATOM     30  N   UNL     1      14.245  10.824  68.882  0.00  0.00    +0.000 N 
ATOM     31  C   UNL     1      13.570  10.941  70.061  0.00  0.00    +0.000 C 
ATOM     32  H   UNL     1      14.418  11.627  68.299  0.00  0.00    +0.000 HD
ATOM     33  O   UNL     1      13.127  11.984  70.511  0.00  0.00    +0.000 OA
ENDBRANCH  18  19
ENDBRANCH   1  18
TORSDOF 4
ENDMDL
MODEL 6
REMARK VINA RESULT:      -5.3      4.231      9.448
REMARK  Name = Troglitazone.pdbqt.pdb
REMARK  4 active torsions:
REMARK  status: ('A' for Active; 'I' for Inactive)
REMARK    1  A    between atoms: C_1  and  O_2
REMARK    2  A    between atoms: C_1  and  C_18
REMARK    3  A    between atoms: O_2  and  C_3
REMARK    4  A    between atoms: C_26  and  O_32
REMARK                            x       y       z     vdW  Elec       q    Type
REMARK                         _______ _______ _______ _____ _____    ______ ____
ROOT
ATOM      1  C   UNL     1      21.037  -0.609  58.545  0.00  0.00    +0.000 C 
ENDROOT
BRANCH   1   2
ATOM      2  C   UNL     1      20.399  -1.030  59.804  0.00  0.00    +0.000 C 
ATOM      3  O   UNL     1      18.942  -0.949  59.600  0.00  0.00    +0.000 OA
ATOM      4  C   UNL     1      18.038  -0.608  60.613  0.00  0.00    +0.000 A 
ATOM      5  C   UNL     1      18.397   0.101  61.797  0.00  0.00    +0.000 A 
ATOM      6  C   UNL     1      16.685  -0.946  60.399  0.00  0.00    +0.000 A 
ATOM      7  C   UNL     1      19.780   0.404  61.901  0.00  0.00    +0.000 C 
ATOM      8  C   UNL     1      17.443   0.444  62.763  0.00  0.00    +0.000 A 
ATOM      9  C   UNL     1      20.749  -0.151  60.912  0.00  0.00    +0.000 C 
ATOM     10  C   UNL     1      16.103   0.085  62.547  0.00  0.00    +0.000 A 
ATOM     11  C   UNL     1      17.853   1.197  64.011  0.00  0.00    +0.000 C 
ATOM     12  C   UNL     1      15.724  -0.602  61.375  0.00  0.00    +0.000 A 
ATOM     13  C   UNL     1      14.236  -0.925  61.241  0.00  0.00    +0.000 C 
ATOM     14  C   UNL     1      16.302  -1.659  59.107  0.00  0.00    +0.000 C 
ATOM     15  C   UNL     1      20.722  -2.507  60.141  0.00  0.00    +0.000 C 
BRANCH  10  16
ATOM     16  O   UNL     1      15.139   0.414  63.486  0.00  0.00    +0.000 OA
ATOM     17  H   UNL     1      15.405   1.256  63.916  0.00  0.00    +0.000 HD
ENDBRANCH  10  16
ENDBRANCH   1   2
BRANCH   1  18
ATOM     18  O   UNL     1      21.604  -0.226  57.400  0.00  0.00    +0.000 OA
BRANCH  18  19
ATOM     19  C   UNL     1      20.720   0.147  56.419  0.00  0.00    +0.000 C 
ATOM     20  C   UNL     1      20.898   1.238  55.566  0.00  0.00    +0.000 C 
ATOM     21  C   UNL     1      19.946   1.533  54.594  0.00  0.00    +0.000 C 
ATOM     22  C   UNL     1      18.811   0.736  54.473  0.00  0.00    +0.000 C 
ATOM     23  C   UNL     1      18.626  -0.354  55.321  0.00  0.00    +0.000 C 
ATOM     24  C   UNL     1      19.581  -0.648  56.292  0.00  0.00    +0.000 C 
ATOM     25  C   UNL     1      17.836   1.035  53.479  0.00  0.00    +0.000 C 
ATOM     26  C   UNL     1      16.861   1.331  52.500  0.00  0.00    +0.000 C 
ATOM     27  S   UNL     1      17.203   1.864  50.898  0.00  0.00    +0.000 S 
ATOM     28  C   UNL     1      15.501   1.943  50.489  0.00  0.00    +0.000 C 
ATOM     29  O   UNL     1      15.071   2.275  49.397  0.00  0.00    +0.000 OA
ATOM     30  N   UNL     1      14.752   1.576  51.559  0.00  0.00    +0.000 N 
ATOM     31  C   UNL     1      15.402   1.216  52.703  0.00  0.00    +0.000 C 
ATOM     32  H   UNL     1      13.746   1.558  51.503  0.00  0.00    +0.000 HD
ATOM     33  O   UNL     1      14.856   0.852  53.731  0.00  0.00    +0.000 OA
ENDBRANCH  18  19
ENDBRANCH   1  18
TORSDOF 4
ENDMDL
MODEL 7
REMARK VINA RESULT:      -5.3     12.678     16.242
REMARK  Name = Troglitazone.pdbqt.pdb
REMARK  4 active torsions:
REMARK  status: ('A' for Active; 'I' for Inactive)
REMARK    1  A    between atoms: C_1  and  O_2
REMARK    2  A    between atoms: C_1  and  C_18
REMARK    3  A    between atoms: O_2  and  C_3
REMARK    4  A    between atoms: C_26  and  O_32
REMARK                            x       y       z     vdW  Elec       q    Type
REMARK                         _______ _______ _______ _____ _____    ______ ____
ROOT
ATOM      1  C   UNL     1      11.190  -0.320  73.467  0.00  0.00    +0.000 C 
ENDROOT
BRANCH   1   2
ATOM      2  C   UNL     1      10.351  -1.319  72.783  0.00  0.00    +0.000 C 
ATOM      3  O   UNL     1      10.219  -0.887  71.381  0.00  0.00    +0.000 OA
ATOM      4  C   UNL     1       9.071  -1.106  70.609  0.00  0.00    +0.000 A 
ATOM      5  C   UNL     1       7.779  -1.360  71.157  0.00  0.00    +0.000 A 
ATOM      6  C   UNL     1       9.217  -1.005  69.209  0.00  0.00    +0.000 A 
ATOM      7  C   UNL     1       7.746  -1.423  72.574  0.00  0.00    +0.000 C 
ATOM      8  C   UNL     1       6.659  -1.539  70.336  0.00  0.00    +0.000 A 
ATOM      9  C   UNL     1       9.014  -1.394  73.359  0.00  0.00    +0.000 C 
ATOM     10  C   UNL     1       6.820  -1.455  68.944  0.00  0.00    +0.000 A 
ATOM     11  C   UNL     1       5.299  -1.808  70.944  0.00  0.00    +0.000 C 
ATOM     12  C   UNL     1       8.087  -1.189  68.383  0.00  0.00    +0.000 A 
ATOM     13  C   UNL     1       8.137  -1.104  66.857  0.00  0.00    +0.000 C 
ATOM     14  C   UNL     1      10.592  -0.683  68.636  0.00  0.00    +0.000 C 
ATOM     15  C   UNL     1      11.027  -2.712  72.760  0.00  0.00    +0.000 C 
BRANCH  10  16
ATOM     16  O   UNL     1       5.728  -1.627  68.110  0.00  0.00    +0.000 OA
ATOM     17  H   UNL     1       5.112  -0.875  68.252  0.00  0.00    +0.000 HD
ENDBRANCH  10  16
ENDBRANCH   1   2
BRANCH   1  18
ATOM     18  O   UNL     1      11.946   0.580  74.097  0.00  0.00    +0.000 OA
BRANCH  18  19
ATOM     19  C   UNL     1      12.704   1.371  73.269  0.00  0.00    +0.000 C 
ATOM     20  C   UNL     1      13.170   0.980  72.012  0.00  0.00    +0.000 C 
ATOM     21  C   UNL     1      13.929   1.858  71.241  0.00  0.00    +0.000 C 
ATOM     22  C   UNL     1      14.222   3.129  71.726  0.00  0.00    +0.000 C 
ATOM     23  C   UNL     1      13.760   3.525  72.980  0.00  0.00    +0.000 C 
ATOM     24  C   UNL     1      13.001   2.646  73.749  0.00  0.00    +0.000 C 
ATOM     25  C   UNL     1      14.996   4.029  70.939  0.00  0.00    +0.000 C 
ATOM     26  C   UNL     1      15.771   4.923  70.166  0.00  0.00    +0.000 C 
ATOM     27  S   UNL     1      15.641   5.118  68.460  0.00  0.00    +0.000 S 
ATOM     28  C   UNL     1      16.890   6.347  68.438  0.00  0.00    +0.000 C 
ATOM     29  O   UNL     1      17.270   6.922  67.432  0.00  0.00    +0.000 OA
ATOM     30  N   UNL     1      17.353   6.556  69.696  0.00  0.00    +0.000 N 
ATOM     31  C   UNL     1      16.800   5.833  70.711  0.00  0.00    +0.000 C 
ATOM     32  H   UNL     1      18.075   7.236  69.873  0.00  0.00    +0.000 HD
ATOM     33  O   UNL     1      17.110   5.930  71.886  0.00  0.00    +0.000 OA
ENDBRANCH  18  19
ENDBRANCH   1  18
TORSDOF 4
ENDMDL
MODEL 8
REMARK VINA RESULT:      -5.3      6.026      9.280
REMARK  Name = Troglitazone.pdbqt.pdb
REMARK  4 active torsions:
REMARK  status: ('A' for Active; 'I' for Inactive)
REMARK    1  A    between atoms: C_1  and  O_2
REMARK    2  A    between atoms: C_1  and  C_18
REMARK    3  A    between atoms: O_2  and  C_3
REMARK    4  A    between atoms: C_26  and  O_32
REMARK                            x       y       z     vdW  Elec       q    Type
REMARK                         _______ _______ _______ _____ _____    ______ ____
ROOT
ATOM      1  C   UNL     1      21.630   4.942  52.300  0.00  0.00    +0.000 C 
ENDROOT
BRANCH   1   2
ATOM      2  C   UNL     1      21.519   3.490  52.520  0.00  0.00    +0.000 C 
ATOM      3  O   UNL     1      20.083   3.169  52.585  0.00  0.00    +0.000 OA
ATOM      4  C   UNL     1      19.552   2.155  53.392  0.00  0.00    +0.000 A 
ATOM      5  C   UNL     1      20.217   1.614  54.531  0.00  0.00    +0.000 A 
ATOM      6  C   UNL     1      18.256   1.699  53.071  0.00  0.00    +0.000 A 
ATOM      7  C   UNL     1      21.506   2.157  54.770  0.00  0.00    +0.000 C 
ATOM      8  C   UNL     1      19.624   0.621  55.321  0.00  0.00    +0.000 A 
ATOM      9  C   UNL     1      22.130   3.082  53.779  0.00  0.00    +0.000 C 
ATOM     10  C   UNL     1      18.342   0.162  54.981  0.00  0.00    +0.000 A 
ATOM     11  C   UNL     1      20.352   0.064  56.526  0.00  0.00    +0.000 C 
ATOM     12  C   UNL     1      17.661   0.696  53.867  0.00  0.00    +0.000 A 
ATOM     13  C   UNL     1      16.265   0.131  53.604  0.00  0.00    +0.000 C 
ATOM     14  C   UNL     1      17.534   2.319  51.881  0.00  0.00    +0.000 C 
ATOM     15  C   UNL     1      22.103   2.687  51.331  0.00  0.00    +0.000 C 
BRANCH  10  16
ATOM     16  O   UNL     1      17.732  -0.817  55.748  0.00  0.00    +0.000 OA
ATOM     17  H   UNL     1      18.068  -1.691  55.452  0.00  0.00    +0.000 HD
ENDBRANCH  10  16
ENDBRANCH   1   2
BRANCH   1  18
ATOM     18  O   UNL     1      21.718   6.258  52.100  0.00  0.00    +0.000 OA
BRANCH  18  19
ATOM     19  C   UNL     1      21.268   7.027  53.144  0.00  0.00    +0.000 C 
ATOM     20  C   UNL     1      20.034   7.679  53.171  0.00  0.00    +0.000 C 
ATOM     21  C   UNL     1      19.662   8.434  54.281  0.00  0.00    +0.000 C 
ATOM     22  C   UNL     1      20.526   8.538  55.368  0.00  0.00    +0.000 C 
ATOM     23  C   UNL     1      21.759   7.890  55.347  0.00  0.00    +0.000 C 
ATOM     24  C   UNL     1      22.129   7.135  54.237  0.00  0.00    +0.000 C 
ATOM     25  C   UNL     1      20.147   9.307  56.504  0.00  0.00    +0.000 C 
ATOM     26  C   UNL     1      19.781  10.076  57.632  0.00  0.00    +0.000 C 
ATOM     27  S   UNL     1      18.200  10.135  58.313  0.00  0.00    +0.000 S 
ATOM     28  C   UNL     1      18.709  11.248  59.568  0.00  0.00    +0.000 C 
ATOM     29  O   UNL     1      17.974  11.687  60.436  0.00  0.00    +0.000 OA
ATOM     30  N   UNL     1      20.028  11.532  59.424  0.00  0.00    +0.000 N 
ATOM     31  C   UNL     1      20.704  10.936  58.402  0.00  0.00    +0.000 C 
ATOM     32  H   UNL     1      20.494  12.155  60.064  0.00  0.00    +0.000 HD
ATOM     33  O   UNL     1      21.891  11.089  58.166  0.00  0.00    +0.000 OA
ENDBRANCH  18  19
ENDBRANCH   1  18
TORSDOF 4
ENDMDL
MODEL 9
REMARK VINA RESULT:      -5.2      4.102      9.296
REMARK  Name = Troglitazone.pdbqt.pdb
REMARK  4 active torsions:
REMARK  status: ('A' for Active; 'I' for Inactive)
REMARK    1  A    between atoms: C_1  and  O_2
REMARK    2  A    between atoms: C_1  and  C_18
REMARK    3  A    between atoms: O_2  and  C_3
REMARK    4  A    between atoms: C_26  and  O_32
REMARK                            x       y       z     vdW  Elec       q    Type
REMARK                         _______ _______ _______ _____ _____    ______ ____
ROOT
ATOM      1  C   UNL     1      21.538   0.675  58.091  0.00  0.00    +0.000 C 
ENDROOT
BRANCH   1   2
ATOM      2  C   UNL     1      21.489   0.536  59.556  0.00  0.00    +0.000 C 
ATOM      3  O   UNL     1      20.093   0.236  59.917  0.00  0.00    +0.000 OA
ATOM      4  C   UNL     1      19.490   0.670  61.104  0.00  0.00    +0.000 A 
ATOM      5  C   UNL     1      19.961   1.770  61.881  0.00  0.00    +0.000 A 
ATOM      6  C   UNL     1      18.314  -0.000  61.503  0.00  0.00    +0.000 A 
ATOM      7  C   UNL     1      21.139   2.380  61.378  0.00  0.00    +0.000 C 
ATOM      8  C   UNL     1      19.298   2.180  63.044  0.00  0.00    +0.000 A 
ATOM      9  C   UNL     1      21.874   1.768  60.233  0.00  0.00    +0.000 C 
ATOM     10  C   UNL     1      18.140   1.494  63.441  0.00  0.00    +0.000 A 
ATOM     11  C   UNL     1      19.820   3.351  63.850  0.00  0.00    +0.000 C 
ATOM     12  C   UNL     1      17.649   0.413  62.678  0.00  0.00    +0.000 A 
ATOM     13  C   UNL     1      16.372  -0.246  63.198  0.00  0.00    +0.000 C 
ATOM     14  C   UNL     1      17.791  -1.141  60.639  0.00  0.00    +0.000 C 
ATOM     15  C   UNL     1      22.344  -0.659  60.045  0.00  0.00    +0.000 C 
BRANCH  10  16
ATOM     16  O   UNL     1      17.465   1.881  64.587  0.00  0.00    +0.000 OA
ATOM     17  H   UNL     1      17.784   2.774  64.844  0.00  0.00    +0.000 HD
ENDBRANCH  10  16
ENDBRANCH   1   2
BRANCH   1  18
ATOM     18  O   UNL     1      21.572   0.796  56.763  0.00  0.00    +0.000 OA
BRANCH  18  19
ATOM     19  C   UNL     1      20.389   0.503  56.131  0.00  0.00    +0.000 C 
ATOM     20  C   UNL     1      19.465  -0.443  56.580  0.00  0.00    +0.000 C 
ATOM     21  C   UNL     1      18.287  -0.665  55.872  0.00  0.00    +0.000 C 
ATOM     22  C   UNL     1      18.030   0.059  54.711  0.00  0.00    +0.000 C 
ATOM     23  C   UNL     1      18.948   1.004  54.256  0.00  0.00    +0.000 C 
ATOM     24  C   UNL     1      20.125   1.226  54.967  0.00  0.00    +0.000 C 
ATOM     25  C   UNL     1      16.825  -0.166  53.986  0.00  0.00    +0.000 C 
ATOM     26  C   UNL     1      15.636  -0.390  53.257  0.00  0.00    +0.000 C 
ATOM     27  S   UNL     1      14.087  -0.667  53.959  0.00  0.00    +0.000 S 
ATOM     28  C   UNL     1      13.325  -0.808  52.387  0.00  0.00    +0.000 C 
ATOM     29  O   UNL     1      12.135  -1.014  52.217  0.00  0.00    +0.000 OA
ATOM     30  N   UNL     1      14.252  -0.648  51.410  0.00  0.00    +0.000 N 
ATOM     31  C   UNL     1      15.541  -0.407  51.782  0.00  0.00    +0.000 C 
ATOM     32  H   UNL     1      13.990  -0.693  50.438  0.00  0.00    +0.000 HD
ATOM     33  O   UNL     1      16.469  -0.231  51.011  0.00  0.00    +0.000 OA
ENDBRANCH  18  19
ENDBRANCH   1  18
TORSDOF 4
ENDMDL
