MODEL 1
REMARK VINA RESULT:      -4.9      0.000      0.000
REMARK  Name = 
REMARK  19 active torsions:
REMARK  status: ('A' for Active; 'I' for Inactive)
REMARK    1  A    between atoms: O_1  and  C_20
REMARK    2  A    between atoms: O_1  and  C_36
REMARK    3  A    between atoms: O_2  and  C_18
REMARK    4  A    between atoms: O_3  and  C_28
REMARK    5  A    between atoms: O_3  and  C_42
REMARK    6  A    between atoms: O_5  and  C_34
REMARK    7  A    between atoms: O_5  and  C_50
REMARK    8  A    between atoms: O_7  and  C_40
REMARK    9  A    between atoms: O_7  and  C_56
REMARK   10  A    between atoms: O_9  and  C_46
REMARK   11  A    between atoms: N_11  and  C_30
REMARK   12  A    between atoms: C_17  and  C_23
REMARK   13  A    between atoms: C_18  and  C_28
REMARK   14  A    between atoms: C_23  and  C_32
REMARK   15  A    between atoms: C_33  and  C_35
REMARK   16  A    between atoms: C_35  and  C_40
REMARK   17  A    between atoms: C_36  and  C_41
REMARK   18  A    between atoms: C_46  and  C_53
REMARK   19  A    between atoms: C_53  and  C_57
REMARK                            x       y       z     vdW  Elec       q    Type
REMARK                         _______ _______ _______ _____ _____    ______ ____
ROOT
ATOM      1  N   UNL     1      19.797  11.875  60.604  0.00  0.00    +0.000 NA
ATOM      2  N   UNL     1      19.797   8.516  63.995  0.00  0.00    +0.000 N 
ATOM      3  C   UNL     1      19.759  10.239  62.265  0.00  0.00    +0.000 C 
ATOM      4  C   UNL     1      18.845  10.955  61.256  0.00  0.00    +0.000 C 
ATOM      5  C   UNL     1      18.918   9.535  63.349  0.00  0.00    +0.000 C 
ATOM      6  C   UNL     1      17.540  11.601  61.915  0.00  0.00    +0.000 C 
ATOM      7  C   UNL     1      18.076  10.456  64.248  0.00  0.00    +0.000 C 
ATOM      8  C   UNL     1      20.815  11.288  62.664  0.00  0.00    +0.000 C 
ATOM      9  C   UNL     1      17.649  11.759  63.496  0.00  0.00    +0.000 C 
ATOM     10  C   UNL     1      20.521   9.009  61.811  0.00  0.00    +0.000 A 
ATOM     11  C   UNL     1      20.694  12.401  61.627  0.00  0.00    +0.000 C 
ATOM     12  C   UNL     1      20.558   8.086  62.864  0.00  0.00    +0.000 A 
ATOM     13  C   UNL     1      17.240  12.983  61.331  0.00  0.00    +0.000 C 
ATOM     14  C   UNL     1      19.186  12.895  59.767  0.00  0.00    +0.000 C 
ATOM     15  C   UNL     1      17.977  13.543  60.361  0.00  0.00    +0.000 C 
ATOM     16  C   UNL     1      21.163   8.771  60.600  0.00  0.00    +0.000 A 
ATOM     17  C   UNL     1      19.147   7.436  64.736  0.00  0.00    +0.000 C 
ATOM     18  C   UNL     1      21.283   6.918  62.723  0.00  0.00    +0.000 A 
ATOM     19  C   UNL     1      21.906   7.588  60.422  0.00  0.00    +0.000 A 
ATOM     20  C   UNL     1      21.959   6.674  61.516  0.00  0.00    +0.000 A 
ENDROOT
BRANCH  19  23
ATOM     21  N   UNL     1      24.666   5.781  55.555  0.00  0.00    +0.000 NA
ATOM     22  N   UNL     1      20.512   7.971  57.950  0.00  0.00    +0.000 N 
ATOM     23  C   UNL     1      22.677   7.278  59.076  0.00  0.00    +0.000 C 
ATOM     24  C   UNL     1      22.851   5.706  58.855  0.00  0.00    +0.000 C 
ATOM     25  C   UNL     1      21.885   7.830  57.842  0.00  0.00    +0.000 A 
ATOM     26  C   UNL     1      23.261   5.243  57.448  0.00  0.00    +0.000 C 
ATOM     27  C   UNL     1      23.262   3.729  57.244  0.00  0.00    +0.000 C 
ATOM     28  C   UNL     1      24.632   5.734  57.006  0.00  0.00    +0.000 C 
ATOM     29  C   UNL     1      22.207   8.163  56.514  0.00  0.00    +0.000 A 
ATOM     30  C   UNL     1      23.652   3.346  55.785  0.00  0.00    +0.000 C 
ATOM     31  C   UNL     1      24.463   4.437  54.972  0.00  0.00    +0.000 C 
ATOM     32  C   UNL     1      23.528   8.126  55.761  0.00  0.00    +0.000 C 
ATOM     33  C   UNL     1      23.769   6.808  54.965  0.00  0.00    +0.000 C 
ATOM     34  C   UNL     1      20.975   8.554  55.868  0.00  0.00    +0.000 A 
ATOM     35  C   UNL     1      19.948   8.423  56.790  0.00  0.00    +0.000 A 
ATOM     36  C   UNL     1      20.646   8.993  54.566  0.00  0.00    +0.000 A 
ATOM     37  C   UNL     1      18.610   8.713  56.495  0.00  0.00    +0.000 A 
ATOM     38  C   UNL     1      19.315   9.290  54.249  0.00  0.00    +0.000 A 
ATOM     39  C   UNL     1      18.312   9.151  55.202  0.00  0.00    +0.000 A 
ATOM     40  H   UNL     1      19.981   7.784  58.791  0.00  0.00    +0.000 HD
BRANCH  23  42
ATOM     41  O   UNL     1      24.391   9.097  58.897  0.00  0.00    +0.000 OA
ATOM     42  C   UNL     1      24.073   7.965  59.240  0.00  0.00    +0.000 C 
BRANCH  42  43
ATOM     43  O   UNL     1      24.943   7.110  59.877  0.00  0.00    +0.000 OA
ATOM     44  C   UNL     1      25.915   7.770  60.687  0.00  0.00    +0.000 C 
ENDBRANCH  42  43
ENDBRANCH  23  42
BRANCH  30  45
ATOM     45  O   UNL     1      24.507   2.182  55.911  0.00  0.00    +0.000 OA
ATOM     46  H   UNL     1      24.502   1.724  55.052  0.00  0.00    +0.000 HD
ENDBRANCH  30  45
BRANCH  30  47
ATOM     47  C   UNL     1      22.432   2.824  54.990  0.00  0.00    +0.000 C 
ATOM     48  C   UNL     1      22.067   3.588  53.729  0.00  0.00    +0.000 C 
ENDBRANCH  30  47
ENDBRANCH  19  23
BRANCH   7  49
ATOM     49  O   UNL     1      16.838   9.718  64.510  0.00  0.00    +0.000 OA
ATOM     50  H   UNL     1      16.582   9.939  65.430  0.00  0.00    +0.000 HD
ENDBRANCH   7  49
BRANCH   7  52
ATOM     51  O   UNL     1      19.953  10.979  65.787  0.00  0.00    +0.000 OA
ATOM     52  C   UNL     1      18.765  10.751  65.604  0.00  0.00    +0.000 C 
BRANCH  52  53
ATOM     53  O   UNL     1      17.819  10.805  66.599  0.00  0.00    +0.000 OA
ATOM     54  C   UNL     1      18.157  10.046  67.762  0.00  0.00    +0.000 C 
ENDBRANCH  52  53
ENDBRANCH   7  52
BRANCH  20  55
ATOM     55  O   UNL     1      22.650   5.505  61.324  0.00  0.00    +0.000 OA
ATOM     56  C   UNL     1      23.365   5.029  62.461  0.00  0.00    +0.000 C 
ENDBRANCH  20  55
BRANCH   6  57
ATOM     57  C   UNL     1      16.286  10.708  61.589  0.00  0.00    +0.000 C 
ATOM     58  C   UNL     1      16.484   9.610  60.543  0.00  0.00    +0.000 C 
ENDBRANCH   6  57
BRANCH   9  59
ATOM     59  O   UNL     1      18.538  12.866  63.779  0.00  0.00    +0.000 OA
BRANCH  59  61
ATOM     60  O   UNL     1      17.082  13.897  65.217  0.00  0.00    +0.000 OA
ATOM     61  C   UNL     1      18.007  13.943  64.417  0.00  0.00    +0.000 C 
ATOM     62  C   UNL     1      18.740  15.189  64.027  0.00  0.00    +0.000 C 
ENDBRANCH  59  61
ENDBRANCH   9  59
TORSDOF 12
ENDMDL
MODEL 2
REMARK VINA RESULT:      -4.7      3.741      9.237
REMARK  Name = 
REMARK  19 active torsions:
REMARK  status: ('A' for Active; 'I' for Inactive)
REMARK    1  A    between atoms: O_1  and  C_20
REMARK    2  A    between atoms: O_1  and  C_36
REMARK    3  A    between atoms: O_2  and  C_18
REMARK    4  A    between atoms: O_3  and  C_28
REMARK    5  A    between atoms: O_3  and  C_42
REMARK    6  A    between atoms: O_5  and  C_34
REMARK    7  A    between atoms: O_5  and  C_50
REMARK    8  A    between atoms: O_7  and  C_40
REMARK    9  A    between atoms: O_7  and  C_56
REMARK   10  A    between atoms: O_9  and  C_46
REMARK   11  A    between atoms: N_11  and  C_30
REMARK   12  A    between atoms: C_17  and  C_23
REMARK   13  A    between atoms: C_18  and  C_28
REMARK   14  A    between atoms: C_23  and  C_32
REMARK   15  A    between atoms: C_33  and  C_35
REMARK   16  A    between atoms: C_35  and  C_40
REMARK   17  A    between atoms: C_36  and  C_41
REMARK   18  A    between atoms: C_46  and  C_53
REMARK   19  A    between atoms: C_53  and  C_57
REMARK                            x       y       z     vdW  Elec       q    Type
REMARK                         _______ _______ _______ _____ _____    ______ ____
ROOT
ATOM      1  N   UNL     1      16.545  11.636  61.894  0.00  0.00    +0.000 NA
ATOM      2  N   UNL     1      20.157   9.503  59.617  0.00  0.00    +0.000 N 
ATOM      3  C   UNL     1      18.318  10.628  60.765  0.00  0.00    +0.000 C 
ATOM      4  C   UNL     1      17.813  12.003  61.237  0.00  0.00    +0.000 C 
ATOM      5  C   UNL     1      19.410  10.794  59.689  0.00  0.00    +0.000 C 
ATOM      6  C   UNL     1      17.745  13.097  60.074  0.00  0.00    +0.000 C 
ATOM      7  C   UNL     1      18.965  11.461  58.377  0.00  0.00    +0.000 C 
ATOM      8  C   UNL     1      17.044   9.819  60.455  0.00  0.00    +0.000 C 
ATOM      9  C   UNL     1      17.787  12.463  58.613  0.00  0.00    +0.000 C 
ATOM     10  C   UNL     1      19.142   9.788  61.722  0.00  0.00    +0.000 A 
ATOM     11  C   UNL     1      15.900  10.603  61.094  0.00  0.00    +0.000 C 
ATOM     12  C   UNL     1      20.140   9.125  60.995  0.00  0.00    +0.000 A 
ATOM     13  C   UNL     1      16.475  13.945  60.174  0.00  0.00    +0.000 C 
ATOM     14  C   UNL     1      15.681  12.759  62.223  0.00  0.00    +0.000 C 
ATOM     15  C   UNL     1      15.568  13.792  61.149  0.00  0.00    +0.000 C 
ATOM     16  C   UNL     1      18.975   9.596  63.089  0.00  0.00    +0.000 A 
ATOM     17  C   UNL     1      21.486   9.525  59.009  0.00  0.00    +0.000 C 
ATOM     18  C   UNL     1      20.963   8.220  61.637  0.00  0.00    +0.000 A 
ATOM     19  C   UNL     1      19.802   8.684  63.774  0.00  0.00    +0.000 A 
ATOM     20  C   UNL     1      20.791   7.994  63.013  0.00  0.00    +0.000 A 
ENDROOT
BRANCH  19  23
ATOM     21  N   UNL     1      18.605   7.983  69.488  0.00  0.00    +0.000 NA
ATOM     22  N   UNL     1      19.020   6.056  64.599  0.00  0.00    +0.000 N 
ATOM     23  C   UNL     1      19.639   8.407  65.322  0.00  0.00    +0.000 C 
ATOM     24  C   UNL     1      18.318   9.094  65.899  0.00  0.00    +0.000 C 
ATOM     25  C   UNL     1      19.516   6.871  65.603  0.00  0.00    +0.000 A 
ATOM     26  C   UNL     1      17.843   8.632  67.287  0.00  0.00    +0.000 C 
ATOM     27  C   UNL     1      16.495   9.201  67.728  0.00  0.00    +0.000 C 
ATOM     28  C   UNL     1      18.821   8.935  68.413  0.00  0.00    +0.000 C 
ATOM     29  C   UNL     1      19.704   6.039  66.721  0.00  0.00    +0.000 A 
ATOM     30  C   UNL     1      16.070   8.655  69.124  0.00  0.00    +0.000 C 
ATOM     31  C   UNL     1      17.238   8.103  70.040  0.00  0.00    +0.000 C 
ATOM     32  C   UNL     1      20.144   6.352  68.143  0.00  0.00    +0.000 C 
ATOM     33  C   UNL     1      18.966   6.585  69.136  0.00  0.00    +0.000 C 
ATOM     34  C   UNL     1      19.349   4.700  66.314  0.00  0.00    +0.000 A 
ATOM     35  C   UNL     1      18.932   4.750  64.992  0.00  0.00    +0.000 A 
ATOM     36  C   UNL     1      19.331   3.447  66.967  0.00  0.00    +0.000 A 
ATOM     37  C   UNL     1      18.505   3.623  64.278  0.00  0.00    +0.000 A 
ATOM     38  C   UNL     1      18.910   2.307  66.273  0.00  0.00    +0.000 A 
ATOM     39  C   UNL     1      18.503   2.396  64.946  0.00  0.00    +0.000 A 
ATOM     40  H   UNL     1      18.770   6.376  63.672  0.00  0.00    +0.000 HD
BRANCH  23  42
ATOM     41  O   UNL     1      21.898   8.438  66.404  0.00  0.00    +0.000 OA
ATOM     42  C   UNL     1      20.912   9.031  65.983  0.00  0.00    +0.000 C 
BRANCH  42  43
ATOM     43  O   UNL     1      20.801  10.402  66.012  0.00  0.00    +0.000 OA
ATOM     44  C   UNL     1      21.977  11.087  65.582  0.00  0.00    +0.000 C 
ENDBRANCH  42  43
ENDBRANCH  23  42
BRANCH  30  45
ATOM     45  O   UNL     1      15.484   9.787  69.814  0.00  0.00    +0.000 OA
ATOM     46  H   UNL     1      14.760  10.124  69.256  0.00  0.00    +0.000 HD
ENDBRANCH  30  45
BRANCH  30  47
ATOM     47  C   UNL     1      14.903   7.647  69.009  0.00  0.00    +0.000 C 
ATOM     48  C   UNL     1      15.272   6.219  68.647  0.00  0.00    +0.000 C 
ENDBRANCH  30  47
ENDBRANCH  19  23
BRANCH   7  49
ATOM     49  O   UNL     1      20.104  12.273  57.946  0.00  0.00    +0.000 OA
ATOM     50  H   UNL     1      20.903  11.814  58.277  0.00  0.00    +0.000 HD
ENDBRANCH   7  49
BRANCH   7  52
ATOM     51  O   UNL     1      18.013   9.392  57.387  0.00  0.00    +0.000 OA
ATOM     52  C   UNL     1      18.652  10.429  57.266  0.00  0.00    +0.000 C 
BRANCH  52  53
ATOM     53  O   UNL     1      19.135  10.885  56.063  0.00  0.00    +0.000 OA
ATOM     54  C   UNL     1      18.341  10.507  54.937  0.00  0.00    +0.000 C 
ENDBRANCH  52  53
ENDBRANCH   7  52
BRANCH  20  55
ATOM     55  O   UNL     1      21.620   7.138  63.691  0.00  0.00    +0.000 OA
ATOM     56  C   UNL     1      22.265   6.154  62.888  0.00  0.00    +0.000 C 
ENDBRANCH  20  55
BRANCH   6  57
ATOM     57  C   UNL     1      18.950  14.098  60.217  0.00  0.00    +0.000 C 
ATOM     58  C   UNL     1      19.727  14.046  61.534  0.00  0.00    +0.000 C 
ENDBRANCH   6  57
BRANCH   9  59
ATOM     59  O   UNL     1      16.498  11.860  58.345  0.00  0.00    +0.000 OA
BRANCH  59  61
ATOM     60  O   UNL     1      14.451  12.468  57.514  0.00  0.00    +0.000 OA
ATOM     61  C   UNL     1      15.673  12.514  57.483  0.00  0.00    +0.000 C 
ATOM     62  C   UNL     1      16.477  13.324  56.514  0.00  0.00    +0.000 C 
ENDBRANCH  59  61
ENDBRANCH   9  59
TORSDOF 12
ENDMDL
MODEL 3
REMARK VINA RESULT:      -4.6     14.254     19.382
REMARK  Name = 
REMARK  19 active torsions:
REMARK  status: ('A' for Active; 'I' for Inactive)
REMARK    1  A    between atoms: O_1  and  C_20
REMARK    2  A    between atoms: O_1  and  C_36
REMARK    3  A    between atoms: O_2  and  C_18
REMARK    4  A    between atoms: O_3  and  C_28
REMARK    5  A    between atoms: O_3  and  C_42
REMARK    6  A    between atoms: O_5  and  C_34
REMARK    7  A    between atoms: O_5  and  C_50
REMARK    8  A    between atoms: O_7  and  C_40
REMARK    9  A    between atoms: O_7  and  C_56
REMARK   10  A    between atoms: O_9  and  C_46
REMARK   11  A    between atoms: N_11  and  C_30
REMARK   12  A    between atoms: C_17  and  C_23
REMARK   13  A    between atoms: C_18  and  C_28
REMARK   14  A    between atoms: C_23  and  C_32
REMARK   15  A    between atoms: C_33  and  C_35
REMARK   16  A    between atoms: C_35  and  C_40
REMARK   17  A    between atoms: C_36  and  C_41
REMARK   18  A    between atoms: C_46  and  C_53
REMARK   19  A    between atoms: C_53  and  C_57
REMARK                            x       y       z     vdW  Elec       q    Type
REMARK                         _______ _______ _______ _____ _____    ______ ____
ROOT
ATOM      1  N   UNL     1       4.317   5.660  57.318  0.00  0.00    +0.000 NA
ATOM      2  N   UNL     1       6.474   2.219  59.826  0.00  0.00    +0.000 N 
ATOM      3  C   UNL     1       5.405   3.990  58.528  0.00  0.00    +0.000 C 
ATOM      4  C   UNL     1       5.663   5.334  57.825  0.00  0.00    +0.000 C 
ATOM      5  C   UNL     1       6.732   3.244  58.771  0.00  0.00    +0.000 C 
ATOM      6  C   UNL     1       6.854   5.284  56.760  0.00  0.00    +0.000 C 
ATOM      7  C   UNL     1       7.508   2.825  57.512  0.00  0.00    +0.000 C 
ATOM      8  C   UNL     1       4.280   3.322  57.713  0.00  0.00    +0.000 C 
ATOM      9  C   UNL     1       7.241   3.803  56.321  0.00  0.00    +0.000 C 
ATOM     10  C   UNL     1       4.944   4.002  59.973  0.00  0.00    +0.000 A 
ATOM     11  C   UNL     1       3.703   4.429  56.835  0.00  0.00    +0.000 C 
ATOM     12  C   UNL     1       5.545   2.930  60.647  0.00  0.00    +0.000 A 
ATOM     13  C   UNL     1       6.507   6.068  55.492  0.00  0.00    +0.000 C 
ATOM     14  C   UNL     1       4.272   6.760  56.367  0.00  0.00    +0.000 C 
ATOM     15  C   UNL     1       5.354   6.734  55.336  0.00  0.00    +0.000 C 
ATOM     16  C   UNL     1       4.036   4.850  60.598  0.00  0.00    +0.000 A 
ATOM     17  C   UNL     1       7.630   1.681  60.542  0.00  0.00    +0.000 C 
ATOM     18  C   UNL     1       5.204   2.673  61.961  0.00  0.00    +0.000 A 
ATOM     19  C   UNL     1       3.671   4.618  61.939  0.00  0.00    +0.000 A 
ATOM     20  C   UNL     1       4.269   3.504  62.600  0.00  0.00    +0.000 A 
ENDROOT
BRANCH  19  23
ATOM     21  N   UNL     1      -0.103   7.641  65.284  0.00  0.00    +0.000 NA
ATOM     22  N   UNL     1       4.517   7.221  62.780  0.00  0.00    +0.000 N 
ATOM     23  C   UNL     1       2.625   5.534  62.691  0.00  0.00    +0.000 C 
ATOM     24  C   UNL     1       2.370   5.021  64.182  0.00  0.00    +0.000 C 
ATOM     25  C   UNL     1       3.149   7.007  62.797  0.00  0.00    +0.000 A 
ATOM     26  C   UNL     1       1.659   5.991  65.140  0.00  0.00    +0.000 C 
ATOM     27  C   UNL     1       1.577   5.519  66.590  0.00  0.00    +0.000 C 
ATOM     28  C   UNL     1       0.237   6.344  64.726  0.00  0.00    +0.000 C 
ATOM     29  C   UNL     1       2.560   8.266  63.013  0.00  0.00    +0.000 A 
ATOM     30  C   UNL     1       0.877   6.574  67.499  0.00  0.00    +0.000 C 
ATOM     31  C   UNL     1      -0.061   7.614  66.762  0.00  0.00    +0.000 C 
ATOM     32  C   UNL     1       1.109   8.675  63.211  0.00  0.00    +0.000 C 
ATOM     33  C   UNL     1       0.673   8.768  64.704  0.00  0.00    +0.000 C 
ATOM     34  C   UNL     1       3.636   9.229  63.068  0.00  0.00    +0.000 A 
ATOM     35  C   UNL     1       4.832   8.544  62.919  0.00  0.00    +0.000 A 
ATOM     36  C   UNL     1       3.691  10.629  63.251  0.00  0.00    +0.000 A 
ATOM     37  C   UNL     1       6.084   9.173  62.931  0.00  0.00    +0.000 A 
ATOM     38  C   UNL     1       4.931  11.279  63.266  0.00  0.00    +0.000 A 
ATOM     39  C   UNL     1       6.110  10.559  63.108  0.00  0.00    +0.000 A 
ATOM     40  H   UNL     1       5.210   6.494  62.659  0.00  0.00    +0.000 HD
BRANCH  23  42
ATOM     41  O   UNL     1       0.881   6.246  61.040  0.00  0.00    +0.000 OA
ATOM     42  C   UNL     1       1.312   5.431  61.847  0.00  0.00    +0.000 C 
BRANCH  42  43
ATOM     43  O   UNL     1       0.680   4.238  62.108  0.00  0.00    +0.000 OA
ATOM     44  C   UNL     1      -0.185   3.800  61.061  0.00  0.00    +0.000 C 
ENDBRANCH  42  43
ENDBRANCH  23  42
BRANCH  30  45
ATOM     45  O   UNL     1       0.041   5.805  68.400  0.00  0.00    +0.000 OA
ATOM     46  H   UNL     1      -0.877   6.102  68.268  0.00  0.00    +0.000 HD
ENDBRANCH  30  45
BRANCH  30  47
ATOM     47  C   UNL     1       1.887   7.273  68.439  0.00  0.00    +0.000 C 
ATOM     48  C   UNL     1       1.648   8.748  68.715  0.00  0.00    +0.000 C 
ENDBRANCH  30  47
ENDBRANCH  19  23
BRANCH   7  49
ATOM     49  O   UNL     1       8.923   2.983  57.854  0.00  0.00    +0.000 OA
ATOM     50  H   UNL     1       9.175   2.171  58.340  0.00  0.00    +0.000 HD
ENDBRANCH   7  49
BRANCH   7  52
ATOM     51  O   UNL     1       6.176   0.786  57.025  0.00  0.00    +0.000 OA
ATOM     52  C   UNL     1       7.260   1.344  57.130  0.00  0.00    +0.000 C 
BRANCH  52  53
ATOM     53  O   UNL     1       8.457   0.737  56.836  0.00  0.00    +0.000 OA
ATOM     54  C   UNL     1       8.646  -0.520  57.489  0.00  0.00    +0.000 C 
ENDBRANCH  52  53
ENDBRANCH   7  52
BRANCH  20  55
ATOM     55  O   UNL     1       3.942   3.307  63.917  0.00  0.00    +0.000 OA
ATOM     56  C   UNL     1       4.479   2.125  64.505  0.00  0.00    +0.000 C 
ENDBRANCH  20  55
BRANCH   6  57
ATOM     57  C   UNL     1       8.132   5.975  57.363  0.00  0.00    +0.000 C 
ATOM     58  C   UNL     1       7.928   6.797  58.637  0.00  0.00    +0.000 C 
ENDBRANCH   6  57
BRANCH   9  59
ATOM     59  O   UNL     1       6.208   3.311  55.433  0.00  0.00    +0.000 OA
BRANCH  59  61
ATOM     60  O   UNL     1       7.636   2.472  53.850  0.00  0.00    +0.000 OA
ATOM     61  C   UNL     1       6.578   3.000  54.162  0.00  0.00    +0.000 C 
ATOM     62  C   UNL     1       5.487   3.364  53.203  0.00  0.00    +0.000 C 
ENDBRANCH  59  61
ENDBRANCH   9  59
TORSDOF 12
ENDMDL
MODEL 4
REMARK VINA RESULT:      -4.6      5.817      9.585
REMARK  Name = 
REMARK  19 active torsions:
REMARK  status: ('A' for Active; 'I' for Inactive)
REMARK    1  A    between atoms: O_1  and  C_20
REMARK    2  A    between atoms: O_1  and  C_36
REMARK    3  A    between atoms: O_2  and  C_18
REMARK    4  A    between atoms: O_3  and  C_28
REMARK    5  A    between atoms: O_3  and  C_42
REMARK    6  A    between atoms: O_5  and  C_34
REMARK    7  A    between atoms: O_5  and  C_50
REMARK    8  A    between atoms: O_7  and  C_40
REMARK    9  A    between atoms: O_7  and  C_56
REMARK   10  A    between atoms: O_9  and  C_46
REMARK   11  A    between atoms: N_11  and  C_30
REMARK   12  A    between atoms: C_17  and  C_23
REMARK   13  A    between atoms: C_18  and  C_28
REMARK   14  A    between atoms: C_23  and  C_32
REMARK   15  A    between atoms: C_33  and  C_35
REMARK   16  A    between atoms: C_35  and  C_40
REMARK   17  A    between atoms: C_36  and  C_41
REMARK   18  A    between atoms: C_46  and  C_53
REMARK   19  A    between atoms: C_53  and  C_57
REMARK                            x       y       z     vdW  Elec       q    Type
REMARK                         _______ _______ _______ _____ _____    ______ ____
ROOT
ATOM      1  N   UNL     1      20.329   8.794  55.107  0.00  0.00    +0.000 NA
ATOM      2  N   UNL     1      17.681   9.451  51.191  0.00  0.00    +0.000 N 
ATOM      3  C   UNL     1      19.052   9.150  53.190  0.00  0.00    +0.000 C 
ATOM      4  C   UNL     1      20.343   9.617  53.884  0.00  0.00    +0.000 C 
ATOM      5  C   UNL     1      18.627  10.159  52.104  0.00  0.00    +0.000 C 
ATOM      6  C   UNL     1      20.436  11.202  54.069  0.00  0.00    +0.000 C 
ATOM      7  C   UNL     1      18.254  11.565  52.603  0.00  0.00    +0.000 C 
ATOM      8  C   UNL     1      18.087   8.795  54.337  0.00  0.00    +0.000 C 
ATOM      9  C   UNL     1      19.032  11.935  53.909  0.00  0.00    +0.000 C 
ATOM     10  C   UNL     1      19.112   7.935  52.284  0.00  0.00    +0.000 A 
ATOM     11  C   UNL     1      18.956   8.719  55.590  0.00  0.00    +0.000 C 
ATOM     12  C   UNL     1      18.262   8.145  51.190  0.00  0.00    +0.000 A 
ATOM     13  C   UNL     1      20.999  11.575  55.443  0.00  0.00    +0.000 C 
ATOM     14  C   UNL     1      21.295   9.189  56.121  0.00  0.00    +0.000 C 
ATOM     15  C   UNL     1      21.392  10.664  56.344  0.00  0.00    +0.000 C 
ATOM     16  C   UNL     1      19.811   6.744  52.457  0.00  0.00    +0.000 A 
ATOM     17  C   UNL     1      17.470  10.022  49.863  0.00  0.00    +0.000 C 
ATOM     18  C   UNL     1      18.073   7.132  50.269  0.00  0.00    +0.000 A 
ATOM     19  C   UNL     1      19.644   5.694  51.533  0.00  0.00    +0.000 A 
ATOM     20  C   UNL     1      18.751   5.914  50.443  0.00  0.00    +0.000 A 
ENDROOT
BRANCH  19  23
ATOM     21  N   UNL     1      22.645   0.782  52.731  0.00  0.00    +0.000 NA
ATOM     22  N   UNL     1      18.093   3.398  52.252  0.00  0.00    +0.000 N 
ATOM     23  C   UNL     1      20.393   4.311  51.694  0.00  0.00    +0.000 C 
ATOM     24  C   UNL     1      21.262   4.273  53.033  0.00  0.00    +0.000 C 
ATOM     25  C   UNL     1      19.367   3.130  51.780  0.00  0.00    +0.000 A 
ATOM     26  C   UNL     1      21.759   2.896  53.501  0.00  0.00    +0.000 C 
ATOM     27  C   UNL     1      22.449   2.890  54.864  0.00  0.00    +0.000 C 
ATOM     28  C   UNL     1      22.720   2.219  52.534  0.00  0.00    +0.000 C 
ATOM     29  C   UNL     1      19.422   1.739  51.575  0.00  0.00    +0.000 A 
ATOM     30  C   UNL     1      22.888   1.454  55.280  0.00  0.00    +0.000 C 
ATOM     31  C   UNL     1      23.055   0.409  54.102  0.00  0.00    +0.000 C 
ATOM     32  C   UNL     1      20.565   0.832  51.148  0.00  0.00    +0.000 C 
ATOM     33  C   UNL     1      21.342   0.187  52.335  0.00  0.00    +0.000 C 
ATOM     34  C   UNL     1      18.115   1.215  51.896  0.00  0.00    +0.000 A 
ATOM     35  C   UNL     1      17.319   2.273  52.310  0.00  0.00    +0.000 A 
ATOM     36  C   UNL     1      17.546  -0.078  51.885  0.00  0.00    +0.000 A 
ATOM     37  C   UNL     1      15.984   2.120  52.706  0.00  0.00    +0.000 A 
ATOM     38  C   UNL     1      16.213  -0.255  52.276  0.00  0.00    +0.000 A 
ATOM     39  C   UNL     1      15.445   0.831  52.681  0.00  0.00    +0.000 A 
ATOM     40  H   UNL     1      17.758   4.318  52.507  0.00  0.00    +0.000 HD
BRANCH  23  42
ATOM     41  O   UNL     1      21.186   3.453  49.478  0.00  0.00    +0.000 OA
ATOM     42  C   UNL     1      21.320   4.201  50.438  0.00  0.00    +0.000 C 
BRANCH  42  43
ATOM     43  O   UNL     1      22.343   5.116  50.530  0.00  0.00    +0.000 OA
ATOM     44  C   UNL     1      22.615   5.805  49.311  0.00  0.00    +0.000 C 
ENDBRANCH  42  43
ENDBRANCH  23  42
BRANCH  30  45
ATOM     45  O   UNL     1      24.190   1.617  55.896  0.00  0.00    +0.000 OA
ATOM     46  H   UNL     1      24.582   0.730  55.985  0.00  0.00    +0.000 HD
ENDBRANCH  30  45
BRANCH  30  47
ATOM     47  C   UNL     1      22.005   0.899  56.422  0.00  0.00    +0.000 C 
ATOM     48  C   UNL     1      20.565   0.568  56.068  0.00  0.00    +0.000 C 
ENDBRANCH  30  47
ENDBRANCH  19  23
BRANCH   7  49
ATOM     49  O   UNL     1      18.737  12.485  51.572  0.00  0.00    +0.000 OA
ATOM     50  H   UNL     1      19.350  13.100  52.025  0.00  0.00    +0.000 HD
ENDBRANCH   7  49
BRANCH   7  52
ATOM     51  O   UNL     1      15.940  10.987  53.292  0.00  0.00    +0.000 OA
ATOM     52  C   UNL     1      16.724  11.754  52.750  0.00  0.00    +0.000 C 
BRANCH  52  53
ATOM     53  O   UNL     1      16.360  12.978  52.243  0.00  0.00    +0.000 OA
ATOM     54  C   UNL     1      15.193  12.941  51.420  0.00  0.00    +0.000 C 
ENDBRANCH  52  53
ENDBRANCH   7  52
BRANCH  20  55
ATOM     55  O   UNL     1      18.622   4.904  49.523  0.00  0.00    +0.000 OA
ATOM     56  C   UNL     1      17.318   4.748  48.971  0.00  0.00    +0.000 C 
ENDBRANCH  20  55
BRANCH   6  57
ATOM     57  C   UNL     1      21.435  11.801  53.011  0.00  0.00    +0.000 C 
ATOM     58  C   UNL     1      22.323  10.801  52.269  0.00  0.00    +0.000 C 
ENDBRANCH   6  57
BRANCH   9  59
ATOM     59  O   UNL     1      18.249  11.678  55.100  0.00  0.00    +0.000 OA
BRANCH  59  61
ATOM     60  O   UNL     1      17.698  13.877  55.429  0.00  0.00    +0.000 OA
ATOM     61  C   UNL     1      17.903  12.751  55.860  0.00  0.00    +0.000 C 
ATOM     62  C   UNL     1      17.774  12.347  57.296  0.00  0.00    +0.000 C 
ENDBRANCH  59  61
ENDBRANCH   9  59
TORSDOF 12
ENDMDL
MODEL 5
REMARK VINA RESULT:      -4.5      5.309      9.446
REMARK  Name = 
REMARK  19 active torsions:
REMARK  status: ('A' for Active; 'I' for Inactive)
REMARK    1  A    between atoms: O_1  and  C_20
REMARK    2  A    between atoms: O_1  and  C_36
REMARK    3  A    between atoms: O_2  and  C_18
REMARK    4  A    between atoms: O_3  and  C_28
REMARK    5  A    between atoms: O_3  and  C_42
REMARK    6  A    between atoms: O_5  and  C_34
REMARK    7  A    between atoms: O_5  and  C_50
REMARK    8  A    between atoms: O_7  and  C_40
REMARK    9  A    between atoms: O_7  and  C_56
REMARK   10  A    between atoms: O_9  and  C_46
REMARK   11  A    between atoms: N_11  and  C_30
REMARK   12  A    between atoms: C_17  and  C_23
REMARK   13  A    between atoms: C_18  and  C_28
REMARK   14  A    between atoms: C_23  and  C_32
REMARK   15  A    between atoms: C_33  and  C_35
REMARK   16  A    between atoms: C_35  and  C_40
REMARK   17  A    between atoms: C_36  and  C_41
REMARK   18  A    between atoms: C_46  and  C_53
REMARK   19  A    between atoms: C_53  and  C_57
REMARK                            x       y       z     vdW  Elec       q    Type
REMARK                         _______ _______ _______ _____ _____    ______ ____
ROOT
ATOM      1  N   UNL     1      18.540   9.090  53.632  0.00  0.00    +0.000 NA
ATOM      2  N   UNL     1      23.120   7.865  54.182  0.00  0.00    +0.000 N 
ATOM      3  C   UNL     1      20.775   8.501  53.938  0.00  0.00    +0.000 C 
ATOM      4  C   UNL     1      19.459   8.692  54.714  0.00  0.00    +0.000 C 
ATOM      5  C   UNL     1      21.975   8.495  54.906  0.00  0.00    +0.000 C 
ATOM      6  C   UNL     1      19.588   9.677  55.965  0.00  0.00    +0.000 C 
ATOM      7  C   UNL     1      22.223   9.802  55.677  0.00  0.00    +0.000 C 
ATOM      8  C   UNL     1      20.713   9.525  52.788  0.00  0.00    +0.000 C 
ATOM      9  C   UNL     1      20.892  10.590  55.914  0.00  0.00    +0.000 C 
ATOM     10  C   UNL     1      21.056   7.153  53.303  0.00  0.00    +0.000 A 
ATOM     11  C   UNL     1      19.258   9.983  52.730  0.00  0.00    +0.000 C 
ATOM     12  C   UNL     1      22.424   6.873  53.424  0.00  0.00    +0.000 A 
ATOM     13  C   UNL     1      18.377  10.607  56.075  0.00  0.00    +0.000 C 
ATOM     14  C   UNL     1      17.255   9.605  54.080  0.00  0.00    +0.000 C 
ATOM     15  C   UNL     1      17.336  10.554  55.232  0.00  0.00    +0.000 C 
ATOM     16  C   UNL     1      20.185   6.298  52.636  0.00  0.00    +0.000 A 
ATOM     17  C   UNL     1      24.225   7.348  54.988  0.00  0.00    +0.000 C 
ATOM     18  C   UNL     1      22.942   5.737  52.833  0.00  0.00    +0.000 A 
ATOM     19  C   UNL     1      20.681   5.128  52.028  0.00  0.00    +0.000 A 
ATOM     20  C   UNL     1      22.081   4.876  52.133  0.00  0.00    +0.000 A 
ENDROOT
BRANCH  19  23
ATOM     21  N   UNL     1      17.733   1.270  48.712  0.00  0.00    +0.000 NA
ATOM     22  N   UNL     1      19.986   2.646  53.275  0.00  0.00    +0.000 N 
ATOM     23  C   UNL     1      19.741   4.134  51.235  0.00  0.00    +0.000 C 
ATOM     24  C   UNL     1      20.523   3.431  50.032  0.00  0.00    +0.000 C 
ATOM     25  C   UNL     1      19.221   2.992  52.173  0.00  0.00    +0.000 A 
ATOM     26  C   UNL     1      19.858   2.198  49.398  0.00  0.00    +0.000 C 
ATOM     27  C   UNL     1      20.711   1.470  48.361  0.00  0.00    +0.000 C 
ATOM     28  C   UNL     1      18.524   2.488  48.723  0.00  0.00    +0.000 C 
ATOM     29  C   UNL     1      18.144   2.088  52.147  0.00  0.00    +0.000 A 
ATOM     30  C   UNL     1      19.981   0.215  47.795  0.00  0.00    +0.000 C 
ATOM     31  C   UNL     1      18.404   0.205  47.935  0.00  0.00    +0.000 C 
ATOM     32  C   UNL     1      17.016   1.899  51.146  0.00  0.00    +0.000 C 
ATOM     33  C   UNL     1      17.303   0.819  50.060  0.00  0.00    +0.000 C 
ATOM     34  C   UNL     1      18.283   1.236  53.306  0.00  0.00    +0.000 A 
ATOM     35  C   UNL     1      19.434   1.614  53.980  0.00  0.00    +0.000 A 
ATOM     36  C   UNL     1      17.531   0.160  53.829  0.00  0.00    +0.000 A 
ATOM     37  C   UNL     1      19.878   0.988  55.152  0.00  0.00    +0.000 A 
ATOM     38  C   UNL     1      17.954  -0.479  55.000  0.00  0.00    +0.000 A 
ATOM     39  C   UNL     1      19.113  -0.069  55.651  0.00  0.00    +0.000 A 
ATOM     40  H   UNL     1      20.843   3.111  53.547  0.00  0.00    +0.000 HD
BRANCH  23  42
ATOM     41  O   UNL     1      17.474   5.197  51.183  0.00  0.00    +0.000 OA
ATOM     42  C   UNL     1      18.579   5.025  50.684  0.00  0.00    +0.000 C 
BRANCH  42  43
ATOM     43  O   UNL     1      18.977   5.650  49.526  0.00  0.00    +0.000 OA
ATOM     44  C   UNL     1      18.123   6.720  49.122  0.00  0.00    +0.000 C 
ENDBRANCH  42  43
ENDBRANCH  23  42
BRANCH  30  45
ATOM     45  O   UNL     1      20.286   0.203  46.378  0.00  0.00    +0.000 OA
ATOM     46  H   UNL     1      21.228  -0.024  46.286  0.00  0.00    +0.000 HD
ENDBRANCH  30  45
BRANCH  30  47
ATOM     47  C   UNL     1      20.614  -1.095  48.321  0.00  0.00    +0.000 C 
ATOM     48  C   UNL     1      20.236  -1.514  49.731  0.00  0.00    +0.000 C 
ENDBRANCH  30  47
ENDBRANCH  19  23
BRANCH   7  49
ATOM     49  O   UNL     1      22.688   9.389  57.003  0.00  0.00    +0.000 OA
ATOM     50  H   UNL     1      22.130   9.872  57.647  0.00  0.00    +0.000 HD
ENDBRANCH   7  49
BRANCH   7  52
ATOM     51  O   UNL     1      23.466  10.900  53.830  0.00  0.00    +0.000 OA
ATOM     52  C   UNL     1      23.322  10.676  55.024  0.00  0.00    +0.000 C 
BRANCH  52  53
ATOM     53  O   UNL     1      24.095  11.252  56.003  0.00  0.00    +0.000 OA
ATOM     54  C   UNL     1      24.579  12.554  55.668  0.00  0.00    +0.000 C 
ENDBRANCH  52  53
ENDBRANCH   7  52
BRANCH  20  55
ATOM     55  O   UNL     1      22.553   3.716  51.574  0.00  0.00    +0.000 OA
ATOM     56  C   UNL     1      23.627   3.097  52.278  0.00  0.00    +0.000 C 
ENDBRANCH  20  55
BRANCH   6  57
ATOM     57  C   UNL     1      19.617   8.841  57.297  0.00  0.00    +0.000 C 
ATOM     58  C   UNL     1      19.255   9.590  58.581  0.00  0.00    +0.000 C 
ENDBRANCH   6  57
BRANCH   9  59
ATOM     59  O   UNL     1      20.685  11.619  54.917  0.00  0.00    +0.000 OA
BRANCH  59  61
ATOM     60  O   UNL     1      21.014  13.853  54.532  0.00  0.00    +0.000 OA
ATOM     61  C   UNL     1      20.902  12.906  55.298  0.00  0.00    +0.000 C 
ATOM     62  C   UNL     1      20.949  13.002  56.791  0.00  0.00    +0.000 C 
ENDBRANCH  59  61
ENDBRANCH   9  59
TORSDOF 12
ENDMDL
MODEL 6
REMARK VINA RESULT:      -4.5     13.246     18.035
REMARK  Name = 
REMARK  19 active torsions:
REMARK  status: ('A' for Active; 'I' for Inactive)
REMARK    1  A    between atoms: O_1  and  C_20
REMARK    2  A    between atoms: O_1  and  C_36
REMARK    3  A    between atoms: O_2  and  C_18
REMARK    4  A    between atoms: O_3  and  C_28
REMARK    5  A    between atoms: O_3  and  C_42
REMARK    6  A    between atoms: O_5  and  C_34
REMARK    7  A    between atoms: O_5  and  C_50
REMARK    8  A    between atoms: O_7  and  C_40
REMARK    9  A    between atoms: O_7  and  C_56
REMARK   10  A    between atoms: O_9  and  C_46
REMARK   11  A    between atoms: N_11  and  C_30
REMARK   12  A    between atoms: C_17  and  C_23
REMARK   13  A    between atoms: C_18  and  C_28
REMARK   14  A    between atoms: C_23  and  C_32
REMARK   15  A    between atoms: C_33  and  C_35
REMARK   16  A    between atoms: C_35  and  C_40
REMARK   17  A    between atoms: C_36  and  C_41
REMARK   18  A    between atoms: C_46  and  C_53
REMARK   19  A    between atoms: C_53  and  C_57
REMARK                            x       y       z     vdW  Elec       q    Type
REMARK                         _______ _______ _______ _____ _____    ______ ____
ROOT
ATOM      1  N   UNL     1       7.902   4.065  58.307  0.00  0.00    +0.000 NA
ATOM      2  N   UNL     1       3.266   2.935  58.410  0.00  0.00    +0.000 N 
ATOM      3  C   UNL     1       5.647   3.478  58.371  0.00  0.00    +0.000 C 
ATOM      4  C   UNL     1       7.009   3.106  58.983  0.00  0.00    +0.000 C 
ATOM      5  C   UNL     1       4.625   2.346  58.600  0.00  0.00    +0.000 C 
ATOM      6  C   UNL     1       7.369   1.554  58.853  0.00  0.00    +0.000 C 
ATOM      7  C   UNL     1       4.947   1.004  57.921  0.00  0.00    +0.000 C 
ATOM      8  C   UNL     1       5.967   3.954  56.941  0.00  0.00    +0.000 C 
ATOM      9  C   UNL     1       6.489   0.794  57.765  0.00  0.00    +0.000 C 
ATOM     10  C   UNL     1       4.834   4.580  59.022  0.00  0.00    +0.000 A 
ATOM     11  C   UNL     1       7.476   4.183  56.917  0.00  0.00    +0.000 C 
ATOM     12  C   UNL     1       3.477   4.237  58.960  0.00  0.00    +0.000 A 
ATOM     13  C   UNL     1       8.841   1.348  58.484  0.00  0.00    +0.000 C 
ATOM     14  C   UNL     1       9.323   3.798  58.473  0.00  0.00    +0.000 C 
ATOM     15  C   UNL     1       9.705   2.361  58.330  0.00  0.00    +0.000 C 
ATOM     16  C   UNL     1       5.265   5.789  59.559  0.00  0.00    +0.000 A 
ATOM     17  C   UNL     1       2.131   2.211  58.980  0.00  0.00    +0.000 C 
ATOM     18  C   UNL     1       2.525   5.134  59.406  0.00  0.00    +0.000 A 
ATOM     19  C   UNL     1       4.320   6.723  60.028  0.00  0.00    +0.000 A 
ATOM     20  C   UNL     1       2.942   6.370  59.928  0.00  0.00    +0.000 A 
ENDROOT
BRANCH  19  23
ATOM     21  N   UNL     1       6.556  11.774  62.044  0.00  0.00    +0.000 NA
ATOM     22  N   UNL     1       3.716   9.077  58.515  0.00  0.00    +0.000 N 
ATOM     23  C   UNL     1       4.752   8.122  60.624  0.00  0.00    +0.000 C 
ATOM     24  C   UNL     1       6.332   8.335  60.520  0.00  0.00    +0.000 C 
ATOM     25  C   UNL     1       4.079   9.295  59.833  0.00  0.00    +0.000 A 
ATOM     26  C   UNL     1       6.856   9.765  60.732  0.00  0.00    +0.000 C 
ATOM     27  C   UNL     1       8.350   9.947  60.469  0.00  0.00    +0.000 C 
ATOM     28  C   UNL     1       6.597  10.324  62.123  0.00  0.00    +0.000 C 
ATOM     29  C   UNL     1       3.803  10.650  60.094  0.00  0.00    +0.000 A 
ATOM     30  C   UNL     1       8.792  11.428  60.669  0.00  0.00    +0.000 C 
ATOM     31  C   UNL     1       7.849  12.319  61.577  0.00  0.00    +0.000 C 
ATOM     32  C   UNL     1       4.056  11.507  61.324  0.00  0.00    +0.000 C 
ATOM     33  C   UNL     1       5.396  12.302  61.280  0.00  0.00    +0.000 C 
ATOM     34  C   UNL     1       3.216  11.198  58.893  0.00  0.00    +0.000 A 
ATOM     35  C   UNL     1       3.177  10.193  57.938  0.00  0.00    +0.000 A 
ATOM     36  C   UNL     1       2.730  12.475  58.533  0.00  0.00    +0.000 A 
ATOM     37  C   UNL     1       2.673  10.382  56.645  0.00  0.00    +0.000 A 
ATOM     38  C   UNL     1       2.219  12.687  57.247  0.00  0.00    +0.000 A 
ATOM     39  C   UNL     1       2.192  11.653  56.317  0.00  0.00    +0.000 A 
ATOM     40  H   UNL     1       3.813   8.193  58.032  0.00  0.00    +0.000 HD
BRANCH  23  42
ATOM     41  O   UNL     1       3.365   8.680  62.634  0.00  0.00    +0.000 OA
ATOM     42  C   UNL     1       4.304   8.082  62.122  0.00  0.00    +0.000 C 
BRANCH  42  43
ATOM     43  O   UNL     1       5.114   7.227  62.831  0.00  0.00    +0.000 OA
ATOM     44  C   UNL     1       4.432   6.094  63.367  0.00  0.00    +0.000 C 
ENDBRANCH  42  43
ENDBRANCH  23  42
BRANCH  30  45
ATOM     45  O   UNL     1      10.080  11.356  61.331  0.00  0.00    +0.000 OA
ATOM     46  H   UNL     1      10.163  10.462  61.707  0.00  0.00    +0.000 HD
ENDBRANCH  30  45
BRANCH  30  47
ATOM     47  C   UNL     1       9.107  12.114  59.319  0.00  0.00    +0.000 C 
ATOM     48  C   UNL     1       7.922  12.415  58.418  0.00  0.00    +0.000 C 
ENDBRANCH  30  47
ENDBRANCH  19  23
BRANCH   7  49
ATOM     49  O   UNL     1       4.493  -0.026  58.858  0.00  0.00    +0.000 OA
ATOM     50  H   UNL     1       5.243  -0.184  59.468  0.00  0.00    +0.000 HD
ENDBRANCH   7  49
BRANCH   7  52
ATOM     51  O   UNL     1       4.099   1.629  55.672  0.00  0.00    +0.000 OA
ATOM     52  C   UNL     1       4.185   0.819  56.585  0.00  0.00    +0.000 C 
BRANCH  52  53
ATOM     53  O   UNL     1       3.665  -0.451  56.523  0.00  0.00    +0.000 OA
ATOM     54  C   UNL     1       4.017  -1.164  55.336  0.00  0.00    +0.000 C 
ENDBRANCH  52  53
ENDBRANCH   7  52
BRANCH  20  55
ATOM     55  O   UNL     1       2.028   7.265  60.422  0.00  0.00    +0.000 OA
ATOM     56  C   UNL     1       0.786   7.311  59.726  0.00  0.00    +0.000 C 
ENDBRANCH  20  55
BRANCH   6  57
ATOM     57  C   UNL     1       7.165   0.846  60.243  0.00  0.00    +0.000 C 
ATOM     58  C   UNL     1       6.919   1.759  61.445  0.00  0.00    +0.000 C 
ENDBRANCH   6  57
BRANCH   9  59
ATOM     59  O   UNL     1       6.961   1.181  56.452  0.00  0.00    +0.000 OA
BRANCH  59  61
ATOM     60  O   UNL     1       7.485  -0.986  55.923  0.00  0.00    +0.000 OA
ATOM     61  C   UNL     1       7.534   0.213  55.687  0.00  0.00    +0.000 C 
ATOM     62  C   UNL     1       8.205   0.825  54.497  0.00  0.00    +0.000 C 
ENDBRANCH  59  61
ENDBRANCH   9  59
TORSDOF 12
ENDMDL
MODEL 7
REMARK VINA RESULT:      -4.4     14.631     19.983
REMARK  Name = 
REMARK  19 active torsions:
REMARK  status: ('A' for Active; 'I' for Inactive)
REMARK    1  A    between atoms: O_1  and  C_20
REMARK    2  A    between atoms: O_1  and  C_36
REMARK    3  A    between atoms: O_2  and  C_18
REMARK    4  A    between atoms: O_3  and  C_28
REMARK    5  A    between atoms: O_3  and  C_42
REMARK    6  A    between atoms: O_5  and  C_34
REMARK    7  A    between atoms: O_5  and  C_50
REMARK    8  A    between atoms: O_7  and  C_40
REMARK    9  A    between atoms: O_7  and  C_56
REMARK   10  A    between atoms: O_9  and  C_46
REMARK   11  A    between atoms: N_11  and  C_30
REMARK   12  A    between atoms: C_17  and  C_23
REMARK   13  A    between atoms: C_18  and  C_28
REMARK   14  A    between atoms: C_23  and  C_32
REMARK   15  A    between atoms: C_33  and  C_35
REMARK   16  A    between atoms: C_35  and  C_40
REMARK   17  A    between atoms: C_36  and  C_41
REMARK   18  A    between atoms: C_46  and  C_53
REMARK   19  A    between atoms: C_53  and  C_57
REMARK                            x       y       z     vdW  Elec       q    Type
REMARK                         _______ _______ _______ _____ _____    ______ ____
ROOT
ATOM      1  N   UNL     1       5.711   8.808  62.059  0.00  0.00    +0.000 NA
ATOM      2  N   UNL     1       3.994  13.240  62.492  0.00  0.00    +0.000 N 
ATOM      3  C   UNL     1       4.879  10.979  62.233  0.00  0.00    +0.000 C 
ATOM      4  C   UNL     1       5.142   9.866  61.203  0.00  0.00    +0.000 C 
ATOM      5  C   UNL     1       4.680  12.333  61.524  0.00  0.00    +0.000 C 
ATOM      6  C   UNL     1       6.014  10.342  59.951  0.00  0.00    +0.000 C 
ATOM      7  C   UNL     1       5.894  12.870  60.747  0.00  0.00    +0.000 C 
ATOM      8  C   UNL     1       5.987  10.815  63.291  0.00  0.00    +0.000 C 
ATOM      9  C   UNL     1       6.792  11.707  60.211  0.00  0.00    +0.000 C 
ATOM     10  C   UNL     1       3.561  10.979  62.982  0.00  0.00    +0.000 A 
ATOM     11  C   UNL     1       6.592   9.436  63.036  0.00  0.00    +0.000 C 
ATOM     12  C   UNL     1       3.137  12.304  63.150  0.00  0.00    +0.000 A 
ATOM     13  C   UNL     1       7.050   9.287  59.554  0.00  0.00    +0.000 C 
ATOM     14  C   UNL     1       6.318   7.699  61.338  0.00  0.00    +0.000 C 
ATOM     15  C   UNL     1       7.165   8.105  60.175  0.00  0.00    +0.000 C 
ATOM     16  C   UNL     1       2.849   9.905  63.508  0.00  0.00    +0.000 A 
ATOM     17  C   UNL     1       3.310  14.413  61.951  0.00  0.00    +0.000 C 
ATOM     18  C   UNL     1       2.001  12.568  63.892  0.00  0.00    +0.000 A 
ATOM     19  C   UNL     1       1.685  10.141  64.265  0.00  0.00    +0.000 A 
ATOM     20  C   UNL     1       1.286  11.497  64.452  0.00  0.00    +0.000 A 
ENDROOT
BRANCH  19  23
ATOM     21  N   UNL     1      -0.917   5.340  66.445  0.00  0.00    +0.000 NA
ATOM     22  N   UNL     1       1.762   9.831  67.110  0.00  0.00    +0.000 N 
ATOM     23  C   UNL     1       0.852   8.961  64.908  0.00  0.00    +0.000 C 
ATOM     24  C   UNL     1       1.540   7.546  64.631  0.00  0.00    +0.000 C 
ATOM     25  C   UNL     1       0.760   9.128  66.463  0.00  0.00    +0.000 A 
ATOM     26  C   UNL     1       1.050   6.357  65.474  0.00  0.00    +0.000 C 
ATOM     27  C   UNL     1       1.842   5.065  65.284  0.00  0.00    +0.000 C 
ATOM     28  C   UNL     1      -0.412   5.997  65.252  0.00  0.00    +0.000 C 
ATOM     29  C   UNL     1      -0.089   8.640  67.474  0.00  0.00    +0.000 A 
ATOM     30  C   UNL     1       1.306   3.923  66.200  0.00  0.00    +0.000 C 
ATOM     31  C   UNL     1      -0.184   4.083  66.713  0.00  0.00    +0.000 C 
ATOM     32  C   UNL     1      -1.311   7.738  67.410  0.00  0.00    +0.000 C 
ATOM     33  C   UNL     1      -0.997   6.227  67.634  0.00  0.00    +0.000 C 
ATOM     34  C   UNL     1       0.429   9.131  68.730  0.00  0.00    +0.000 A 
ATOM     35  C   UNL     1       1.575   9.865  68.464  0.00  0.00    +0.000 A 
ATOM     36  C   UNL     1       0.026   8.996  70.078  0.00  0.00    +0.000 A 
ATOM     37  C   UNL     1       2.341  10.482  69.462  0.00  0.00    +0.000 A 
ATOM     38  C   UNL     1       0.775   9.605  71.092  0.00  0.00    +0.000 A 
ATOM     39  C   UNL     1       1.917  10.338  70.785  0.00  0.00    +0.000 A 
ATOM     40  H   UNL     1       2.535  10.287  66.644  0.00  0.00    +0.000 HD
BRANCH  23  42
ATOM     41  O   UNL     1      -1.615   9.360  64.730  0.00  0.00    +0.000 OA
ATOM     42  C   UNL     1      -0.551   9.030  64.220  0.00  0.00    +0.000 C 
BRANCH  42  43
ATOM     43  O   UNL     1      -0.439   8.687  62.893  0.00  0.00    +0.000 OA
ATOM     44  C   UNL     1      -1.609   8.075  62.352  0.00  0.00    +0.000 C 
ENDBRANCH  42  43
ENDBRANCH  23  42
BRANCH  30  45
ATOM     45  O   UNL     1       1.351   2.726  65.383  0.00  0.00    +0.000 OA
ATOM     46  H   UNL     1       0.803   2.053  65.824  0.00  0.00    +0.000 HD
ENDBRANCH  30  45
BRANCH  30  47
ATOM     47  C   UNL     1       2.284   3.618  67.358  0.00  0.00    +0.000 C 
ATOM     48  C   UNL     1       3.060   2.315  67.265  0.00  0.00    +0.000 C 
ENDBRANCH  30  47
ENDBRANCH  19  23
BRANCH   7  49
ATOM     49  O   UNL     1       5.339  13.530  59.564  0.00  0.00    +0.000 OA
ATOM     50  H   UNL     1       5.996  14.206  59.300  0.00  0.00    +0.000 HD
ENDBRANCH   7  49
BRANCH   7  52
ATOM     51  O   UNL     1       6.969  13.869  62.750  0.00  0.00    +0.000 OA
ATOM     52  C   UNL     1       6.700  13.916  61.558  0.00  0.00    +0.000 C 
BRANCH  52  53
ATOM     53  O   UNL     1       7.157  14.899  60.714  0.00  0.00    +0.000 OA
ATOM     54  C   UNL     1       8.443  15.412  61.065  0.00  0.00    +0.000 C 
ENDBRANCH  52  53
ENDBRANCH   7  52
BRANCH  20  55
ATOM     55  O   UNL     1       0.129  11.720  65.155  0.00  0.00    +0.000 OA
ATOM     56  C   UNL     1       0.150  12.857  66.014  0.00  0.00    +0.000 C 
ENDBRANCH  20  55
BRANCH   6  57
ATOM     57  C   UNL     1       5.082  10.529  58.698  0.00  0.00    +0.000 C 
ATOM     58  C   UNL     1       3.673   9.942  58.801  0.00  0.00    +0.000 C 
ENDBRANCH   6  57
BRANCH   9  59
ATOM     59  O   UNL     1       7.908  11.431  61.090  0.00  0.00    +0.000 OA
BRANCH  59  61
ATOM     60  O   UNL     1      10.195  11.482  61.222  0.00  0.00    +0.000 OA
ATOM     61  C   UNL     1       9.155  11.687  60.611  0.00  0.00    +0.000 C 
ATOM     62  C   UNL     1       9.072  12.222  59.216  0.00  0.00    +0.000 C 
ENDBRANCH  59  61
ENDBRANCH   9  59
TORSDOF 12
ENDMDL
MODEL 8
REMARK VINA RESULT:      -4.4     17.945     21.573
REMARK  Name = 
REMARK  19 active torsions:
REMARK  status: ('A' for Active; 'I' for Inactive)
REMARK    1  A    between atoms: O_1  and  C_20
REMARK    2  A    between atoms: O_1  and  C_36
REMARK    3  A    between atoms: O_2  and  C_18
REMARK    4  A    between atoms: O_3  and  C_28
REMARK    5  A    between atoms: O_3  and  C_42
REMARK    6  A    between atoms: O_5  and  C_34
REMARK    7  A    between atoms: O_5  and  C_50
REMARK    8  A    between atoms: O_7  and  C_40
REMARK    9  A    between atoms: O_7  and  C_56
REMARK   10  A    between atoms: O_9  and  C_46
REMARK   11  A    between atoms: N_11  and  C_30
REMARK   12  A    between atoms: C_17  and  C_23
REMARK   13  A    between atoms: C_18  and  C_28
REMARK   14  A    between atoms: C_23  and  C_32
REMARK   15  A    between atoms: C_33  and  C_35
REMARK   16  A    between atoms: C_35  and  C_40
REMARK   17  A    between atoms: C_36  and  C_41
REMARK   18  A    between atoms: C_46  and  C_53
REMARK   19  A    between atoms: C_53  and  C_57
REMARK                            x       y       z     vdW  Elec       q    Type
REMARK                         _______ _______ _______ _____ _____    ______ ____
ROOT
ATOM      1  N   UNL     1       0.398   2.150  67.911  0.00  0.00    +0.000 NA
ATOM      2  N   UNL     1       3.417   2.302  64.217  0.00  0.00    +0.000 N 
ATOM      3  C   UNL     1       1.877   2.263  66.112  0.00  0.00    +0.000 C 
ATOM      4  C   UNL     1       1.469   3.019  67.388  0.00  0.00    +0.000 C 
ATOM      5  C   UNL     1       2.683   3.183  65.173  0.00  0.00    +0.000 C 
ATOM      6  C   UNL     1       1.108   4.556  67.137  0.00  0.00    +0.000 C 
ATOM      7  C   UNL     1       1.928   4.403  64.618  0.00  0.00    +0.000 C 
ATOM      8  C   UNL     1       0.582   1.592  65.614  0.00  0.00    +0.000 C 
ATOM      9  C   UNL     1       0.818   4.890  65.607  0.00  0.00    +0.000 C 
ATOM     10  C   UNL     1       2.919   1.166  66.218  0.00  0.00    +0.000 A 
ATOM     11  C   UNL     1      -0.396   1.678  66.783  0.00  0.00    +0.000 C 
ATOM     12  C   UNL     1       3.732   1.204  65.077  0.00  0.00    +0.000 A 
ATOM     13  C   UNL     1      -0.120   4.983  67.945  0.00  0.00    +0.000 C 
ATOM     14  C   UNL     1      -0.387   2.730  68.989  0.00  0.00    +0.000 C 
ATOM     15  C   UNL     1      -0.770   4.160  68.779  0.00  0.00    +0.000 C 
ATOM     16  C   UNL     1       3.081   0.201  67.206  0.00  0.00    +0.000 A 
ATOM     17  C   UNL     1       4.566   2.875  63.518  0.00  0.00    +0.000 C 
ATOM     18  C   UNL     1       4.701   0.236  64.897  0.00  0.00    +0.000 A 
ATOM     19  C   UNL     1       4.064  -0.797  67.056  0.00  0.00    +0.000 A 
ATOM     20  C   UNL     1       4.861  -0.761  65.874  0.00  0.00    +0.000 A 
ENDROOT
BRANCH  19  23
ATOM     21  N   UNL     1       4.888  -5.455  70.548  0.00  0.00    +0.000 NA
ATOM     22  N   UNL     1       6.638  -1.024  68.290  0.00  0.00    +0.000 N 
ATOM     23  C   UNL     1       4.275  -1.933  68.135  0.00  0.00    +0.000 C 
ATOM     24  C   UNL     1       4.359  -3.374  67.452  0.00  0.00    +0.000 C 
ATOM     25  C   UNL     1       5.616  -1.717  68.916  0.00  0.00    +0.000 A 
ATOM     26  C   UNL     1       4.904  -4.523  68.317  0.00  0.00    +0.000 C 
ATOM     27  C   UNL     1       5.112  -5.843  67.576  0.00  0.00    +0.000 C 
ATOM     28  C   UNL     1       4.047  -4.847  69.532  0.00  0.00    +0.000 C 
ATOM     29  C   UNL     1       6.137  -2.150  70.149  0.00  0.00    +0.000 A 
ATOM     30  C   UNL     1       5.699  -6.941  68.513  0.00  0.00    +0.000 C 
ATOM     31  C   UNL     1       5.477  -6.723  70.066  0.00  0.00    +0.000 C 
ATOM     32  C   UNL     1       5.538  -3.019  71.243  0.00  0.00    +0.000 C 
ATOM     33  C   UNL     1       5.900  -4.530  71.124  0.00  0.00    +0.000 C 
ATOM     34  C   UNL     1       7.485  -1.637  70.238  0.00  0.00    +0.000 A 
ATOM     35  C   UNL     1       7.759  -0.944  69.068  0.00  0.00    +0.000 A 
ATOM     36  C   UNL     1       8.504  -1.721  71.213  0.00  0.00    +0.000 A 
ATOM     37  C   UNL     1       8.987  -0.320  68.815  0.00  0.00    +0.000 A 
ATOM     38  C   UNL     1       9.739  -1.103  70.982  0.00  0.00    +0.000 A 
ATOM     39  C   UNL     1       9.975  -0.413  69.798  0.00  0.00    +0.000 A 
ATOM     40  H   UNL     1       6.568  -0.604  67.372  0.00  0.00    +0.000 HD
BRANCH  23  42
ATOM     41  O   UNL     1       2.931  -1.246  70.135  0.00  0.00    +0.000 OA
ATOM     42  C   UNL     1       3.023  -1.844  69.070  0.00  0.00    +0.000 C 
BRANCH  42  43
ATOM     43  O   UNL     1       1.971  -2.529  68.509  0.00  0.00    +0.000 OA
ATOM     44  C   UNL     1       0.852  -2.686  69.381  0.00  0.00    +0.000 C 
ENDBRANCH  42  43
ENDBRANCH  23  42
BRANCH  30  45
ATOM     45  O   UNL     1       5.008  -8.162  68.149  0.00  0.00    +0.000 OA
ATOM     46  H   UNL     1       5.399  -8.884  68.673  0.00  0.00    +0.000 HD
ENDBRANCH  30  45
BRANCH  30  47
ATOM     47  C   UNL     1       7.179  -7.240  68.179  0.00  0.00    +0.000 C 
ATOM     48  C   UNL     1       7.586  -7.109  66.721  0.00  0.00    +0.000 C 
ENDBRANCH  30  47
ENDBRANCH  19  23
BRANCH   7  49
ATOM     49  O   UNL     1       2.918   5.480  64.560  0.00  0.00    +0.000 OA
ATOM     50  H   UNL     1       3.705   5.149  65.041  0.00  0.00    +0.000 HD
ENDBRANCH   7  49
BRANCH   7  52
ATOM     51  O   UNL     1       0.729   3.202  62.806  0.00  0.00    +0.000 OA
ATOM     52  C   UNL     1       1.384   4.162  63.188  0.00  0.00    +0.000 C 
BRANCH  52  53
ATOM     53  O   UNL     1       1.676   5.245  62.395  0.00  0.00    +0.000 OA
ATOM     54  C   UNL     1       2.257   4.902  61.136  0.00  0.00    +0.000 C 
ENDBRANCH  52  53
ENDBRANCH   7  52
BRANCH  20  55
ATOM     55  O   UNL     1       5.844  -1.710  65.750  0.00  0.00    +0.000 OA
ATOM     56  C   UNL     1       6.291  -1.951  64.419  0.00  0.00    +0.000 C 
ENDBRANCH  20  55
BRANCH   6  57
ATOM     57  C   UNL     1       2.292   5.465  67.631  0.00  0.00    +0.000 C 
ATOM     58  C   UNL     1       1.958   6.934  67.902  0.00  0.00    +0.000 C 
ENDBRANCH   6  57
BRANCH   9  59
ATOM     59  O   UNL     1      -0.485   4.359  65.267  0.00  0.00    +0.000 OA
BRANCH  59  61
ATOM     60  O   UNL     1      -1.222   6.293  64.284  0.00  0.00    +0.000 OA
ATOM     61  C   UNL     1      -1.439   5.250  64.885  0.00  0.00    +0.000 C 
ATOM     62  C   UNL     1      -2.796   4.752  65.275  0.00  0.00    +0.000 C 
ENDBRANCH  59  61
ENDBRANCH   9  59
TORSDOF 12
ENDMDL
MODEL 9
REMARK VINA RESULT:      -4.2      5.268     10.529
REMARK  Name = 
REMARK  19 active torsions:
REMARK  status: ('A' for Active; 'I' for Inactive)
REMARK    1  A    between atoms: O_1  and  C_20
REMARK    2  A    between atoms: O_1  and  C_36
REMARK    3  A    between atoms: O_2  and  C_18
REMARK    4  A    between atoms: O_3  and  C_28
REMARK    5  A    between atoms: O_3  and  C_42
REMARK    6  A    between atoms: O_5  and  C_34
REMARK    7  A    between atoms: O_5  and  C_50
REMARK    8  A    between atoms: O_7  and  C_40
REMARK    9  A    between atoms: O_7  and  C_56
REMARK   10  A    between atoms: O_9  and  C_46
REMARK   11  A    between atoms: N_11  and  C_30
REMARK   12  A    between atoms: C_17  and  C_23
REMARK   13  A    between atoms: C_18  and  C_28
REMARK   14  A    between atoms: C_23  and  C_32
REMARK   15  A    between atoms: C_33  and  C_35
REMARK   16  A    between atoms: C_35  and  C_40
REMARK   17  A    between atoms: C_36  and  C_41
REMARK   18  A    between atoms: C_46  and  C_53
REMARK   19  A    between atoms: C_53  and  C_57
REMARK                            x       y       z     vdW  Elec       q    Type
REMARK                         _______ _______ _______ _____ _____    ______ ____
ROOT
ATOM      1  N   UNL     1      17.122  10.623  59.620  0.00  0.00    +0.000 NA
ATOM      2  N   UNL     1      16.827  13.357  63.521  0.00  0.00    +0.000 N 
ATOM      3  C   UNL     1      17.016  11.966  61.523  0.00  0.00    +0.000 C 
ATOM      4  C   UNL     1      17.873  11.713  60.271  0.00  0.00    +0.000 C 
ATOM      5  C   UNL     1      17.815  12.764  62.572  0.00  0.00    +0.000 C 
ATOM      6  C   UNL     1      19.417  11.448  60.591  0.00  0.00    +0.000 C 
ATOM      7  C   UNL     1      19.057  12.061  63.147  0.00  0.00    +0.000 C 
ATOM      8  C   UNL     1      16.421  10.591  61.885  0.00  0.00    +0.000 C 
ATOM      9  C   UNL     1      19.685  11.069  62.115  0.00  0.00    +0.000 C 
ATOM     10  C   UNL     1      15.849  12.929  61.423  0.00  0.00    +0.000 A 
ATOM     11  C   UNL     1      16.650   9.714  60.657  0.00  0.00    +0.000 C 
ATOM     12  C   UNL     1      15.759  13.654  62.619  0.00  0.00    +0.000 A 
ATOM     13  C   UNL     1      19.984  10.320  59.727  0.00  0.00    +0.000 C 
ATOM     14  C   UNL     1      17.822   9.967  58.527  0.00  0.00    +0.000 C 
ATOM     15  C   UNL     1      19.263   9.676  58.798  0.00  0.00    +0.000 C 
ATOM     16  C   UNL     1      14.932  13.094  60.390  0.00  0.00    +0.000 A 
ATOM     17  C   UNL     1      17.267  14.489  64.335  0.00  0.00    +0.000 C 
ATOM     18  C   UNL     1      14.709  14.533  62.806  0.00  0.00    +0.000 A 
ATOM     19  C   UNL     1      13.854  13.987  60.547  0.00  0.00    +0.000 A 
ATOM     20  C   UNL     1      13.759  14.692  61.784  0.00  0.00    +0.000 A 
ENDROOT
BRANCH  19  23
ATOM     21  N   UNL     1       9.995  15.412  56.346  0.00  0.00    +0.000 NA
ATOM     22  N   UNL     1      14.500  13.148  57.887  0.00  0.00    +0.000 N 
ATOM     23  C   UNL     1      12.768  14.194  59.417  0.00  0.00    +0.000 C 
ATOM     24  C   UNL     1      12.638  15.733  59.012  0.00  0.00    +0.000 C 
ATOM     25  C   UNL     1      13.160  13.410  58.118  0.00  0.00    +0.000 A 
ATOM     26  C   UNL     1      11.891  16.048  57.706  0.00  0.00    +0.000 C 
ATOM     27  C   UNL     1      11.928  17.515  57.281  0.00  0.00    +0.000 C 
ATOM     28  C   UNL     1      10.423  15.644  57.714  0.00  0.00    +0.000 C 
ATOM     29  C   UNL     1      12.470  12.941  56.986  0.00  0.00    +0.000 A 
ATOM     30  C   UNL     1      11.181  17.742  55.932  0.00  0.00    +0.000 C 
ATOM     31  C   UNL     1      10.115  16.642  55.533  0.00  0.00    +0.000 C 
ATOM     32  C   UNL     1      11.000  13.011  56.605  0.00  0.00    +0.000 C 
ATOM     33  C   UNL     1      10.634  14.232  55.707  0.00  0.00    +0.000 C 
ATOM     34  C   UNL     1      13.454  12.348  56.110  0.00  0.00    +0.000 A 
ATOM     35  C   UNL     1      14.699  12.494  56.703  0.00  0.00    +0.000 A 
ATOM     36  C   UNL     1      13.391  11.712  54.850  0.00  0.00    +0.000 A 
ATOM     37  C   UNL     1      15.887  12.036  56.119  0.00  0.00    +0.000 A 
ATOM     38  C   UNL     1      14.565  11.245  54.247  0.00  0.00    +0.000 A 
ATOM     39  C   UNL     1      15.795  11.406  54.876  0.00  0.00    +0.000 A 
ATOM     40  H   UNL     1      15.249  13.389  58.523  0.00  0.00    +0.000 HD
BRANCH  23  42
ATOM     41  O   UNL     1      10.465  14.348  60.392  0.00  0.00    +0.000 OA
ATOM     42  C   UNL     1      11.429  13.678  60.040  0.00  0.00    +0.000 C 
BRANCH  42  43
ATOM     43  O   UNL     1      11.449  12.305  60.123  0.00  0.00    +0.000 OA
ATOM     44  C   UNL     1      10.265  11.742  60.686  0.00  0.00    +0.000 C 
ENDBRANCH  42  43
ENDBRANCH  23  42
BRANCH  30  45
ATOM     45  O   UNL     1      10.466  18.992  56.097  0.00  0.00    +0.000 OA
ATOM     46  H   UNL     1      10.659  19.321  56.993  0.00  0.00    +0.000 HD
ENDBRANCH  30  45
BRANCH  30  47
ATOM     47  C   UNL     1      12.170  18.031  54.778  0.00  0.00    +0.000 C 
ATOM     48  C   UNL     1      12.981  16.852  54.268  0.00  0.00    +0.000 C 
ENDBRANCH  30  47
ENDBRANCH  19  23
BRANCH   7  49
ATOM     49  O   UNL     1      20.049  13.121  63.343  0.00  0.00    +0.000 OA
ATOM     50  H   UNL     1      20.902  12.750  63.038  0.00  0.00    +0.000 HD
ENDBRANCH   7  49
BRANCH   7  52
ATOM     51  O   UNL     1      17.765  10.792  64.846  0.00  0.00    +0.000 OA
ATOM     52  C   UNL     1      18.778  11.394  64.517  0.00  0.00    +0.000 C 
BRANCH  52  53
ATOM     53  O   UNL     1      19.889  11.504  65.318  0.00  0.00    +0.000 OA
ATOM     54  C   UNL     1      20.129  10.358  66.137  0.00  0.00    +0.000 C 
ENDBRANCH  52  53
ENDBRANCH   7  52
BRANCH  20  55
ATOM     55  O   UNL     1      12.731  15.590  61.917  0.00  0.00    +0.000 OA
ATOM     56  C   UNL     1      12.133  15.641  63.209  0.00  0.00    +0.000 C 
ENDBRANCH  20  55
BRANCH   6  57
ATOM     57  C   UNL     1      20.258  12.730  60.241  0.00  0.00    +0.000 C 
ATOM     58  C   UNL     1      19.556  13.798  59.400  0.00  0.00    +0.000 C 
ENDBRANCH   6  57
BRANCH   9  59
ATOM     59  O   UNL     1      19.239   9.708  62.327  0.00  0.00    +0.000 OA
BRANCH  59  61
ATOM     60  O   UNL     1      21.350   9.058  62.935  0.00  0.00    +0.000 OA
ATOM     61  C   UNL     1      20.172   8.803  62.728  0.00  0.00    +0.000 C 
ATOM     62  C   UNL     1      19.541   7.458  62.913  0.00  0.00    +0.000 C 
ENDBRANCH  59  61
ENDBRANCH   9  59
TORSDOF 12
ENDMDL
