MODEL 1
REMARK VINA RESULT:      -3.6      0.000      0.000
REMARK  Name = Vorinostat.pdbqt.pdb
REMARK  6 active torsions:
REMARK  status: ('A' for Active; 'I' for Inactive)
REMARK    1  A    between atoms: C_1  and  C_2
REMARK    2  A    between atoms: C_3  and  C_4
REMARK    3  A    between atoms: C_5  and  C_8
REMARK    4  A    between atoms: N_7  and  O_10
REMARK    5  A    between atoms: C_12  and  C_15
REMARK    6  A    between atoms: N_14  and  C_17
REMARK                            x       y       z     vdW  Elec       q    Type
REMARK                         _______ _______ _______ _____ _____    ______ ____
ROOT
ATOM      1  C   UNL     1      12.947  12.424  58.567  0.00  0.00    +0.000 C 
ATOM      2  C   UNL     1      14.008  12.399  57.463  0.00  0.00    +0.000 C 
ENDROOT
BRANCH   2   5
ATOM      3  O   UNL     1      15.844  13.263  56.396  0.00  0.00    +0.000 OA
ATOM      4  N   UNL     1      14.888  11.310  55.555  0.00  0.00    +0.000 N 
ATOM      5  C   UNL     1      15.008  12.373  56.420  0.00  0.00    +0.000 C 
ATOM      6  H   UNL     1      14.130  10.659  55.720  0.00  0.00    +0.000 HD
BRANCH   4   7
ATOM      7  C   UNL     1      15.726  11.050  54.457  0.00  0.00    +0.000 A 
ATOM      8  C   UNL     1      15.518  11.785  53.290  0.00  0.00    +0.000 A 
ATOM      9  C   UNL     1      16.744  10.097  54.493  0.00  0.00    +0.000 A 
ATOM     10  C   UNL     1      16.318  11.571  52.169  0.00  0.00    +0.000 A 
ATOM     11  C   UNL     1      17.546   9.881  53.374  0.00  0.00    +0.000 A 
ATOM     12  C   UNL     1      17.333  10.618  52.212  0.00  0.00    +0.000 A 
ENDBRANCH   4   7
ENDBRANCH   2   5
BRANCH   1  13
ATOM     13  C   UNL     1      11.885  12.450  59.670  0.00  0.00    +0.000 C 
ATOM     14  C   UNL     1      10.822  12.475  60.773  0.00  0.00    +0.000 C 
BRANCH  14  15
ATOM     15  C   UNL     1       9.760  12.500  61.875  0.00  0.00    +0.000 C 
ATOM     16  C   UNL     1       8.697  12.525  62.978  0.00  0.00    +0.000 C 
BRANCH  16  19
ATOM     17  O   UNL     1       7.797  13.335  64.951  0.00  0.00    +0.000 OA
ATOM     18  N   UNL     1       6.671  11.662  63.876  0.00  0.00    +0.000 N 
ATOM     19  C   UNL     1       7.701  12.550  64.016  0.00  0.00    +0.000 C 
ATOM     20  H   UNL     1       6.555  11.034  63.090  0.00  0.00    +0.000 HD
BRANCH  18  21
ATOM     21  O   UNL     1       5.656  11.678  64.857  0.00  0.00    +0.000 OA
ATOM     22  H   UNL     1       4.860  11.933  64.340  0.00  0.00    +0.000 HD
ENDBRANCH  18  21
ENDBRANCH  16  19
ENDBRANCH  14  15
ENDBRANCH   1  13
TORSDOF 6
ENDMDL
MODEL 2
REMARK VINA RESULT:      -3.5      3.078      3.677
REMARK  Name = Vorinostat.pdbqt.pdb
REMARK  6 active torsions:
REMARK  status: ('A' for Active; 'I' for Inactive)
REMARK    1  A    between atoms: C_1  and  C_2
REMARK    2  A    between atoms: C_3  and  C_4
REMARK    3  A    between atoms: C_5  and  C_8
REMARK    4  A    between atoms: N_7  and  O_10
REMARK    5  A    between atoms: C_12  and  C_15
REMARK    6  A    between atoms: N_14  and  C_17
REMARK                            x       y       z     vdW  Elec       q    Type
REMARK                         _______ _______ _______ _____ _____    ______ ____
ROOT
ATOM      1  C   UNL     1      14.542  12.191  60.280  0.00  0.00    +0.000 C 
ATOM      2  C   UNL     1      15.840  11.873  59.533  0.00  0.00    +0.000 C 
ENDROOT
BRANCH   2   5
ATOM      3  O   UNL     1      17.795  12.502  58.512  0.00  0.00    +0.000 OA
ATOM      4  N   UNL     1      17.265  10.233  58.594  0.00  0.00    +0.000 N 
ATOM      5  C   UNL     1      17.066  11.575  58.828  0.00  0.00    +0.000 C 
ATOM      6  H   UNL     1      16.554   9.593  58.926  0.00  0.00    +0.000 HD
BRANCH   4   7
ATOM      7  C   UNL     1      18.371   9.674  57.931  0.00  0.00    +0.000 A 
ATOM      8  C   UNL     1      19.509   9.392  58.687  0.00  0.00    +0.000 A 
ATOM      9  C   UNL     1      18.370   9.393  56.565  0.00  0.00    +0.000 A 
ATOM     10  C   UNL     1      20.636   8.837  58.085  0.00  0.00    +0.000 A 
ATOM     11  C   UNL     1      19.496   8.837  55.960  0.00  0.00    +0.000 A 
ATOM     12  C   UNL     1      20.629   8.559  56.720  0.00  0.00    +0.000 A 
ENDBRANCH   4   7
ENDBRANCH   2   5
BRANCH   1  13
ATOM     13  C   UNL     1      13.244  12.509  61.028  0.00  0.00    +0.000 C 
ATOM     14  C   UNL     1      11.946  12.827  61.776  0.00  0.00    +0.000 C 
BRANCH  14  15
ATOM     15  C   UNL     1      10.648  13.146  62.523  0.00  0.00    +0.000 C 
ATOM     16  C   UNL     1       9.349  13.463  63.271  0.00  0.00    +0.000 C 
BRANCH  16  19
ATOM     17  O   UNL     1       7.544  14.818  63.785  0.00  0.00    +0.000 OA
ATOM     18  N   UNL     1       7.687  12.794  64.835  0.00  0.00    +0.000 N 
ATOM     19  C   UNL     1       8.129  13.759  63.974  0.00  0.00    +0.000 C 
ATOM     20  H   UNL     1       8.135  11.896  64.973  0.00  0.00    +0.000 HD
BRANCH  18  21
ATOM     21  O   UNL     1       6.475  13.033  65.519  0.00  0.00    +0.000 OA
ATOM     22  H   UNL     1       5.846  12.436  65.058  0.00  0.00    +0.000 HD
ENDBRANCH  18  21
ENDBRANCH  16  19
ENDBRANCH  14  15
ENDBRANCH   1  13
TORSDOF 6
ENDMDL
MODEL 3
REMARK VINA RESULT:      -3.3     14.912     20.446
REMARK  Name = Vorinostat.pdbqt.pdb
REMARK  6 active torsions:
REMARK  status: ('A' for Active; 'I' for Inactive)
REMARK    1  A    between atoms: C_1  and  C_2
REMARK    2  A    between atoms: C_3  and  C_4
REMARK    3  A    between atoms: C_5  and  C_8
REMARK    4  A    between atoms: N_7  and  O_10
REMARK    5  A    between atoms: C_12  and  C_15
REMARK    6  A    between atoms: N_14  and  C_17
REMARK                            x       y       z     vdW  Elec       q    Type
REMARK                         _______ _______ _______ _____ _____    ______ ____
ROOT
ATOM      1  C   UNL     1      13.469   2.626  72.708  0.00  0.00    +0.000 C 
ATOM      2  C   UNL     1      12.679   2.325  73.985  0.00  0.00    +0.000 C 
ENDROOT
BRANCH   2   5
ATOM      3  O   UNL     1      12.312   1.129  75.906  0.00  0.00    +0.000 OA
ATOM      4  N   UNL     1      10.847   2.865  75.381  0.00  0.00    +0.000 N 
ATOM      5  C   UNL     1      11.932   2.041  75.188  0.00  0.00    +0.000 C 
ATOM      6  H   UNL     1      10.673   3.576  74.682  0.00  0.00    +0.000 HD
BRANCH   4   7
ATOM      7  C   UNL     1       9.956   2.804  76.467  0.00  0.00    +0.000 A 
ATOM      8  C   UNL     1      10.173   3.673  77.537  0.00  0.00    +0.000 A 
ATOM      9  C   UNL     1       8.879   1.920  76.512  0.00  0.00    +0.000 A 
ATOM     10  C   UNL     1       9.324   3.659  78.640  0.00  0.00    +0.000 A 
ATOM     11  C   UNL     1       8.027   1.903  77.615  0.00  0.00    +0.000 A 
ATOM     12  C   UNL     1       8.250   2.773  78.679  0.00  0.00    +0.000 A 
ENDBRANCH   4   7
ENDBRANCH   2   5
BRANCH   1  13
ATOM     13  C   UNL     1      14.259   2.926  71.431  0.00  0.00    +0.000 C 
ATOM     14  C   UNL     1      15.049   3.226  70.153  0.00  0.00    +0.000 C 
BRANCH  14  15
ATOM     15  C   UNL     1      15.840   3.525  68.876  0.00  0.00    +0.000 C 
ATOM     16  C   UNL     1      16.631   3.826  67.599  0.00  0.00    +0.000 C 
BRANCH  16  19
ATOM     17  O   UNL     1      18.170   5.041  66.369  0.00  0.00    +0.000 OA
ATOM     18  N   UNL     1      17.140   3.279  65.342  0.00  0.00    +0.000 N 
ATOM     19  C   UNL     1      17.376   4.109  66.402  0.00  0.00    +0.000 C 
ATOM     20  H   UNL     1      16.518   2.481  65.363  0.00  0.00    +0.000 HD
BRANCH  18  21
ATOM     21  O   UNL     1      17.876   3.504  64.158  0.00  0.00    +0.000 OA
ATOM     22  H   UNL     1      17.406   2.945  63.502  0.00  0.00    +0.000 HD
ENDBRANCH  18  21
ENDBRANCH  16  19
ENDBRANCH  14  15
ENDBRANCH   1  13
TORSDOF 6
ENDMDL
MODEL 4
REMARK VINA RESULT:      -3.2      9.023     14.497
REMARK  Name = Vorinostat.pdbqt.pdb
REMARK  6 active torsions:
REMARK  status: ('A' for Active; 'I' for Inactive)
REMARK    1  A    between atoms: C_1  and  C_2
REMARK    2  A    between atoms: C_3  and  C_4
REMARK    3  A    between atoms: C_5  and  C_8
REMARK    4  A    between atoms: N_7  and  O_10
REMARK    5  A    between atoms: C_12  and  C_15
REMARK    6  A    between atoms: N_14  and  C_17
REMARK                            x       y       z     vdW  Elec       q    Type
REMARK                         _______ _______ _______ _____ _____    ______ ____
ROOT
ATOM      1  C   UNL     1       5.177   6.030  62.389  0.00  0.00    +0.000 C 
ATOM      2  C   UNL     1       4.430   4.843  63.004  0.00  0.00    +0.000 C 
ENDROOT
BRANCH   2   5
ATOM      3  O   UNL     1       2.546   3.570  63.299  0.00  0.00    +0.000 OA
ATOM      4  N   UNL     1       4.494   2.946  64.416  0.00  0.00    +0.000 N 
ATOM      5  C   UNL     1       3.723   3.725  63.584  0.00  0.00    +0.000 C 
ATOM      6  H   UNL     1       5.461   3.219  64.544  0.00  0.00    +0.000 HD
BRANCH   4   7
ATOM      7  C   UNL     1       4.056   1.802  65.105  0.00  0.00    +0.000 A 
ATOM      8  C   UNL     1       3.732   1.941  66.456  0.00  0.00    +0.000 A 
ATOM      9  C   UNL     1       3.934   0.553  64.498  0.00  0.00    +0.000 A 
ATOM     10  C   UNL     1       3.292   0.843  67.191  0.00  0.00    +0.000 A 
ATOM     11  C   UNL     1       3.493  -0.547  65.231  0.00  0.00    +0.000 A 
ATOM     12  C   UNL     1       3.172  -0.402  66.578  0.00  0.00    +0.000 A 
ENDBRANCH   4   7
ENDBRANCH   2   5
BRANCH   1  13
ATOM     13  C   UNL     1       5.924   7.217  61.774  0.00  0.00    +0.000 C 
ATOM     14  C   UNL     1       6.671   8.404  61.158  0.00  0.00    +0.000 C 
BRANCH  14  15
ATOM     15  C   UNL     1       7.418   9.591  60.543  0.00  0.00    +0.000 C 
ATOM     16  C   UNL     1       8.164  10.779  59.928  0.00  0.00    +0.000 C 
BRANCH  16  19
ATOM     17  O   UNL     1       8.328  12.589  58.494  0.00  0.00    +0.000 OA
ATOM     18  N   UNL     1      10.126  12.119  59.822  0.00  0.00    +0.000 N 
ATOM     19  C   UNL     1       8.863  11.896  59.351  0.00  0.00    +0.000 C 
ATOM     20  H   UNL     1      10.569  11.582  60.558  0.00  0.00    +0.000 HD
BRANCH  18  21
ATOM     21  O   UNL     1      10.833  13.226  59.304  0.00  0.00    +0.000 OA
ATOM     22  H   UNL     1      11.161  12.888  58.442  0.00  0.00    +0.000 HD
ENDBRANCH  18  21
ENDBRANCH  16  19
ENDBRANCH  14  15
ENDBRANCH   1  13
TORSDOF 6
ENDMDL
MODEL 5
REMARK VINA RESULT:      -3.2      7.311     12.876
REMARK  Name = Vorinostat.pdbqt.pdb
REMARK  6 active torsions:
REMARK  status: ('A' for Active; 'I' for Inactive)
REMARK    1  A    between atoms: C_1  and  C_2
REMARK    2  A    between atoms: C_3  and  C_4
REMARK    3  A    between atoms: C_5  and  C_8
REMARK    4  A    between atoms: N_7  and  O_10
REMARK    5  A    between atoms: C_12  and  C_15
REMARK    6  A    between atoms: N_14  and  C_17
REMARK                            x       y       z     vdW  Elec       q    Type
REMARK                         _______ _______ _______ _____ _____    ______ ____
ROOT
ATOM      1  C   UNL     1      18.440   8.763  55.054  0.00  0.00    +0.000 C 
ATOM      2  C   UNL     1      18.492   9.176  56.527  0.00  0.00    +0.000 C 
ENDROOT
BRANCH   2   5
ATOM      3  O   UNL     1      19.557   9.337  58.551  0.00  0.00    +0.000 OA
ATOM      4  N   UNL     1      17.387  10.168  58.370  0.00  0.00    +0.000 N 
ATOM      5  C   UNL     1      18.539   9.566  57.918  0.00  0.00    +0.000 C 
ATOM      6  H   UNL     1      16.631  10.281  57.706  0.00  0.00    +0.000 HD
BRANCH   4   7
ATOM      7  C   UNL     1      17.169  10.641  59.675  0.00  0.00    +0.000 A 
ATOM      8  C   UNL     1      17.612  11.928  59.984  0.00  0.00    +0.000 A 
ATOM      9  C   UNL     1      16.534   9.883  60.658  0.00  0.00    +0.000 A 
ATOM     10  C   UNL     1      17.424  12.451  61.261  0.00  0.00    +0.000 A 
ATOM     11  C   UNL     1      16.344  10.403  61.937  0.00  0.00    +0.000 A 
ATOM     12  C   UNL     1      16.789  11.688  62.238  0.00  0.00    +0.000 A 
ENDBRANCH   4   7
ENDBRANCH   2   5
BRANCH   1  13
ATOM     13  C   UNL     1      18.388   8.348  53.581  0.00  0.00    +0.000 C 
ATOM     14  C   UNL     1      18.335   7.934  52.106  0.00  0.00    +0.000 C 
BRANCH  14  15
ATOM     15  C   UNL     1      18.281   7.521  50.633  0.00  0.00    +0.000 C 
ATOM     16  C   UNL     1      18.229   7.107  49.159  0.00  0.00    +0.000 C 
BRANCH  16  19
ATOM     17  O   UNL     1      19.106   6.089  47.274  0.00  0.00    +0.000 OA
ATOM     18  N   UNL     1      17.058   7.086  47.089  0.00  0.00    +0.000 N 
ATOM     19  C   UNL     1      18.182   6.717  47.775  0.00  0.00    +0.000 C 
ATOM     20  H   UNL     1      16.268   7.569  47.496  0.00  0.00    +0.000 HD
BRANCH  18  21
ATOM     21  O   UNL     1      16.960   6.693  45.737  0.00  0.00    +0.000 OA
ATOM     22  H   UNL     1      17.712   6.070  45.637  0.00  0.00    +0.000 HD
ENDBRANCH  18  21
ENDBRANCH  16  19
ENDBRANCH  14  15
ENDBRANCH   1  13
TORSDOF 6
ENDMDL
MODEL 6
REMARK VINA RESULT:      -3.1     14.106     15.439
REMARK  Name = Vorinostat.pdbqt.pdb
REMARK  6 active torsions:
REMARK  status: ('A' for Active; 'I' for Inactive)
REMARK    1  A    between atoms: C_1  and  C_2
REMARK    2  A    between atoms: C_3  and  C_4
REMARK    3  A    between atoms: C_5  and  C_8
REMARK    4  A    between atoms: N_7  and  O_10
REMARK    5  A    between atoms: C_12  and  C_15
REMARK    6  A    between atoms: N_14  and  C_17
REMARK                            x       y       z     vdW  Elec       q    Type
REMARK                         _______ _______ _______ _____ _____    ______ ____
ROOT
ATOM      1  C   UNL     1      14.514   3.509  70.520  0.00  0.00    +0.000 C 
ATOM      2  C   UNL     1      15.214   4.191  69.341  0.00  0.00    +0.000 C 
ENDROOT
BRANCH   2   5
ATOM      3  O   UNL     1      15.436   5.902  67.832  0.00  0.00    +0.000 OA
ATOM      4  N   UNL     1      16.959   4.140  67.744  0.00  0.00    +0.000 N 
ATOM      5  C   UNL     1      15.876   4.835  68.230  0.00  0.00    +0.000 C 
ATOM      6  H   UNL     1      17.189   3.263  68.195  0.00  0.00    +0.000 HD
BRANCH   4   7
ATOM      7  C   UNL     1      17.776   4.542  66.672  0.00  0.00    +0.000 A 
ATOM      8  C   UNL     1      18.462   5.751  66.795  0.00  0.00    +0.000 A 
ATOM      9  C   UNL     1      17.923   3.787  65.510  0.00  0.00    +0.000 A 
ATOM     10  C   UNL     1      19.286   6.201  65.765  0.00  0.00    +0.000 A 
ATOM     11  C   UNL     1      18.746   4.235  64.478  0.00  0.00    +0.000 A 
ATOM     12  C   UNL     1      19.428   5.442  64.607  0.00  0.00    +0.000 A 
ENDBRANCH   4   7
ENDBRANCH   2   5
BRANCH   1  13
ATOM     13  C   UNL     1      13.815   2.827  71.699  0.00  0.00    +0.000 C 
ATOM     14  C   UNL     1      13.117   2.144  72.880  0.00  0.00    +0.000 C 
BRANCH  14  15
ATOM     15  C   UNL     1      12.419   1.461  74.059  0.00  0.00    +0.000 C 
ATOM     16  C   UNL     1      11.720   0.779  75.239  0.00  0.00    +0.000 C 
BRANCH  16  19
ATOM     17  O   UNL     1      11.671  -0.658  77.054  0.00  0.00    +0.000 OA
ATOM     18  N   UNL     1       9.758   0.486  76.551  0.00  0.00    +0.000 N 
ATOM     19  C   UNL     1      11.065   0.140  76.349  0.00  0.00    +0.000 C 
ATOM     20  H   UNL     1       9.253   1.173  76.004  0.00  0.00    +0.000 HD
BRANCH  18  21
ATOM     21  O   UNL     1       9.089  -0.095  77.650  0.00  0.00    +0.000 OA
ATOM     22  H   UNL     1       8.181  -0.232  77.302  0.00  0.00    +0.000 HD
ENDBRANCH  18  21
ENDBRANCH  16  19
ENDBRANCH  14  15
ENDBRANCH   1  13
TORSDOF 6
ENDMDL
MODEL 7
REMARK VINA RESULT:      -3.1     11.005     13.328
REMARK  Name = Vorinostat.pdbqt.pdb
REMARK  6 active torsions:
REMARK  status: ('A' for Active; 'I' for Inactive)
REMARK    1  A    between atoms: C_1  and  C_2
REMARK    2  A    between atoms: C_3  and  C_4
REMARK    3  A    between atoms: C_5  and  C_8
REMARK    4  A    between atoms: N_7  and  O_10
REMARK    5  A    between atoms: C_12  and  C_15
REMARK    6  A    between atoms: N_14  and  C_17
REMARK                            x       y       z     vdW  Elec       q    Type
REMARK                         _______ _______ _______ _____ _____    ______ ____
ROOT
ATOM      1  C   UNL     1       4.448   3.268  62.982  0.00  0.00    +0.000 C 
ATOM      2  C   UNL     1       4.693   4.020  61.671  0.00  0.00    +0.000 C 
ENDROOT
BRANCH   2   5
ATOM      3  O   UNL     1       4.174   5.653  60.147  0.00  0.00    +0.000 OA
ATOM      4  N   UNL     1       5.993   4.262  59.709  0.00  0.00    +0.000 N 
ATOM      5  C   UNL     1       4.922   4.731  60.434  0.00  0.00    +0.000 C 
ATOM      6  H   UNL     1       6.511   3.482  60.096  0.00  0.00    +0.000 HD
BRANCH   4   7
ATOM      7  C   UNL     1       6.432   4.772  58.475  0.00  0.00    +0.000 A 
ATOM      8  C   UNL     1       7.254   5.900  58.492  0.00  0.00    +0.000 A 
ATOM      9  C   UNL     1       6.082   4.200  57.253  0.00  0.00    +0.000 A 
ATOM     10  C   UNL     1       7.720   6.451  57.300  0.00  0.00    +0.000 A 
ATOM     11  C   UNL     1       6.548   4.749  56.059  0.00  0.00    +0.000 A 
ATOM     12  C   UNL     1       7.367   5.874  56.083  0.00  0.00    +0.000 A 
ENDBRANCH   4   7
ENDBRANCH   2   5
BRANCH   1  13
ATOM     13  C   UNL     1       4.205   2.517  64.294  0.00  0.00    +0.000 C 
ATOM     14  C   UNL     1       3.960   1.765  65.607  0.00  0.00    +0.000 C 
BRANCH  14  15
ATOM     15  C   UNL     1       3.716   1.015  66.918  0.00  0.00    +0.000 C 
ATOM     16  C   UNL     1       3.469   0.263  68.230  0.00  0.00    +0.000 C 
BRANCH  16  19
ATOM     17  O   UNL     1       4.141  -1.074  69.997  0.00  0.00    +0.000 OA
ATOM     18  N   UNL     1       1.972  -0.355  69.971  0.00  0.00    +0.000 N 
ATOM     19  C   UNL     1       3.237  -0.444  69.461  0.00  0.00    +0.000 C 
ATOM     20  H   UNL     1       1.224   0.192  69.565  0.00  0.00    +0.000 HD
BRANCH  18  21
ATOM     21  O   UNL     1       1.713  -1.009  71.196  0.00  0.00    +0.000 OA
ATOM     22  H   UNL     1       1.589  -1.943  70.920  0.00  0.00    +0.000 HD
ENDBRANCH  18  21
ENDBRANCH  16  19
ENDBRANCH  14  15
ENDBRANCH   1  13
TORSDOF 6
ENDMDL
MODEL 8
REMARK VINA RESULT:      -3.1     14.536     15.426
REMARK  Name = Vorinostat.pdbqt.pdb
REMARK  6 active torsions:
REMARK  status: ('A' for Active; 'I' for Inactive)
REMARK    1  A    between atoms: C_1  and  C_2
REMARK    2  A    between atoms: C_3  and  C_4
REMARK    3  A    between atoms: C_5  and  C_8
REMARK    4  A    between atoms: N_7  and  O_10
REMARK    5  A    between atoms: C_12  and  C_15
REMARK    6  A    between atoms: N_14  and  C_17
REMARK                            x       y       z     vdW  Elec       q    Type
REMARK                         _______ _______ _______ _____ _____    ______ ____
ROOT
ATOM      1  C   UNL     1      11.570  -1.058  66.260  0.00  0.00    +0.000 C 
ATOM      2  C   UNL     1      12.733  -0.928  65.272  0.00  0.00    +0.000 C 
ENDROOT
BRANCH   2   5
ATOM      3  O   UNL     1      14.798  -0.138  64.666  0.00  0.00    +0.000 OA
ATOM      4  N   UNL     1      13.635  -1.478  63.155  0.00  0.00    +0.000 N 
ATOM      5  C   UNL     1      13.829  -0.804  64.338  0.00  0.00    +0.000 C 
ATOM      6  H   UNL     1      12.766  -1.986  63.046  0.00  0.00    +0.000 HD
BRANCH   4   7
ATOM      7  C   UNL     1      14.540  -1.523  62.080  0.00  0.00    +0.000 A 
ATOM      8  C   UNL     1      14.288  -0.699  60.982  0.00  0.00    +0.000 A 
ATOM      9  C   UNL     1      15.665  -2.347  62.073  0.00  0.00    +0.000 A 
ATOM     10  C   UNL     1      15.150  -0.700  59.888  0.00  0.00    +0.000 A 
ATOM     11  C   UNL     1      16.530  -2.349  60.980  0.00  0.00    +0.000 A 
ATOM     12  C   UNL     1      16.272  -1.525  59.887  0.00  0.00    +0.000 A 
ENDBRANCH   4   7
ENDBRANCH   2   5
BRANCH   1  13
ATOM     13  C   UNL     1      10.408  -1.186  67.248  0.00  0.00    +0.000 C 
ATOM     14  C   UNL     1       9.244  -1.314  68.237  0.00  0.00    +0.000 C 
BRANCH  14  15
ATOM     15  C   UNL     1       8.081  -1.441  69.225  0.00  0.00    +0.000 C 
ATOM     16  C   UNL     1       6.917  -1.568  70.213  0.00  0.00    +0.000 C 
BRANCH  16  19
ATOM     17  O   UNL     1       4.757  -1.126  70.915  0.00  0.00    +0.000 OA
ATOM     18  N   UNL     1       6.058  -2.450  72.247  0.00  0.00    +0.000 N 
ATOM     19  C   UNL     1       5.823  -1.685  71.139  0.00  0.00    +0.000 C 
ATOM     20  H   UNL     1       6.919  -2.952  72.428  0.00  0.00    +0.000 HD
BRANCH  18  21
ATOM     21  O   UNL     1       4.998  -2.618  73.164  0.00  0.00    +0.000 OA
ATOM     22  H   UNL     1       4.486  -3.358  72.769  0.00  0.00    +0.000 HD
ENDBRANCH  18  21
ENDBRANCH  16  19
ENDBRANCH  14  15
ENDBRANCH   1  13
TORSDOF 6
ENDMDL
MODEL 9
REMARK VINA RESULT:      -3.1     15.052     17.737
REMARK  Name = Vorinostat.pdbqt.pdb
REMARK  6 active torsions:
REMARK  status: ('A' for Active; 'I' for Inactive)
REMARK    1  A    between atoms: C_1  and  C_2
REMARK    2  A    between atoms: C_3  and  C_4
REMARK    3  A    between atoms: C_5  and  C_8
REMARK    4  A    between atoms: N_7  and  O_10
REMARK    5  A    between atoms: C_12  and  C_15
REMARK    6  A    between atoms: N_14  and  C_17
REMARK                            x       y       z     vdW  Elec       q    Type
REMARK                         _______ _______ _______ _____ _____    ______ ____
ROOT
ATOM      1  C   UNL     1      12.686   2.814  73.888  0.00  0.00    +0.000 C 
ATOM      2  C   UNL     1      13.829   3.195  72.942  0.00  0.00    +0.000 C 
ENDROOT
BRANCH   2   5
ATOM      3  O   UNL     1      16.055   3.356  72.417  0.00  0.00    +0.000 OA
ATOM      4  N   UNL     1      14.490   4.097  70.856  0.00  0.00    +0.000 N 
ATOM      5  C   UNL     1      14.907   3.555  72.051  0.00  0.00    +0.000 C 
ATOM      6  H   UNL     1      13.492   4.193  70.713  0.00  0.00    +0.000 HD
BRANCH   4   7
ATOM      7  C   UNL     1      15.330   4.531  69.816  0.00  0.00    +0.000 A 
ATOM      8  C   UNL     1      15.658   3.612  68.819  0.00  0.00    +0.000 A 
ATOM      9  C   UNL     1      15.839   5.827  69.747  0.00  0.00    +0.000 A 
ATOM     10  C   UNL     1      16.487   3.985  67.763  0.00  0.00    +0.000 A 
ATOM     11  C   UNL     1      16.668   6.203  68.691  0.00  0.00    +0.000 A 
ATOM     12  C   UNL     1      16.992   5.281  67.699  0.00  0.00    +0.000 A 
ENDBRANCH   4   7
ENDBRANCH   2   5
BRANCH   1  13
ATOM     13  C   UNL     1      11.545   2.432  74.834  0.00  0.00    +0.000 C 
ATOM     14  C   UNL     1      10.403   2.050  75.781  0.00  0.00    +0.000 C 
BRANCH  14  15
ATOM     15  C   UNL     1       9.262   1.669  76.728  0.00  0.00    +0.000 C 
ATOM     16  C   UNL     1       8.119   1.287  77.675  0.00  0.00    +0.000 C 
BRANCH  16  19
ATOM     17  O   UNL     1       7.286   0.520  79.693  0.00  0.00    +0.000 OA
ATOM     18  N   UNL     1       5.783   1.075  78.065  0.00  0.00    +0.000 N 
ATOM     19  C   UNL     1       7.047   0.926  78.563  0.00  0.00    +0.000 C 
ATOM     20  H   UNL     1       5.565   1.447  77.149  0.00  0.00    +0.000 HD
BRANCH  18  21
ATOM     21  O   UNL     1       4.702   0.762  78.918  0.00  0.00    +0.000 OA
ATOM     22  H   UNL     1       4.008   1.393  78.627  0.00  0.00    +0.000 HD
ENDBRANCH  18  21
ENDBRANCH  16  19
ENDBRANCH  14  15
ENDBRANCH   1  13
TORSDOF 6
ENDMDL
