MODEL 1
REMARK VINA RESULT:      -7.3      0.000      0.000
REMARK  Name = 10074640_Masitinib.pdbqt.pdb
REMARK  6 active torsions:
REMARK  status: ('A' for Active; 'I' for Inactive)
REMARK    1  A    between atoms: C_1  and  N_22
REMARK    2  A    between atoms: C_2  and  N_9
REMARK    3  A    between atoms: C_12  and  C_16
REMARK    4  A    between atoms: C_23  and  C_30
REMARK    5  A    between atoms: C_25  and  C_31
REMARK    6  A    between atoms: C_31  and  N_32
REMARK                            x       y       z     vdW  Elec       q    Type
REMARK                         _______ _______ _______ _____ _____    ______ ____
ROOT
ATOM      1  C   UNL     1      -2.836  46.666  26.476  0.00  0.00    +0.000 A 
ATOM      2  C   UNL     1      -4.908  47.967  26.354  0.00  0.00    +0.000 A 
ATOM      3  C   UNL     1      -3.572  47.820  26.751  0.00  0.00    +0.000 A 
ATOM      4  C   UNL     1      -5.493  46.891  25.657  0.00  0.00    +0.000 A 
ATOM      5  C   UNL     1      -3.437  45.631  25.764  0.00  0.00    +0.000 A 
ATOM      6  C   UNL     1      -4.766  45.737  25.364  0.00  0.00    +0.000 A 
ATOM      7  C   UNL     1      -6.937  46.961  25.202  0.00  0.00    +0.000 C 
ENDROOT
BRANCH   2   9
ATOM      8  S   UNL     1      -7.405  50.870  27.629  0.00  0.00    +0.000 S 
ATOM      9  N   UNL     1      -5.636  49.155  26.597  0.00  0.00    +0.000 N 
ATOM     10  N   UNL     1      -6.775  48.582  28.605  0.00  0.00    +0.000 NA
ATOM     11  C   UNL     1      -6.518  49.384  27.596  0.00  0.00    +0.000 A 
ATOM     12  C   UNL     1      -7.736  49.121  29.439  0.00  0.00    +0.000 A 
ATOM     13  C   UNL     1      -8.183  50.359  29.048  0.00  0.00    +0.000 A 
ATOM     14  H   UNL     1      -5.431  49.902  25.937  0.00  0.00    +0.000 HD
BRANCH  12  16
ATOM     15  N   UNL     1      -7.744  46.831  32.389  0.00  0.00    +0.000 NA
ATOM     16  C   UNL     1      -8.198  48.428  30.621  0.00  0.00    +0.000 A 
ATOM     17  C   UNL     1      -9.452  48.671  31.173  0.00  0.00    +0.000 A 
ATOM     18  C   UNL     1      -7.391  47.498  31.262  0.00  0.00    +0.000 A 
ATOM     19  C   UNL     1      -9.858  47.999  32.321  0.00  0.00    +0.000 A 
ATOM     20  C   UNL     1      -8.971  47.097  32.884  0.00  0.00    +0.000 A 
ENDBRANCH  12  16
ENDBRANCH   2   9
BRANCH   1  22
ATOM     21  O   UNL     1      -1.817  45.676  29.010  0.00  0.00    +0.000 OA
ATOM     22  N   UNL     1      -1.491  46.506  26.867  0.00  0.00    +0.000 N 
ATOM     23  C   UNL     1      -1.077  46.070  28.117  0.00  0.00    +0.000 C 
ATOM     24  H   UNL     1      -0.794  46.702  26.158  0.00  0.00    +0.000 HD
BRANCH  23  30
ATOM     25  C   UNL     1       3.135  45.946  28.806  0.00  0.00    +0.000 A 
ATOM     26  C   UNL     1       2.422  47.091  29.156  0.00  0.00    +0.000 A 
ATOM     27  C   UNL     1       2.481  44.858  28.235  0.00  0.00    +0.000 A 
ATOM     28  C   UNL     1       1.048  47.146  28.934  0.00  0.00    +0.000 A 
ATOM     29  C   UNL     1       1.108  44.916  28.012  0.00  0.00    +0.000 A 
ATOM     30  C   UNL     1       0.386  46.061  28.359  0.00  0.00    +0.000 A 
BRANCH  25  31
ATOM     31  C   UNL     1       4.542  45.888  29.035  0.00  0.00    +0.000 C 
BRANCH  31  32
ATOM     32  N   UNL     1       5.979  45.827  29.271  0.00  0.00    +0.000 N 
ATOM     33  N   UNL     1       7.511  48.907  30.150  0.00  0.00    +0.000 N 
ATOM     34  C   UNL     1       6.597  46.905  28.450  0.00  0.00    +0.000 C 
ATOM     35  C   UNL     1       6.228  46.479  30.588  0.00  0.00    +0.000 C 
ATOM     36  C   UNL     1       7.276  48.250  28.835  0.00  0.00    +0.000 C 
ATOM     37  C   UNL     1       6.906  47.824  30.973  0.00  0.00    +0.000 C 
ATOM     38  C   UNL     1       8.946  48.875  30.392  0.00  0.00    +0.000 C 
ENDBRANCH  31  32
ENDBRANCH  25  31
ENDBRANCH  23  30
ENDBRANCH   1  22
TORSDOF 6
ENDMDL
MODEL 2
REMARK VINA RESULT:      -7.0      7.352      8.989
REMARK  Name = 10074640_Masitinib.pdbqt.pdb
REMARK  6 active torsions:
REMARK  status: ('A' for Active; 'I' for Inactive)
REMARK    1  A    between atoms: C_1  and  N_22
REMARK    2  A    between atoms: C_2  and  N_9
REMARK    3  A    between atoms: C_12  and  C_16
REMARK    4  A    between atoms: C_23  and  C_30
REMARK    5  A    between atoms: C_25  and  C_31
REMARK    6  A    between atoms: C_31  and  N_32
REMARK                            x       y       z     vdW  Elec       q    Type
REMARK                         _______ _______ _______ _____ _____    ______ ____
ROOT
ATOM      1  C   UNL     1      -1.353  50.925  27.562  0.00  0.00    +0.000 A 
ATOM      2  C   UNL     1      -2.332  48.694  27.810  0.00  0.00    +0.000 A 
ATOM      3  C   UNL     1      -1.619  49.647  27.070  0.00  0.00    +0.000 A 
ATOM      4  C   UNL     1      -2.779  49.079  29.090  0.00  0.00    +0.000 A 
ATOM      5  C   UNL     1      -1.789  51.265  28.841  0.00  0.00    +0.000 A 
ATOM      6  C   UNL     1      -2.509  50.348  29.601  0.00  0.00    +0.000 A 
ATOM      7  C   UNL     1      -3.568  48.115  29.953  0.00  0.00    +0.000 C 
ENDROOT
BRANCH   2   9
ATOM      8  S   UNL     1      -3.786  45.260  26.267  0.00  0.00    +0.000 S 
ATOM      9  N   UNL     1      -2.562  47.385  27.324  0.00  0.00    +0.000 N 
ATOM     10  N   UNL     1      -4.645  47.678  26.213  0.00  0.00    +0.000 NA
ATOM     11  C   UNL     1      -3.648  46.942  26.651  0.00  0.00    +0.000 A 
ATOM     12  C   UNL     1      -5.593  46.903  25.572  0.00  0.00    +0.000 A 
ATOM     13  C   UNL     1      -5.278  45.567  25.518  0.00  0.00    +0.000 A 
ATOM     14  H   UNL     1      -1.795  46.742  27.505  0.00  0.00    +0.000 HD
BRANCH  12  16
ATOM     15  N   UNL     1      -7.820  49.253  23.712  0.00  0.00    +0.000 NA
ATOM     16  C   UNL     1      -6.793  47.477  25.005  0.00  0.00    +0.000 A 
ATOM     17  C   UNL     1      -8.034  46.858  25.127  0.00  0.00    +0.000 A 
ATOM     18  C   UNL     1      -6.744  48.670  24.297  0.00  0.00    +0.000 A 
ATOM     19  C   UNL     1      -9.164  47.430  24.554  0.00  0.00    +0.000 A 
ATOM     20  C   UNL     1      -9.002  48.618  23.862  0.00  0.00    +0.000 A 
ENDBRANCH  12  16
ENDBRANCH   2   9
BRANCH   1  22
ATOM     21  O   UNL     1       1.480  51.549  27.719  0.00  0.00    +0.000 OA
ATOM     22  N   UNL     1      -0.636  51.892  26.829  0.00  0.00    +0.000 N 
ATOM     23  C   UNL     1       0.714  52.169  26.991  0.00  0.00    +0.000 C 
ATOM     24  H   UNL     1      -1.158  52.391  26.117  0.00  0.00    +0.000 HD
BRANCH  23  30
ATOM     25  C   UNL     1       2.195  55.400  24.626  0.00  0.00    +0.000 A 
ATOM     26  C   UNL     1       3.085  54.665  25.406  0.00  0.00    +0.000 A 
ATOM     27  C   UNL     1       0.839  55.087  24.623  0.00  0.00    +0.000 A 
ATOM     28  C   UNL     1       2.615  53.610  26.185  0.00  0.00    +0.000 A 
ATOM     29  C   UNL     1       0.371  54.033  25.403  0.00  0.00    +0.000 A 
ATOM     30  C   UNL     1       1.257  53.291  26.189  0.00  0.00    +0.000 A 
BRANCH  25  31
ATOM     31  C   UNL     1       2.676  56.479  23.827  0.00  0.00    +0.000 C 
BRANCH  31  32
ATOM     32  N   UNL     1       3.166  57.584  23.012  0.00  0.00    +0.000 N 
ATOM     33  N   UNL     1       2.054  57.602  19.641  0.00  0.00    +0.000 N 
ATOM     34  C   UNL     1       3.732  56.986  21.771  0.00  0.00    +0.000 C 
ATOM     35  C   UNL     1       1.977  58.197  22.356  0.00  0.00    +0.000 C 
ATOM     36  C   UNL     1       3.249  57.002  20.292  0.00  0.00    +0.000 C 
ATOM     37  C   UNL     1       1.494  58.212  20.878  0.00  0.00    +0.000 C 
ATOM     38  C   UNL     1       2.528  58.695  18.803  0.00  0.00    +0.000 C 
ENDBRANCH  31  32
ENDBRANCH  25  31
ENDBRANCH  23  30
ENDBRANCH   1  22
TORSDOF 6
ENDMDL
MODEL 3
REMARK VINA RESULT:      -6.5      6.413     13.643
REMARK  Name = 10074640_Masitinib.pdbqt.pdb
REMARK  6 active torsions:
REMARK  status: ('A' for Active; 'I' for Inactive)
REMARK    1  A    between atoms: C_1  and  N_22
REMARK    2  A    between atoms: C_2  and  N_9
REMARK    3  A    between atoms: C_12  and  C_16
REMARK    4  A    between atoms: C_23  and  C_30
REMARK    5  A    between atoms: C_25  and  C_31
REMARK    6  A    between atoms: C_31  and  N_32
REMARK                            x       y       z     vdW  Elec       q    Type
REMARK                         _______ _______ _______ _____ _____    ______ ____
ROOT
ATOM      1  C   UNL     1      -7.121  47.734  31.603  0.00  0.00    +0.000 A 
ATOM      2  C   UNL     1      -5.401  47.919  29.868  0.00  0.00    +0.000 A 
ATOM      3  C   UNL     1      -6.521  47.286  30.425  0.00  0.00    +0.000 A 
ATOM      4  C   UNL     1      -4.893  49.042  30.551  0.00  0.00    +0.000 A 
ATOM      5  C   UNL     1      -6.608  48.861  32.240  0.00  0.00    +0.000 A 
ATOM      6  C   UNL     1      -5.490  49.509  31.722  0.00  0.00    +0.000 A 
ATOM      7  C   UNL     1      -3.678  49.779  30.025  0.00  0.00    +0.000 C 
ENDROOT
BRANCH   2   9
ATOM      8  S   UNL     1      -4.567  46.734  26.102  0.00  0.00    +0.000 S 
ATOM      9  N   UNL     1      -4.824  47.487  28.651  0.00  0.00    +0.000 N 
ATOM     10  N   UNL     1      -6.619  47.874  27.138  0.00  0.00    +0.000 NA
ATOM     11  C   UNL     1      -5.420  47.426  27.439  0.00  0.00    +0.000 A 
ATOM     12  C   UNL     1      -6.920  47.643  25.810  0.00  0.00    +0.000 A 
ATOM     13  C   UNL     1      -5.911  47.029  25.108  0.00  0.00    +0.000 A 
ATOM     14  H   UNL     1      -3.846  47.219  28.735  0.00  0.00    +0.000 HD
BRANCH  12  16
ATOM     15  N   UNL     1     -10.482  47.468  24.704  0.00  0.00    +0.000 NA
ATOM     16  C   UNL     1      -8.185  48.039  25.233  0.00  0.00    +0.000 A 
ATOM     17  C   UNL     1      -8.387  49.310  24.703  0.00  0.00    +0.000 A 
ATOM     18  C   UNL     1      -9.258  47.160  25.202  0.00  0.00    +0.000 A 
ATOM     19  C   UNL     1      -9.622  49.663  24.171  0.00  0.00    +0.000 A 
ATOM     20  C   UNL     1     -10.627  48.711  24.198  0.00  0.00    +0.000 A 
ENDBRANCH  12  16
ENDBRANCH   2   9
BRANCH   1  22
ATOM     21  O   UNL     1      -9.891  48.602  31.500  0.00  0.00    +0.000 OA
ATOM     22  N   UNL     1      -8.247  47.108  32.173  0.00  0.00    +0.000 N 
ATOM     23  C   UNL     1      -9.541  47.607  32.123  0.00  0.00    +0.000 C 
ATOM     24  H   UNL     1      -8.082  46.214  32.622  0.00  0.00    +0.000 HD
BRANCH  23  30
ATOM     25  C   UNL     1     -12.435  45.345  34.299  0.00  0.00    +0.000 A 
ATOM     26  C   UNL     1     -12.867  46.250  33.332  0.00  0.00    +0.000 A 
ATOM     27  C   UNL     1     -11.076  45.184  34.555  0.00  0.00    +0.000 A 
ATOM     28  C   UNL     1     -11.934  46.997  32.617  0.00  0.00    +0.000 A 
ATOM     29  C   UNL     1     -10.145  45.933  33.840  0.00  0.00    +0.000 A 
ATOM     30  C   UNL     1     -10.570  46.844  32.869  0.00  0.00    +0.000 A 
BRANCH  25  31
ATOM     31  C   UNL     1     -13.390  44.578  35.031  0.00  0.00    +0.000 C 
BRANCH  31  32
ATOM     32  N   UNL     1     -14.367  43.795  35.776  0.00  0.00    +0.000 N 
ATOM     33  N   UNL     1     -17.363  43.033  34.030  0.00  0.00    +0.000 N 
ATOM     34  C   UNL     1     -15.669  44.512  35.666  0.00  0.00    +0.000 C 
ATOM     35  C   UNL     1     -14.753  42.647  34.909  0.00  0.00    +0.000 C 
ATOM     36  C   UNL     1     -16.984  44.173  34.909  0.00  0.00    +0.000 C 
ATOM     37  C   UNL     1     -16.068  42.309  34.151  0.00  0.00    +0.000 C 
ATOM     38  C   UNL     1     -18.357  42.251  34.752  0.00  0.00    +0.000 C 
ENDBRANCH  31  32
ENDBRANCH  25  31
ENDBRANCH  23  30
ENDBRANCH   1  22
TORSDOF 6
ENDMDL
MODEL 4
REMARK VINA RESULT:      -6.5     27.878     29.378
REMARK  Name = 10074640_Masitinib.pdbqt.pdb
REMARK  6 active torsions:
REMARK  status: ('A' for Active; 'I' for Inactive)
REMARK    1  A    between atoms: C_1  and  N_22
REMARK    2  A    between atoms: C_2  and  N_9
REMARK    3  A    between atoms: C_12  and  C_16
REMARK    4  A    between atoms: C_23  and  C_30
REMARK    5  A    between atoms: C_25  and  C_31
REMARK    6  A    between atoms: C_31  and  N_32
REMARK                            x       y       z     vdW  Elec       q    Type
REMARK                         _______ _______ _______ _____ _____    ______ ____
ROOT
ATOM      1  C   UNL     1     -13.692  34.245   4.310  0.00  0.00    +0.000 A 
ATOM      2  C   UNL     1     -15.104  36.247   4.289  0.00  0.00    +0.000 A 
ATOM      3  C   UNL     1     -14.498  35.179   4.964  0.00  0.00    +0.000 A 
ATOM      4  C   UNL     1     -14.867  36.348   2.903  0.00  0.00    +0.000 A 
ATOM      5  C   UNL     1     -13.459  34.388   2.944  0.00  0.00    +0.000 A 
ATOM      6  C   UNL     1     -14.053  35.430   2.238  0.00  0.00    +0.000 A 
ATOM      7  C   UNL     1     -15.493  37.465   2.094  0.00  0.00    +0.000 C 
ENDROOT
BRANCH   2   9
ATOM      8  S   UNL     1     -17.872  38.343   6.346  0.00  0.00    +0.000 S 
ATOM      9  N   UNL     1     -15.885  37.215   4.964  0.00  0.00    +0.000 N 
ATOM     10  N   UNL     1     -17.466  35.824   6.071  0.00  0.00    +0.000 NA
ATOM     11  C   UNL     1     -16.984  36.996   5.719  0.00  0.00    +0.000 A 
ATOM     12  C   UNL     1     -18.606  35.962   6.839  0.00  0.00    +0.000 A 
ATOM     13  C   UNL     1     -18.963  37.267   7.077  0.00  0.00    +0.000 A 
ATOM     14  H   UNL     1     -15.537  38.165   4.860  0.00  0.00    +0.000 HD
BRANCH  12  16
ATOM     15  N   UNL     1     -21.434  33.630   7.550  0.00  0.00    +0.000 NA
ATOM     16  C   UNL     1     -19.330  34.818   7.346  0.00  0.00    +0.000 A 
ATOM     17  C   UNL     1     -18.695  33.800   8.051  0.00  0.00    +0.000 A 
ATOM     18  C   UNL     1     -20.694  34.687   7.131  0.00  0.00    +0.000 A 
ATOM     19  C   UNL     1     -19.419  32.705   8.510  0.00  0.00    +0.000 A 
ATOM     20  C   UNL     1     -20.775  32.671   8.233  0.00  0.00    +0.000 A 
ENDBRANCH  12  16
ENDBRANCH   2   9
BRANCH   1  22
ATOM     21  O   UNL     1     -11.186  34.250   5.780  0.00  0.00    +0.000 OA
ATOM     22  N   UNL     1     -13.075  33.168   4.977  0.00  0.00    +0.000 N 
ATOM     23  C   UNL     1     -11.849  33.232   5.621  0.00  0.00    +0.000 C 
ATOM     24  H   UNL     1     -13.598  32.299   4.999  0.00  0.00    +0.000 HD
BRANCH  23  30
ATOM     25  C   UNL     1     -10.367  29.606   7.320  0.00  0.00    +0.000 A 
ATOM     26  C   UNL     1     -10.153  29.859   5.967  0.00  0.00    +0.000 A 
ATOM     27  C   UNL     1     -11.058  30.523   8.107  0.00  0.00    +0.000 A 
ATOM     28  C   UNL     1     -10.635  31.037   5.399  0.00  0.00    +0.000 A 
ATOM     29  C   UNL     1     -11.540  31.699   7.536  0.00  0.00    +0.000 A 
ATOM     30  C   UNL     1     -11.331  31.960   6.180  0.00  0.00    +0.000 A 
BRANCH  25  31
ATOM     31  C   UNL     1      -9.873  28.402   7.903  0.00  0.00    +0.000 C 
BRANCH  31  32
ATOM     32  N   UNL     1      -9.371  27.170   8.499  0.00  0.00    +0.000 N 
ATOM     33  N   UNL     1      -9.212  27.144  12.045  0.00  0.00    +0.000 N 
ATOM     34  C   UNL     1      -8.295  27.559   9.453  0.00  0.00    +0.000 C 
ATOM     35  C   UNL     1     -10.355  26.761   9.540  0.00  0.00    +0.000 C 
ATOM     36  C   UNL     1      -8.222  27.539  11.006  0.00  0.00    +0.000 C 
ATOM     37  C   UNL     1     -10.283  26.742  11.093  0.00  0.00    +0.000 C 
ATOM     38  C   UNL     1      -8.714  25.925  12.667  0.00  0.00    +0.000 C 
ENDBRANCH  31  32
ENDBRANCH  25  31
ENDBRANCH  23  30
ENDBRANCH   1  22
TORSDOF 6
ENDMDL
MODEL 5
REMARK VINA RESULT:      -6.4      8.366     10.243
REMARK  Name = 10074640_Masitinib.pdbqt.pdb
REMARK  6 active torsions:
REMARK  status: ('A' for Active; 'I' for Inactive)
REMARK    1  A    between atoms: C_1  and  N_22
REMARK    2  A    between atoms: C_2  and  N_9
REMARK    3  A    between atoms: C_12  and  C_16
REMARK    4  A    between atoms: C_23  and  C_30
REMARK    5  A    between atoms: C_25  and  C_31
REMARK    6  A    between atoms: C_31  and  N_32
REMARK                            x       y       z     vdW  Elec       q    Type
REMARK                         _______ _______ _______ _____ _____    ______ ____
ROOT
ATOM      1  C   UNL     1      -0.476  52.375  27.289  0.00  0.00    +0.000 A 
ATOM      2  C   UNL     1      -1.230  50.131  27.919  0.00  0.00    +0.000 A 
ATOM      3  C   UNL     1      -0.780  51.052  26.963  0.00  0.00    +0.000 A 
ATOM      4  C   UNL     1      -1.370  50.594  29.242  0.00  0.00    +0.000 A 
ATOM      5  C   UNL     1      -0.602  52.794  28.612  0.00  0.00    +0.000 A 
ATOM      6  C   UNL     1      -1.057  51.910  29.586  0.00  0.00    +0.000 A 
ATOM      7  C   UNL     1      -1.863  49.668  30.335  0.00  0.00    +0.000 C 
ENDROOT
BRANCH   2   9
ATOM      8  S   UNL     1      -2.800  46.560  26.883  0.00  0.00    +0.000 S 
ATOM      9  N   UNL     1      -1.496  48.780  27.591  0.00  0.00    +0.000 N 
ATOM     10  N   UNL     1      -3.686  48.960  26.680  0.00  0.00    +0.000 NA
ATOM     11  C   UNL     1      -2.641  48.272  27.083  0.00  0.00    +0.000 A 
ATOM     12  C   UNL     1      -4.687  48.125  26.223  0.00  0.00    +0.000 A 
ATOM     13  C   UNL     1      -4.365  46.790  26.268  0.00  0.00    +0.000 A 
ATOM     14  H   UNL     1      -0.707  48.158  27.753  0.00  0.00    +0.000 HD
BRANCH  12  16
ATOM     15  N   UNL     1      -7.937  49.962  26.136  0.00  0.00    +0.000 NA
ATOM     16  C   UNL     1      -5.946  48.639  25.729  0.00  0.00    +0.000 A 
ATOM     17  C   UNL     1      -6.384  48.390  24.432  0.00  0.00    +0.000 A 
ATOM     18  C   UNL     1      -6.759  49.421  26.537  0.00  0.00    +0.000 A 
ATOM     19  C   UNL     1      -7.592  48.915  23.986  0.00  0.00    +0.000 A 
ATOM     20  C   UNL     1      -8.323  49.689  24.871  0.00  0.00    +0.000 A 
ENDBRANCH  12  16
ENDBRANCH   2   9
BRANCH   1  22
ATOM     21  O   UNL     1       2.264  52.935  26.504  0.00  0.00    +0.000 OA
ATOM     22  N   UNL     1      -0.020  53.311  26.340  0.00  0.00    +0.000 N 
ATOM     23  C   UNL     1       1.313  53.559  26.048  0.00  0.00    +0.000 C 
ATOM     24  H   UNL     1      -0.737  53.807  25.823  0.00  0.00    +0.000 HD
BRANCH  23  30
ATOM     25  C   UNL     1       2.010  56.686  23.226  0.00  0.00    +0.000 A 
ATOM     26  C   UNL     1       3.063  56.244  24.024  0.00  0.00    +0.000 A 
ATOM     27  C   UNL     1       0.746  56.117  23.351  0.00  0.00    +0.000 A 
ATOM     28  C   UNL     1       2.849  55.227  24.952  0.00  0.00    +0.000 A 
ATOM     29  C   UNL     1       0.534  55.101  24.280  0.00  0.00    +0.000 A 
ATOM     30  C   UNL     1       1.584  54.653  25.085  0.00  0.00    +0.000 A 
BRANCH  25  31
ATOM     31  C   UNL     1       2.229  57.726  22.275  0.00  0.00    +0.000 C 
BRANCH  31  32
ATOM     32  N   UNL     1       2.455  58.788  21.303  0.00  0.00    +0.000 N 
ATOM     33  N   UNL     1       0.204  58.848  18.558  0.00  0.00    +0.000 N 
ATOM     34  C   UNL     1       2.499  58.143  19.961  0.00  0.00    +0.000 C 
ATOM     35  C   UNL     1       1.147  59.472  21.099  0.00  0.00    +0.000 C 
ATOM     36  C   UNL     1       1.517  58.176  18.755  0.00  0.00    +0.000 C 
ATOM     37  C   UNL     1       0.165  59.505  19.893  0.00  0.00    +0.000 C 
ATOM     38  C   UNL     1       0.406  59.899  17.571  0.00  0.00    +0.000 C 
ENDBRANCH  31  32
ENDBRANCH  25  31
ENDBRANCH  23  30
ENDBRANCH   1  22
TORSDOF 6
ENDMDL
MODEL 6
REMARK VINA RESULT:      -6.3     23.073     25.974
REMARK  Name = 10074640_Masitinib.pdbqt.pdb
REMARK  6 active torsions:
REMARK  status: ('A' for Active; 'I' for Inactive)
REMARK    1  A    between atoms: C_1  and  N_22
REMARK    2  A    between atoms: C_2  and  N_9
REMARK    3  A    between atoms: C_12  and  C_16
REMARK    4  A    between atoms: C_23  and  C_30
REMARK    5  A    between atoms: C_25  and  C_31
REMARK    6  A    between atoms: C_31  and  N_32
REMARK                            x       y       z     vdW  Elec       q    Type
REMARK                         _______ _______ _______ _____ _____    ______ ____
ROOT
ATOM      1  C   UNL     1      -0.879  26.761  11.364  0.00  0.00    +0.000 A 
ATOM      2  C   UNL     1      -1.553  27.056   9.028  0.00  0.00    +0.000 A 
ATOM      3  C   UNL     1      -1.679  27.360  10.390  0.00  0.00    +0.000 A 
ATOM      4  C   UNL     1      -0.574  26.108   8.669  0.00  0.00    +0.000 A 
ATOM      5  C   UNL     1       0.096  25.845  10.973  0.00  0.00    +0.000 A 
ATOM      6  C   UNL     1       0.242  25.511   9.630  0.00  0.00    +0.000 A 
ATOM      7  C   UNL     1      -0.379  25.712   7.220  0.00  0.00    +0.000 C 
ENDROOT
BRANCH   2   9
ATOM      8  S   UNL     1      -4.457  28.595   6.685  0.00  0.00    +0.000 S 
ATOM      9  N   UNL     1      -2.338  27.698   8.041  0.00  0.00    +0.000 N 
ATOM     10  N   UNL     1      -4.480  27.661   9.075  0.00  0.00    +0.000 NA
ATOM     11  C   UNL     1      -3.673  27.907   8.066  0.00  0.00    +0.000 A 
ATOM     12  C   UNL     1      -5.786  27.985   8.760  0.00  0.00    +0.000 A 
ATOM     13  C   UNL     1      -5.943  28.503   7.498  0.00  0.00    +0.000 A 
ATOM     14  H   UNL     1      -1.798  28.042   7.250  0.00  0.00    +0.000 HD
BRANCH  12  16
ATOM     15  N   UNL     1      -7.571  27.461  11.998  0.00  0.00    +0.000 NA
ATOM     16  C   UNL     1      -6.867  27.801   9.702  0.00  0.00    +0.000 A 
ATOM     17  C   UNL     1      -8.201  27.822   9.304  0.00  0.00    +0.000 A 
ATOM     18  C   UNL     1      -6.609  27.611  11.052  0.00  0.00    +0.000 A 
ATOM     19  C   UNL     1      -9.216  27.659  10.240  0.00  0.00    +0.000 A 
ATOM     20  C   UNL     1      -8.848  27.484  11.563  0.00  0.00    +0.000 A 
ENDBRANCH  12  16
ENDBRANCH   2   9
BRANCH   1  22
ATOM     21  O   UNL     1       0.846  28.453  12.977  0.00  0.00    +0.000 OA
ATOM     22  N   UNL     1      -0.994  27.058  12.737  0.00  0.00    +0.000 N 
ATOM     23  C   UNL     1      -0.101  27.840  13.455  0.00  0.00    +0.000 C 
ATOM     24  H   UNL     1      -1.811  26.686  13.207  0.00  0.00    +0.000 HD
BRANCH  23  30
ATOM     25  C   UNL     1      -0.792  28.260  17.648  0.00  0.00    +0.000 A 
ATOM     26  C   UNL     1      -0.624  26.985  17.111  0.00  0.00    +0.000 A 
ATOM     27  C   UNL     1      -0.739  29.381  16.826  0.00  0.00    +0.000 A 
ATOM     28  C   UNL     1      -0.402  26.833  15.744  0.00  0.00    +0.000 A 
ATOM     29  C   UNL     1      -0.518  29.227  15.459  0.00  0.00    +0.000 A 
ATOM     30  C   UNL     1      -0.350  27.952  14.913  0.00  0.00    +0.000 A 
BRANCH  25  31
ATOM     31  C   UNL     1      -1.019  28.416  19.047  0.00  0.00    +0.000 C 
BRANCH  31  32
ATOM     32  N   UNL     1      -1.248  28.575  20.478  0.00  0.00    +0.000 N 
ATOM     33  N   UNL     1      -0.912  25.619  22.415  0.00  0.00    +0.000 N 
ATOM     34  C   UNL     1      -2.227  27.527  20.878  0.00  0.00    +0.000 C 
ATOM     35  C   UNL     1      -0.080  27.964  21.173  0.00  0.00    +0.000 C 
ATOM     36  C   UNL     1      -2.082  26.237  21.734  0.00  0.00    +0.000 C 
ATOM     37  C   UNL     1       0.065  26.674  22.028  0.00  0.00    +0.000 C 
ATOM     38  C   UNL     1      -1.134  25.750  23.848  0.00  0.00    +0.000 C 
ENDBRANCH  31  32
ENDBRANCH  25  31
ENDBRANCH  23  30
ENDBRANCH   1  22
TORSDOF 6
ENDMDL
MODEL 7
REMARK VINA RESULT:      -6.2     17.844     22.896
REMARK  Name = 10074640_Masitinib.pdbqt.pdb
REMARK  6 active torsions:
REMARK  status: ('A' for Active; 'I' for Inactive)
REMARK    1  A    between atoms: C_1  and  N_22
REMARK    2  A    between atoms: C_2  and  N_9
REMARK    3  A    between atoms: C_12  and  C_16
REMARK    4  A    between atoms: C_23  and  C_30
REMARK    5  A    between atoms: C_25  and  C_31
REMARK    6  A    between atoms: C_31  and  N_32
REMARK                            x       y       z     vdW  Elec       q    Type
REMARK                         _______ _______ _______ _____ _____    ______ ____
ROOT
ATOM      1  C   UNL     1     -23.504  45.923  18.507  0.00  0.00    +0.000 A 
ATOM      2  C   UNL     1     -24.642  43.963  17.577  0.00  0.00    +0.000 A 
ATOM      3  C   UNL     1     -23.528  44.567  18.176  0.00  0.00    +0.000 A 
ATOM      4  C   UNL     1     -25.755  44.785  17.316  0.00  0.00    +0.000 A 
ATOM      5  C   UNL     1     -24.631  46.703  18.256  0.00  0.00    +0.000 A 
ATOM      6  C   UNL     1     -25.751  46.139  17.653  0.00  0.00    +0.000 A 
ATOM      7  C   UNL     1     -26.997  44.216  16.659  0.00  0.00    +0.000 C 
ENDROOT
BRANCH   2   9
ATOM      8  S   UNL     1     -24.833  39.931  17.597  0.00  0.00    +0.000 S 
ATOM      9  N   UNL     1     -24.677  42.579  17.284  0.00  0.00    +0.000 N 
ATOM     10  N   UNL     1     -25.434  41.697  19.359  0.00  0.00    +0.000 NA
ATOM     11  C   UNL     1     -24.986  41.571  18.130  0.00  0.00    +0.000 A 
ATOM     12  C   UNL     1     -25.641  40.463  19.944  0.00  0.00    +0.000 A 
ATOM     13  C   UNL     1     -25.359  39.400  19.120  0.00  0.00    +0.000 A 
ATOM     14  H   UNL     1     -24.456  42.362  16.314  0.00  0.00    +0.000 HD
BRANCH  12  16
ATOM     15  N   UNL     1     -27.402  41.271  23.136  0.00  0.00    +0.000 NA
ATOM     16  C   UNL     1     -26.127  40.331  21.300  0.00  0.00    +0.000 A 
ATOM     17  C   UNL     1     -25.871  39.198  22.066  0.00  0.00    +0.000 A 
ATOM     18  C   UNL     1     -26.888  41.335  21.883  0.00  0.00    +0.000 A 
ATOM     19  C   UNL     1     -26.369  39.098  23.361  0.00  0.00    +0.000 A 
ATOM     20  C   UNL     1     -27.123  40.155  23.842  0.00  0.00    +0.000 A 
ENDBRANCH  12  16
ENDBRANCH   2   9
BRANCH   1  22
ATOM     21  O   UNL     1     -23.015  46.352  21.338  0.00  0.00    +0.000 OA
ATOM     22  N   UNL     1     -22.392  46.543  19.111  0.00  0.00    +0.000 N 
ATOM     23  C   UNL     1     -22.247  46.756  20.474  0.00  0.00    +0.000 C 
ATOM     24  H   UNL     1     -21.642  46.820  18.487  0.00  0.00    +0.000 HD
BRANCH  23  30
ATOM     25  C   UNL     1     -18.775  48.970  21.602  0.00  0.00    +0.000 A 
ATOM     26  C   UNL     1     -19.218  47.936  22.423  0.00  0.00    +0.000 A 
ATOM     27  C   UNL     1     -19.460  49.280  20.430  0.00  0.00    +0.000 A 
ATOM     28  C   UNL     1     -20.351  47.207  22.069  0.00  0.00    +0.000 A 
ATOM     29  C   UNL     1     -20.593  48.551  20.079  0.00  0.00    +0.000 A 
ATOM     30  C   UNL     1     -21.044  47.513  20.898  0.00  0.00    +0.000 A 
BRANCH  25  31
ATOM     31  C   UNL     1     -17.614  49.715  21.963  0.00  0.00    +0.000 C 
BRANCH  31  32
ATOM     32  N   UNL     1     -16.428  50.479  22.332  0.00  0.00    +0.000 N 
ATOM     33  N   UNL     1     -15.915  53.478  20.503  0.00  0.00    +0.000 N 
ATOM     34  C   UNL     1     -15.689  50.765  21.071  0.00  0.00    +0.000 C 
ATOM     35  C   UNL     1     -16.874  51.881  22.568  0.00  0.00    +0.000 C 
ATOM     36  C   UNL     1     -15.457  52.081  20.274  0.00  0.00    +0.000 C 
ATOM     37  C   UNL     1     -16.642  53.196  21.770  0.00  0.00    +0.000 C 
ATOM     38  C   UNL     1     -14.738  54.261  20.851  0.00  0.00    +0.000 C 
ENDBRANCH  31  32
ENDBRANCH  25  31
ENDBRANCH  23  30
ENDBRANCH   1  22
TORSDOF 6
ENDMDL
MODEL 8
REMARK VINA RESULT:      -6.1     28.543     31.391
REMARK  Name = 10074640_Masitinib.pdbqt.pdb
REMARK  6 active torsions:
REMARK  status: ('A' for Active; 'I' for Inactive)
REMARK    1  A    between atoms: C_1  and  N_22
REMARK    2  A    between atoms: C_2  and  N_9
REMARK    3  A    between atoms: C_12  and  C_16
REMARK    4  A    between atoms: C_23  and  C_30
REMARK    5  A    between atoms: C_25  and  C_31
REMARK    6  A    between atoms: C_31  and  N_32
REMARK                            x       y       z     vdW  Elec       q    Type
REMARK                         _______ _______ _______ _____ _____    ______ ____
ROOT
ATOM      1  C   UNL     1     -17.167  38.398   5.965  0.00  0.00    +0.000 A 
ATOM      2  C   UNL     1     -17.156  40.780   5.395  0.00  0.00    +0.000 A 
ATOM      3  C   UNL     1     -17.837  39.586   5.666  0.00  0.00    +0.000 A 
ATOM      4  C   UNL     1     -15.748  40.741   5.435  0.00  0.00    +0.000 A 
ATOM      5  C   UNL     1     -15.775  38.399   6.020  0.00  0.00    +0.000 A 
ATOM      6  C   UNL     1     -15.065  39.565   5.746  0.00  0.00    +0.000 A 
ATOM      7  C   UNL     1     -14.933  41.984   5.143  0.00  0.00    +0.000 C 
ENDROOT
BRANCH   2   9
ATOM      8  S   UNL     1     -19.785  43.710   4.503  0.00  0.00    +0.000 S 
ATOM      9  N   UNL     1     -17.841  41.991   5.134  0.00  0.00    +0.000 N 
ATOM     10  N   UNL     1     -20.096  41.233   5.097  0.00  0.00    +0.000 NA
ATOM     11  C   UNL     1     -19.170  42.155   4.948  0.00  0.00    +0.000 A 
ATOM     12  C   UNL     1     -21.352  41.738   4.820  0.00  0.00    +0.000 A 
ATOM     13  C   UNL     1     -21.356  43.069   4.479  0.00  0.00    +0.000 A 
ATOM     14  H   UNL     1     -17.233  42.807   5.110  0.00  0.00    +0.000 HD
BRANCH  12  16
ATOM     15  N   UNL     1     -23.522  38.702   4.947  0.00  0.00    +0.000 NA
ATOM     16  C   UNL     1     -22.540  40.919   4.906  0.00  0.00    +0.000 A 
ATOM     17  C   UNL     1     -23.806  41.475   5.069  0.00  0.00    +0.000 A 
ATOM     18  C   UNL     1     -22.456  39.535   4.845  0.00  0.00    +0.000 A 
ATOM     19  C   UNL     1     -24.926  40.656   5.165  0.00  0.00    +0.000 A 
ATOM     20  C   UNL     1     -24.729  39.288   5.099  0.00  0.00    +0.000 A 
ENDBRANCH  12  16
ENDBRANCH   2   9
BRANCH   1  22
ATOM     21  O   UNL     1     -19.046  37.847   8.111  0.00  0.00    +0.000 OA
ATOM     22  N   UNL     1     -17.838  37.190   6.242  0.00  0.00    +0.000 N 
ATOM     23  C   UNL     1     -18.690  36.986   7.317  0.00  0.00    +0.000 C 
ATOM     24  H   UNL     1     -17.696  36.439   5.576  0.00  0.00    +0.000 HD
BRANCH  23  30
ATOM     25  C   UNL     1     -20.313  33.065   7.791  0.00  0.00    +0.000 A 
ATOM     26  C   UNL     1     -18.981  33.294   8.126  0.00  0.00    +0.000 A 
ATOM     27  C   UNL     1     -21.104  34.102   7.304  0.00  0.00    +0.000 A 
ATOM     28  C   UNL     1     -18.437  34.567   7.973  0.00  0.00    +0.000 A 
ATOM     29  C   UNL     1     -20.558  35.374   7.151  0.00  0.00    +0.000 A 
ATOM     30  C   UNL     1     -19.222  35.611   7.484  0.00  0.00    +0.000 A 
BRANCH  25  31
ATOM     31  C   UNL     1     -20.871  31.762   7.949  0.00  0.00    +0.000 C 
BRANCH  31  32
ATOM     32  N   UNL     1     -21.441  30.430   8.113  0.00  0.00    +0.000 N 
ATOM     33  N   UNL     1     -20.678  28.812  11.179  0.00  0.00    +0.000 N 
ATOM     34  C   UNL     1     -20.325  29.530   8.516  0.00  0.00    +0.000 C 
ATOM     35  C   UNL     1     -22.131  30.415   9.433  0.00  0.00    +0.000 C 
ATOM     36  C   UNL     1     -19.995  28.814   9.857  0.00  0.00    +0.000 C 
ATOM     37  C   UNL     1     -21.802  29.700  10.774  0.00  0.00    +0.000 C 
ATOM     38  C   UNL     1     -21.235  27.480  11.370  0.00  0.00    +0.000 C 
ENDBRANCH  31  32
ENDBRANCH  25  31
ENDBRANCH  23  30
ENDBRANCH   1  22
TORSDOF 6
ENDMDL
MODEL 9
REMARK VINA RESULT:      -6.1      6.848     13.217
REMARK  Name = 10074640_Masitinib.pdbqt.pdb
REMARK  6 active torsions:
REMARK  status: ('A' for Active; 'I' for Inactive)
REMARK    1  A    between atoms: C_1  and  N_22
REMARK    2  A    between atoms: C_2  and  N_9
REMARK    3  A    between atoms: C_12  and  C_16
REMARK    4  A    between atoms: C_23  and  C_30
REMARK    5  A    between atoms: C_25  and  C_31
REMARK    6  A    between atoms: C_31  and  N_32
REMARK                            x       y       z     vdW  Elec       q    Type
REMARK                         _______ _______ _______ _____ _____    ______ ____
ROOT
ATOM      1  C   UNL     1      -9.836  49.798  30.773  0.00  0.00    +0.000 A 
ATOM      2  C   UNL     1      -9.524  50.353  28.408  0.00  0.00    +0.000 A 
ATOM      3  C   UNL     1      -9.940  49.476  29.419  0.00  0.00    +0.000 A 
ATOM      4  C   UNL     1      -8.986  51.591  28.812  0.00  0.00    +0.000 A 
ATOM      5  C   UNL     1      -9.322  51.040  31.138  0.00  0.00    +0.000 A 
ATOM      6  C   UNL     1      -8.888  51.933  30.161  0.00  0.00    +0.000 A 
ATOM      7  C   UNL     1      -8.501  52.594  27.785  0.00  0.00    +0.000 C 
ENDROOT
BRANCH   2   9
ATOM      8  S   UNL     1      -9.203  49.026  24.610  0.00  0.00    +0.000 S 
ATOM      9  N   UNL     1      -9.671  50.039  27.036  0.00  0.00    +0.000 N 
ATOM     10  N   UNL     1      -8.037  48.329  26.787  0.00  0.00    +0.000 NA
ATOM     11  C   UNL     1      -8.944  49.156  26.316  0.00  0.00    +0.000 A 
ATOM     12  C   UNL     1      -7.479  47.571  25.775  0.00  0.00    +0.000 A 
ATOM     13  C   UNL     1      -8.001  47.830  24.531  0.00  0.00    +0.000 A 
ATOM     14  H   UNL     1     -10.432  50.541  26.582  0.00  0.00    +0.000 HD
BRANCH  12  16
ATOM     15  N   UNL     1      -5.550  44.879  27.500  0.00  0.00    +0.000 NA
ATOM     16  C   UNL     1      -6.450  46.589  26.035  0.00  0.00    +0.000 A 
ATOM     17  C   UNL     1      -5.423  46.343  25.129  0.00  0.00    +0.000 A 
ATOM     18  C   UNL     1      -6.463  45.837  27.201  0.00  0.00    +0.000 A 
ATOM     19  C   UNL     1      -4.459  45.378  25.403  0.00  0.00    +0.000 A 
ATOM     20  C   UNL     1      -4.570  44.680  26.593  0.00  0.00    +0.000 A 
ENDBRANCH  12  16
ENDBRANCH   2   9
BRANCH   1  22
ATOM     21  O   UNL     1      -8.366  47.581  31.941  0.00  0.00    +0.000 OA
ATOM     22  N   UNL     1     -10.252  48.928  31.800  0.00  0.00    +0.000 N 
ATOM     23  C   UNL     1      -9.512  47.856  32.278  0.00  0.00    +0.000 C 
ATOM     24  H   UNL     1     -11.147  49.136  32.226  0.00  0.00    +0.000 HD
BRANCH  23  30
ATOM     25  C   UNL     1     -11.492  45.406  35.161  0.00  0.00    +0.000 A 
ATOM     26  C   UNL     1     -10.290  46.021  35.502  0.00  0.00    +0.000 A 
ATOM     27  C   UNL     1     -12.038  45.586  33.893  0.00  0.00    +0.000 A 
ATOM     28  C   UNL     1      -9.631  46.820  34.570  0.00  0.00    +0.000 A 
ATOM     29  C   UNL     1     -11.377  46.384  32.962  0.00  0.00    +0.000 A 
ATOM     30  C   UNL     1     -10.170  47.003  33.297  0.00  0.00    +0.000 A 
BRANCH  25  31
ATOM     31  C   UNL     1     -12.168  44.589  36.114  0.00  0.00    +0.000 C 
BRANCH  31  32
ATOM     32  N   UNL     1     -12.856  43.754  37.091  0.00  0.00    +0.000 N 
ATOM     33  N   UNL     1     -15.055  41.319  35.735  0.00  0.00    +0.000 N 
ATOM     34  C   UNL     1     -14.306  43.798  36.750  0.00  0.00    +0.000 C 
ATOM     35  C   UNL     1     -12.645  42.340  36.675  0.00  0.00    +0.000 C 
ATOM     36  C   UNL     1     -15.271  42.728  36.164  0.00  0.00    +0.000 C 
ATOM     37  C   UNL     1     -13.610  41.270  36.088  0.00  0.00    +0.000 C 
ATOM     38  C   UNL     1     -15.756  40.471  36.688  0.00  0.00    +0.000 C 
ENDBRANCH  31  32
ENDBRANCH  25  31
ENDBRANCH  23  30
ENDBRANCH   1  22
TORSDOF 6
ENDMDL
