MODEL 1
REMARK VINA RESULT:      -7.0      0.000      0.000
REMARK  Name = 101808842_CandidaspongiolideB.pdbqt.pdb
REMARK  12 active torsions:
REMARK  status: ('A' for Active; 'I' for Inactive)
REMARK    1  A    between atoms: C_6  and  C_42
REMARK    2  A    between atoms: C_7  and  O_28
REMARK    3  A    between atoms: C_10  and  O_30
REMARK    4  A    between atoms: C_13  and  O_32
REMARK    5  A    between atoms: C_19  and  O_34
REMARK    6  A    between atoms: C_20  and  O_38
REMARK    7  A    between atoms: C_21  and  O_36
REMARK    8  A    between atoms: O_38  and  C_40
REMARK    9  A    between atoms: C_42  and  C_44
REMARK   10  A    between atoms: C_42  and  O_52
REMARK   11  A    between atoms: C_45  and  C_47
REMARK   12  A    between atoms: C_47  and  C_49
REMARK                            x       y       z     vdW  Elec       q    Type
REMARK                         _______ _______ _______ _____ _____    ______ ____
ROOT
ATOM      1  O   UNL     1      10.807  39.123   9.880  0.00  0.00    +0.000 OA
ATOM      2  O   UNL     1       7.187  43.428   5.934  0.00  0.00    +0.000 OA
ATOM      3  O   UNL     1      10.910  42.003   7.391  0.00  0.00    +0.000 OA
ATOM      4  O   UNL     1       8.068  41.412   5.239  0.00  0.00    +0.000 OA
ATOM      5  O   UNL     1       6.570  39.004   6.091  0.00  0.00    +0.000 OA
ATOM      6  C   UNL     1       9.203  43.549   7.810  0.00  0.00    +0.000 C 
ATOM      7  C   UNL     1       9.393  41.399   9.234  0.00  0.00    +0.000 C 
ATOM      8  C   UNL     1       9.929  42.277   8.082  0.00  0.00    +0.000 C 
ATOM      9  C   UNL     1       8.172  43.540   6.827  0.00  0.00    +0.000 C 
ATOM     10  C   UNL     1       8.307  40.432   8.721  0.00  0.00    +0.000 C 
ATOM     11  C   UNL     1       8.579  39.047   8.926  0.00  0.00    +0.000 C 
ATOM     12  C   UNL     1      10.409  40.398   9.692  0.00  0.00    +0.000 C 
ATOM     13  C   UNL     1       9.699  38.220   9.474  0.00  0.00    +0.000 C 
ATOM     14  C   UNL     1      10.215  37.222   8.427  0.00  0.00    +0.000 C 
ATOM     15  C   UNL     1       9.851  37.342   7.052  0.00  0.00    +0.000 C 
ATOM     16  C   UNL     1      11.043  35.972   8.707  0.00  0.00    +0.000 C 
ATOM     17  C   UNL     1       7.181  42.254   5.246  0.00  0.00    +0.000 C 
ATOM     18  C   UNL     1       9.456  37.497   5.827  0.00  0.00    +0.000 C 
ATOM     19  C   UNL     1       5.887  42.068   4.548  0.00  0.00    +0.000 C 
ATOM     20  C   UNL     1       8.317  36.781   5.300  0.00  0.00    +0.000 C 
ATOM     21  C   UNL     1       5.457  40.761   4.093  0.00  0.00    +0.000 C 
ATOM     22  C   UNL     1       7.228  37.350   4.509  0.00  0.00    +0.000 C 
ATOM     23  C   UNL     1       6.306  39.620   3.787  0.00  0.00    +0.000 C 
ATOM     24  C   UNL     1       6.693  38.697   4.900  0.00  0.00    +0.000 C 
ATOM     25  C   UNL     1      10.112  38.599   5.044  0.00  0.00    +0.000 C 
ATOM     26  C   UNL     1       6.349  36.431   3.663  0.00  0.00    +0.000 C 
ATOM     27  C   UNL     1       6.968  39.549   2.414  0.00  0.00    +0.000 C 
ENDROOT
BRANCH   7  28
ATOM     28  O   UNL     1       8.895  42.089  10.362  0.00  0.00    +0.000 OA
ATOM     29  H   UNL     1       9.590  42.040  11.044  0.00  0.00    +0.000 HD
ENDBRANCH   7  28
BRANCH  10  30
ATOM     30  O   UNL     1       7.152  40.865   8.124  0.00  0.00    +0.000 OA
ATOM     31  H   UNL     1       6.461  40.169   8.140  0.00  0.00    +0.000 HD
ENDBRANCH  10  30
BRANCH  13  32
ATOM     32  O   UNL     1       9.216  37.544  10.632  0.00  0.00    +0.000 OA
ATOM     33  H   UNL     1       9.652  37.971  11.387  0.00  0.00    +0.000 HD
ENDBRANCH  13  32
BRANCH  19  34
ATOM     34  O   UNL     1       4.968  43.093   4.424  0.00  0.00    +0.000 OA
ATOM     35  H   UNL     1       5.212  43.749   3.738  0.00  0.00    +0.000 HD
ENDBRANCH  19  34
BRANCH  21  36
ATOM     36  O   UNL     1       4.175  40.724   3.570  0.00  0.00    +0.000 OA
ATOM     37  C   UNL     1       3.757  39.398   3.360  0.00  0.00    +0.000 C 
ENDBRANCH  21  36
BRANCH  20  38
ATOM     38  O   UNL     1       8.438  35.371   5.325  0.00  0.00    +0.000 OA
BRANCH  38  40
ATOM     39  O   UNL     1       9.649  35.148   3.347  0.00  0.00    +0.000 OA
ATOM     40  C   UNL     1       9.464  34.961   4.535  0.00  0.00    +0.000 C 
ATOM     41  C   UNL     1      10.469  34.100   5.205  0.00  0.00    +0.000 C 
ENDBRANCH  38  40
ENDBRANCH  20  38
BRANCH   6  42
ATOM     42  C   UNL     1       9.715  44.773   8.386  0.00  0.00    +0.000 C 
BRANCH  42  44
ATOM     43  O   UNL     1       8.004  46.525   7.757  0.00  0.00    +0.000 OA
ATOM     44  C   UNL     1       9.390  46.108   7.819  0.00  0.00    +0.000 C 
ATOM     45  C   UNL     1       8.765  47.001   8.790  0.00  0.00    +0.000 C 
ATOM     46  C   UNL     1      10.116  46.569   6.512  0.00  0.00    +0.000 C 
BRANCH  45  47
ATOM     47  C   UNL     1       8.980  48.416   8.845  0.00  0.00    +0.000 C 
ATOM     48  C   UNL     1       7.817  49.366   8.711  0.00  0.00    +0.000 C 
BRANCH  47  49
ATOM     49  C   UNL     1      10.147  48.939   9.458  0.00  0.00    +0.000 C 
ATOM     50  C   UNL     1      11.165  49.372   9.918  0.00  0.00    +0.000 C 
ATOM     51  C   UNL     1      12.523  49.889  10.401  0.00  0.00    +0.000 C 
ENDBRANCH  47  49
ENDBRANCH  45  47
ENDBRANCH  42  44
BRANCH  42  52
ATOM     52  O   UNL     1      10.503  44.613   9.518  0.00  0.00    +0.000 OA
ATOM     53  H   UNL     1      11.299  44.072   9.340  0.00  0.00    +0.000 HD
ENDBRANCH  42  52
ENDBRANCH   6  42
TORSDOF 12
ENDMDL
MODEL 2
REMARK VINA RESULT:      -6.9     26.012     29.585
REMARK  Name = 101808842_CandidaspongiolideB.pdbqt.pdb
REMARK  12 active torsions:
REMARK  status: ('A' for Active; 'I' for Inactive)
REMARK    1  A    between atoms: C_6  and  C_42
REMARK    2  A    between atoms: C_7  and  O_28
REMARK    3  A    between atoms: C_10  and  O_30
REMARK    4  A    between atoms: C_13  and  O_32
REMARK    5  A    between atoms: C_19  and  O_34
REMARK    6  A    between atoms: C_20  and  O_38
REMARK    7  A    between atoms: C_21  and  O_36
REMARK    8  A    between atoms: O_38  and  C_40
REMARK    9  A    between atoms: C_42  and  C_44
REMARK   10  A    between atoms: C_42  and  O_52
REMARK   11  A    between atoms: C_45  and  C_47
REMARK   12  A    between atoms: C_47  and  C_49
REMARK                            x       y       z     vdW  Elec       q    Type
REMARK                         _______ _______ _______ _____ _____    ______ ____
ROOT
ATOM      1  O   UNL     1      -8.559  47.820  23.813  0.00  0.00    +0.000 OA
ATOM      2  O   UNL     1     -12.419  52.093  27.562  0.00  0.00    +0.000 OA
ATOM      3  O   UNL     1     -11.669  48.229  25.973  0.00  0.00    +0.000 OA
ATOM      4  O   UNL     1     -10.738  50.748  28.391  0.00  0.00    +0.000 OA
ATOM      5  O   UNL     1      -7.979  51.713  27.915  0.00  0.00    +0.000 OA
ATOM      6  C   UNL     1     -12.749  50.259  25.531  0.00  0.00    +0.000 C 
ATOM      7  C   UNL     1     -10.536  49.670  24.328  0.00  0.00    +0.000 C 
ATOM      8  C   UNL     1     -11.640  49.283  25.336  0.00  0.00    +0.000 C 
ATOM      9  C   UNL     1     -12.634  51.207  26.587  0.00  0.00    +0.000 C 
ATOM     10  C   UNL     1      -9.426  50.483  25.022  0.00  0.00    +0.000 C 
ATOM     11  C   UNL     1      -8.117  49.920  24.941  0.00  0.00    +0.000 C 
ATOM     12  C   UNL     1      -9.731  48.482  23.898  0.00  0.00    +0.000 C 
ATOM     13  C   UNL     1      -7.493  48.674  24.396  0.00  0.00    +0.000 C 
ATOM     14  C   UNL     1      -6.762  47.893  25.498  0.00  0.00    +0.000 C 
ATOM     15  C   UNL     1      -6.963  48.200  26.877  0.00  0.00    +0.000 C 
ATOM     16  C   UNL     1      -5.696  46.823  25.285  0.00  0.00    +0.000 C 
ATOM     17  C   UNL     1     -11.361  51.799  28.367  0.00  0.00    +0.000 C 
ATOM     18  C   UNL     1      -7.174  48.553  28.107  0.00  0.00    +0.000 C 
ATOM     19  C   UNL     1     -10.985  52.980  29.179  0.00  0.00    +0.000 C 
ATOM     20  C   UNL     1      -6.297  49.473  28.793  0.00  0.00    +0.000 C 
ATOM     21  C   UNL     1      -9.679  53.082  29.800  0.00  0.00    +0.000 C 
ATOM     22  C   UNL     1      -6.707  50.618  29.604  0.00  0.00    +0.000 C 
ATOM     23  C   UNL     1      -8.792  51.984  30.156  0.00  0.00    +0.000 C 
ATOM     24  C   UNL     1      -7.850  51.460  29.118  0.00  0.00    +0.000 C 
ATOM     25  C   UNL     1      -8.476  48.119  28.716  0.00  0.00    +0.000 C 
ATOM     26  C   UNL     1      -5.726  51.223  30.607  0.00  0.00    +0.000 C 
ATOM     27  C   UNL     1      -9.030  51.251  31.472  0.00  0.00    +0.000 C 
ENDROOT
BRANCH   7  28
ATOM     28  O   UNL     1     -10.963  50.369  23.176  0.00  0.00    +0.000 OA
ATOM     29  H   UNL     1     -10.430  50.030  22.435  0.00  0.00    +0.000 HD
ENDBRANCH   7  28
BRANCH  10  30
ATOM     30  O   UNL     1      -9.667  51.672  25.660  0.00  0.00    +0.000 OA
ATOM     31  H   UNL     1      -8.885  52.262  25.618  0.00  0.00    +0.000 HD
ENDBRANCH  10  30
BRANCH  13  32
ATOM     32  O   UNL     1      -6.596  49.055  23.356  0.00  0.00    +0.000 OA
ATOM     33  H   UNL     1      -5.751  48.628  23.568  0.00  0.00    +0.000 HD
ENDBRANCH  13  32
BRANCH  19  34
ATOM     34  O   UNL     1     -11.794  54.097  29.268  0.00  0.00    +0.000 OA
ATOM     35  H   UNL     1     -12.056  54.311  30.188  0.00  0.00    +0.000 HD
ENDBRANCH  19  34
BRANCH  21  36
ATOM     36  O   UNL     1      -9.428  54.293  30.424  0.00  0.00    +0.000 OA
ATOM     37  C   UNL     1      -8.420  55.005  29.750  0.00  0.00    +0.000 C 
ENDBRANCH  21  36
BRANCH  20  38
ATOM     38  O   UNL     1      -4.953  49.042  28.905  0.00  0.00    +0.000 OA
BRANCH  38  40
ATOM     39  O   UNL     1      -5.242  47.676  30.770  0.00  0.00    +0.000 OA
ATOM     40  C   UNL     1      -4.873  47.898  29.632  0.00  0.00    +0.000 C 
ATOM     41  C   UNL     1      -4.171  46.775  28.963  0.00  0.00    +0.000 C 
ENDBRANCH  38  40
ENDBRANCH  20  38
BRANCH   6  42
ATOM     42  C   UNL     1     -13.977  50.065  24.792  0.00  0.00    +0.000 C 
BRANCH  42  44
ATOM     43  O   UNL     1     -13.700  51.855  23.029  0.00  0.00    +0.000 OA
ATOM     44  C   UNL     1     -14.563  51.133  23.941  0.00  0.00    +0.000 C 
ATOM     45  C   UNL     1     -14.463  50.842  22.514  0.00  0.00    +0.000 C 
ATOM     46  C   UNL     1     -15.575  52.138  24.584  0.00  0.00    +0.000 C 
BRANCH  45  47
ATOM     47  C   UNL     1     -15.453  51.198  21.543  0.00  0.00    +0.000 C 
ATOM     48  C   UNL     1     -15.128  52.192  20.457  0.00  0.00    +0.000 C 
BRANCH  47  49
ATOM     49  C   UNL     1     -16.553  50.338  21.295  0.00  0.00    +0.000 C 
ATOM     50  C   UNL     1     -17.515  49.664  21.056  0.00  0.00    +0.000 C 
ATOM     51  C   UNL     1     -18.802  48.907  20.719  0.00  0.00    +0.000 C 
ENDBRANCH  47  49
ENDBRANCH  45  47
ENDBRANCH  42  44
BRANCH  42  52
ATOM     52  O   UNL     1     -14.549  48.805  24.911  0.00  0.00    +0.000 OA
ATOM     53  H   UNL     1     -14.121  48.149  24.324  0.00  0.00    +0.000 HD
ENDBRANCH  42  52
ENDBRANCH   6  42
TORSDOF 12
ENDMDL
MODEL 3
REMARK VINA RESULT:      -6.9     27.434     30.717
REMARK  Name = 101808842_CandidaspongiolideB.pdbqt.pdb
REMARK  12 active torsions:
REMARK  status: ('A' for Active; 'I' for Inactive)
REMARK    1  A    between atoms: C_6  and  C_42
REMARK    2  A    between atoms: C_7  and  O_28
REMARK    3  A    between atoms: C_10  and  O_30
REMARK    4  A    between atoms: C_13  and  O_32
REMARK    5  A    between atoms: C_19  and  O_34
REMARK    6  A    between atoms: C_20  and  O_38
REMARK    7  A    between atoms: C_21  and  O_36
REMARK    8  A    between atoms: O_38  and  C_40
REMARK    9  A    between atoms: C_42  and  C_44
REMARK   10  A    between atoms: C_42  and  O_52
REMARK   11  A    between atoms: C_45  and  C_47
REMARK   12  A    between atoms: C_47  and  C_49
REMARK                            x       y       z     vdW  Elec       q    Type
REMARK                         _______ _______ _______ _____ _____    ______ ____
ROOT
ATOM      1  O   UNL     1     -12.116  48.307  29.886  0.00  0.00    +0.000 OA
ATOM      2  O   UNL     1     -11.318  50.706  23.496  0.00  0.00    +0.000 OA
ATOM      3  O   UNL     1     -11.843  47.461  26.183  0.00  0.00    +0.000 OA
ATOM      4  O   UNL     1     -13.346  50.294  24.517  0.00  0.00    +0.000 OA
ATOM      5  O   UNL     1     -14.227  52.335  26.474  0.00  0.00    +0.000 OA
ATOM      6  C   UNL     1     -10.218  48.776  25.129  0.00  0.00    +0.000 C 
ATOM      7  C   UNL     1     -10.763  49.134  27.631  0.00  0.00    +0.000 C 
ATOM      8  C   UNL     1     -11.026  48.374  26.314  0.00  0.00    +0.000 C 
ATOM      9  C   UNL     1     -10.760  49.749  24.242  0.00  0.00    +0.000 C 
ATOM     10  C   UNL     1     -11.642  50.398  27.715  0.00  0.00    +0.000 C 
ATOM     11  C   UNL     1     -12.512  50.461  28.845  0.00  0.00    +0.000 C 
ATOM     12  C   UNL     1     -11.294  48.393  28.820  0.00  0.00    +0.000 C 
ATOM     13  C   UNL     1     -12.873  49.581  29.999  0.00  0.00    +0.000 C 
ATOM     14  C   UNL     1     -14.378  49.278  30.015  0.00  0.00    +0.000 C 
ATOM     15  C   UNL     1     -15.199  49.561  28.883  0.00  0.00    +0.000 C 
ATOM     16  C   UNL     1     -15.181  48.771  31.209  0.00  0.00    +0.000 C 
ATOM     17  C   UNL     1     -12.622  50.962  23.793  0.00  0.00    +0.000 C 
ATOM     18  C   UNL     1     -15.887  49.870  27.828  0.00  0.00    +0.000 C 
ATOM     19  C   UNL     1     -13.051  52.241  23.180  0.00  0.00    +0.000 C 
ATOM     20  C   UNL     1     -16.592  51.127  27.724  0.00  0.00    +0.000 C 
ATOM     21  C   UNL     1     -14.224  52.948  23.655  0.00  0.00    +0.000 C 
ATOM     22  C   UNL     1     -16.586  52.029  26.574  0.00  0.00    +0.000 C 
ATOM     23  C   UNL     1     -15.362  52.377  24.360  0.00  0.00    +0.000 C 
ATOM     24  C   UNL     1     -15.290  52.249  25.850  0.00  0.00    +0.000 C 
ATOM     25  C   UNL     1     -15.754  48.952  26.646  0.00  0.00    +0.000 C 
ATOM     26  C   UNL     1     -17.694  53.070  26.426  0.00  0.00    +0.000 C 
ATOM     27  C   UNL     1     -16.464  51.707  23.546  0.00  0.00    +0.000 C 
ENDROOT
BRANCH   7  28
ATOM     28  O   UNL     1      -9.420  49.494  27.884  0.00  0.00    +0.000 OA
ATOM     29  H   UNL     1      -9.351  50.448  27.694  0.00  0.00    +0.000 HD
ENDBRANCH   7  28
BRANCH  10  30
ATOM     30  O   UNL     1     -11.587  51.402  26.784  0.00  0.00    +0.000 OA
ATOM     31  H   UNL     1     -12.485  51.702  26.531  0.00  0.00    +0.000 HD
ENDBRANCH  10  30
BRANCH  13  32
ATOM     32  O   UNL     1     -12.470  50.243  31.195  0.00  0.00    +0.000 OA
ATOM     33  H   UNL     1     -12.924  49.781  31.918  0.00  0.00    +0.000 HD
ENDBRANCH  13  32
BRANCH  19  34
ATOM     34  O   UNL     1     -12.284  52.893  22.233  0.00  0.00    +0.000 OA
ATOM     35  H   UNL     1     -11.416  52.467  22.079  0.00  0.00    +0.000 HD
ENDBRANCH  19  34
BRANCH  21  36
ATOM     36  O   UNL     1     -14.429  54.187  23.070  0.00  0.00    +0.000 OA
ATOM     37  C   UNL     1     -14.238  55.220  24.004  0.00  0.00    +0.000 C 
ENDBRANCH  21  36
BRANCH  20  38
ATOM     38  O   UNL     1     -17.582  51.337  28.713  0.00  0.00    +0.000 OA
BRANCH  38  40
ATOM     39  O   UNL     1     -16.206  52.884  29.783  0.00  0.00    +0.000 OA
ATOM     40  C   UNL     1     -17.073  52.029  29.765  0.00  0.00    +0.000 C 
ATOM     41  C   UNL     1     -17.605  51.637  31.093  0.00  0.00    +0.000 C 
ENDBRANCH  38  40
ENDBRANCH  20  38
BRANCH   6  42
ATOM     42  C   UNL     1      -9.031  48.012  24.812  0.00  0.00    +0.000 C 
BRANCH  42  44
ATOM     43  O   UNL     1      -7.309  49.582  25.793  0.00  0.00    +0.000 OA
ATOM     44  C   UNL     1      -7.682  48.635  24.762  0.00  0.00    +0.000 C 
ATOM     45  C   UNL     1      -6.857  48.296  25.917  0.00  0.00    +0.000 C 
ATOM     46  C   UNL     1      -7.137  49.142  23.386  0.00  0.00    +0.000 C 
BRANCH  45  47
ATOM     47  C   UNL     1      -5.441  48.093  25.870  0.00  0.00    +0.000 C 
ATOM     48  C   UNL     1      -4.510  49.091  26.511  0.00  0.00    +0.000 C 
BRANCH  47  49
ATOM     49  C   UNL     1      -4.910  46.797  25.647  0.00  0.00    +0.000 C 
ATOM     50  C   UNL     1      -4.526  45.679  25.456  0.00  0.00    +0.000 C 
ATOM     51  C   UNL     1      -4.151  44.212  25.227  0.00  0.00    +0.000 C 
ENDBRANCH  47  49
ENDBRANCH  45  47
ENDBRANCH  42  44
BRANCH  42  52
ATOM     52  O   UNL     1      -9.238  46.657  24.589  0.00  0.00    +0.000 OA
ATOM     53  H   UNL     1     -10.186  46.443  24.475  0.00  0.00    +0.000 HD
ENDBRANCH  42  52
ENDBRANCH   6  42
TORSDOF 12
ENDMDL
MODEL 4
REMARK VINA RESULT:      -6.7     25.728     30.887
REMARK  Name = 101808842_CandidaspongiolideB.pdbqt.pdb
REMARK  12 active torsions:
REMARK  status: ('A' for Active; 'I' for Inactive)
REMARK    1  A    between atoms: C_6  and  C_42
REMARK    2  A    between atoms: C_7  and  O_28
REMARK    3  A    between atoms: C_10  and  O_30
REMARK    4  A    between atoms: C_13  and  O_32
REMARK    5  A    between atoms: C_19  and  O_34
REMARK    6  A    between atoms: C_20  and  O_38
REMARK    7  A    between atoms: C_21  and  O_36
REMARK    8  A    between atoms: O_38  and  C_40
REMARK    9  A    between atoms: C_42  and  C_44
REMARK   10  A    between atoms: C_42  and  O_52
REMARK   11  A    between atoms: C_45  and  C_47
REMARK   12  A    between atoms: C_47  and  C_49
REMARK                            x       y       z     vdW  Elec       q    Type
REMARK                         _______ _______ _______ _____ _____    ______ ____
ROOT
ATOM      1  O   UNL     1     -20.997  43.021   3.828  0.00  0.00    +0.000 OA
ATOM      2  O   UNL     1     -22.622  36.765   6.160  0.00  0.00    +0.000 OA
ATOM      3  O   UNL     1     -22.572  39.644   3.041  0.00  0.00    +0.000 OA
ATOM      4  O   UNL     1     -20.679  37.301   5.037  0.00  0.00    +0.000 OA
ATOM      5  O   UNL     1     -18.619  38.693   6.645  0.00  0.00    +0.000 OA
ATOM      6  C   UNL     1     -23.841  38.858   4.844  0.00  0.00    +0.000 C 
ATOM      7  C   UNL     1     -22.532  41.080   5.041  0.00  0.00    +0.000 C 
ATOM      8  C   UNL     1     -22.936  39.850   4.199  0.00  0.00    +0.000 C 
ATOM      9  C   UNL     1     -23.256  37.745   5.511  0.00  0.00    +0.000 C 
ATOM     10  C   UNL     1     -21.272  40.777   5.876  0.00  0.00    +0.000 C 
ATOM     11  C   UNL     1     -20.161  41.640   5.637  0.00  0.00    +0.000 C 
ATOM     12  C   UNL     1     -21.995  42.188   4.189  0.00  0.00    +0.000 C 
ATOM     13  C   UNL     1     -19.834  42.775   4.720  0.00  0.00    +0.000 C 
ATOM     14  C   UNL     1     -18.597  42.460   3.867  0.00  0.00    +0.000 C 
ATOM     15  C   UNL     1     -18.078  41.134   3.782  0.00  0.00    +0.000 C 
ATOM     16  C   UNL     1     -17.732  43.476   3.128  0.00  0.00    +0.000 C 
ATOM     17  C   UNL     1     -21.286  36.695   5.908  0.00  0.00    +0.000 C 
ATOM     18  C   UNL     1     -17.647  39.911   3.774  0.00  0.00    +0.000 C 
ATOM     19  C   UNL     1     -20.615  35.832   6.909  0.00  0.00    +0.000 C 
ATOM     20  C   UNL     1     -16.597  39.471   4.664  0.00  0.00    +0.000 C 
ATOM     21  C   UNL     1     -19.184  35.907   7.129  0.00  0.00    +0.000 C 
ATOM     22  C   UNL     1     -16.598  38.249   5.467  0.00  0.00    +0.000 C 
ATOM     23  C   UNL     1     -18.179  36.379   6.189  0.00  0.00    +0.000 C 
ATOM     24  C   UNL     1     -17.875  37.844   6.142  0.00  0.00    +0.000 C 
ATOM     25  C   UNL     1     -18.423  38.930   2.942  0.00  0.00    +0.000 C 
ATOM     26  C   UNL     1     -15.278  37.697   6.002  0.00  0.00    +0.000 C 
ATOM     27  C   UNL     1     -17.663  35.414   5.126  0.00  0.00    +0.000 C 
ENDROOT
BRANCH   7  28
ATOM     28  O   UNL     1     -23.530  41.605   5.893  0.00  0.00    +0.000 OA
ATOM     29  H   UNL     1     -23.346  41.252   6.783  0.00  0.00    +0.000 HD
ENDBRANCH   7  28
BRANCH  10  30
ATOM     30  O   UNL     1     -21.220  39.764   6.798  0.00  0.00    +0.000 OA
ATOM     31  H   UNL     1     -21.544  38.920   6.418  0.00  0.00    +0.000 HD
ENDBRANCH  10  30
BRANCH  13  32
ATOM     32  O   UNL     1     -19.624  43.935   5.521  0.00  0.00    +0.000 OA
ATOM     33  H   UNL     1     -18.663  44.079   5.528  0.00  0.00    +0.000 HD
ENDBRANCH  13  32
BRANCH  19  34
ATOM     34  O   UNL     1     -21.327  35.025   7.776  0.00  0.00    +0.000 OA
ATOM     35  H   UNL     1     -21.399  34.098   7.468  0.00  0.00    +0.000 HD
ENDBRANCH  19  34
BRANCH  21  36
ATOM     36  O   UNL     1     -18.720  35.131   8.179  0.00  0.00    +0.000 OA
ATOM     37  C   UNL     1     -18.501  33.805   7.764  0.00  0.00    +0.000 C 
ENDBRANCH  21  36
BRANCH  20  38
ATOM     38  O   UNL     1     -15.365  40.150   4.510  0.00  0.00    +0.000 OA
BRANCH  38  40
ATOM     39  O   UNL     1     -15.769  41.358   6.461  0.00  0.00    +0.000 OA
ATOM     40  C   UNL     1     -15.292  41.214   5.351  0.00  0.00    +0.000 C 
ATOM     41  C   UNL     1     -14.586  42.400   4.806  0.00  0.00    +0.000 C 
ENDBRANCH  38  40
ENDBRANCH  20  38
BRANCH   6  42
ATOM     42  C   UNL     1     -25.261  38.946   4.581  0.00  0.00    +0.000 C 
BRANCH  42  44
ATOM     43  O   UNL     1     -26.020  40.430   6.482  0.00  0.00    +0.000 OA
ATOM     44  C   UNL     1     -26.243  39.265   5.650  0.00  0.00    +0.000 C 
ATOM     45  C   UNL     1     -26.908  40.549   5.447  0.00  0.00    +0.000 C 
ATOM     46  C   UNL     1     -26.789  38.102   6.543  0.00  0.00    +0.000 C 
BRANCH  45  47
ATOM     47  C   UNL     1     -28.273  40.817   5.784  0.00  0.00    +0.000 C 
ATOM     48  C   UNL     1     -29.388  40.249   4.943  0.00  0.00    +0.000 C 
BRANCH  47  49
ATOM     49  C   UNL     1     -28.621  41.207   7.102  0.00  0.00    +0.000 C 
ATOM     50  C   UNL     1     -28.977  41.509   8.206  0.00  0.00    +0.000 C 
ATOM     51  C   UNL     1     -29.547  41.863   9.583  0.00  0.00    +0.000 C 
ENDBRANCH  47  49
ENDBRANCH  45  47
ENDBRANCH  42  44
BRANCH  42  52
ATOM     52  O   UNL     1     -25.634  38.743   3.259  0.00  0.00    +0.000 OA
ATOM     53  H   UNL     1     -26.466  38.233   3.185  0.00  0.00    +0.000 HD
ENDBRANCH  42  52
ENDBRANCH   6  42
TORSDOF 12
ENDMDL
MODEL 5
REMARK VINA RESULT:      -6.7     24.453     29.013
REMARK  Name = 101808842_CandidaspongiolideB.pdbqt.pdb
REMARK  12 active torsions:
REMARK  status: ('A' for Active; 'I' for Inactive)
REMARK    1  A    between atoms: C_6  and  C_42
REMARK    2  A    between atoms: C_7  and  O_28
REMARK    3  A    between atoms: C_10  and  O_30
REMARK    4  A    between atoms: C_13  and  O_32
REMARK    5  A    between atoms: C_19  and  O_34
REMARK    6  A    between atoms: C_20  and  O_38
REMARK    7  A    between atoms: C_21  and  O_36
REMARK    8  A    between atoms: O_38  and  C_40
REMARK    9  A    between atoms: C_42  and  C_44
REMARK   10  A    between atoms: C_42  and  O_52
REMARK   11  A    between atoms: C_45  and  C_47
REMARK   12  A    between atoms: C_47  and  C_49
REMARK                            x       y       z     vdW  Elec       q    Type
REMARK                         _______ _______ _______ _____ _____    ______ ____
ROOT
ATOM      1  O   UNL     1     -17.649  34.751   6.704  0.00  0.00    +0.000 OA
ATOM      2  O   UNL     1     -19.510  41.120   4.920  0.00  0.00    +0.000 OA
ATOM      3  O   UNL     1     -17.361  37.545   4.133  0.00  0.00    +0.000 OA
ATOM      4  O   UNL     1     -20.578  39.187   4.251  0.00  0.00    +0.000 OA
ATOM      5  O   UNL     1     -22.339  37.936   6.276  0.00  0.00    +0.000 OA
ATOM      6  C   UNL     1     -17.199  39.638   5.168  0.00  0.00    +0.000 C 
ATOM      7  C   UNL     1     -17.512  37.501   6.590  0.00  0.00    +0.000 C 
ATOM      8  C   UNL     1     -17.364  38.158   5.201  0.00  0.00    +0.000 C 
ATOM      9  C   UNL     1     -18.363  40.443   5.013  0.00  0.00    +0.000 C 
ATOM     10  C   UNL     1     -18.992  37.472   7.022  0.00  0.00    +0.000 C 
ATOM     11  C   UNL     1     -19.521  36.175   7.294  0.00  0.00    +0.000 C 
ATOM     12  C   UNL     1     -17.246  36.028   6.543  0.00  0.00    +0.000 C 
ATOM     13  C   UNL     1     -19.042  34.759   7.221  0.00  0.00    +0.000 C 
ATOM     14  C   UNL     1     -19.933  33.920   6.292  0.00  0.00    +0.000 C 
ATOM     15  C   UNL     1     -20.868  34.539   5.410  0.00  0.00    +0.000 C 
ATOM     16  C   UNL     1     -20.022  32.398   6.266  0.00  0.00    +0.000 C 
ATOM     17  C   UNL     1     -20.594  40.354   4.617  0.00  0.00    +0.000 C 
ATOM     18  C   UNL     1     -21.714  35.169   4.656  0.00  0.00    +0.000 C 
ATOM     19  C   UNL     1     -21.846  41.103   4.874  0.00  0.00    +0.000 C 
ATOM     20  C   UNL     1     -23.087  35.371   5.059  0.00  0.00    +0.000 C 
ATOM     21  C   UNL     1     -23.115  40.418   5.030  0.00  0.00    +0.000 C 
ATOM     22  C   UNL     1     -23.838  36.622   4.975  0.00  0.00    +0.000 C 
ATOM     23  C   UNL     1     -23.468  39.105   4.511  0.00  0.00    +0.000 C 
ATOM     24  C   UNL     1     -23.136  37.899   5.333  0.00  0.00    +0.000 C 
ATOM     25  C   UNL     1     -21.153  35.849   3.440  0.00  0.00    +0.000 C 
ATOM     26  C   UNL     1     -25.365  36.588   5.015  0.00  0.00    +0.000 C 
ATOM     27  C   UNL     1     -23.926  38.992   3.061  0.00  0.00    +0.000 C 
ENDROOT
BRANCH   7  28
ATOM     28  O   UNL     1     -16.743  38.068   7.632  0.00  0.00    +0.000 OA
ATOM     29  H   UNL     1     -17.231  38.855   7.937  0.00  0.00    +0.000 HD
ENDBRANCH   7  28
BRANCH  10  30
ATOM     30  O   UNL     1     -19.748  38.607   7.155  0.00  0.00    +0.000 OA
ATOM     31  H   UNL     1     -20.700  38.417   7.023  0.00  0.00    +0.000 HD
ENDBRANCH  10  30
BRANCH  13  32
ATOM     32  O   UNL     1     -19.039  34.231   8.544  0.00  0.00    +0.000 OA
ATOM     33  H   UNL     1     -19.901  33.798   8.657  0.00  0.00    +0.000 HD
ENDBRANCH  13  32
BRANCH  19  34
ATOM     34  O   UNL     1     -21.850  42.463   5.120  0.00  0.00    +0.000 OA
ATOM     35  H   UNL     1     -21.612  42.688   6.044  0.00  0.00    +0.000 HD
ENDBRANCH  19  34
BRANCH  21  36
ATOM     36  O   UNL     1     -24.173  41.237   5.388  0.00  0.00    +0.000 OA
ATOM     37  C   UNL     1     -25.328  40.478   5.649  0.00  0.00    +0.000 C 
ENDBRANCH  21  36
BRANCH  20  38
ATOM     38  O   UNL     1     -23.821  34.182   5.285  0.00  0.00    +0.000 OA
BRANCH  38  40
ATOM     39  O   UNL     1     -23.643  34.549   7.579  0.00  0.00    +0.000 OA
ATOM     40  C   UNL     1     -23.797  33.843   6.599  0.00  0.00    +0.000 C 
ATOM     41  C   UNL     1     -23.908  32.389   6.876  0.00  0.00    +0.000 C 
ENDBRANCH  38  40
ENDBRANCH  20  38
BRANCH   6  42
ATOM     42  C   UNL     1     -15.862  40.182   5.074  0.00  0.00    +0.000 C 
BRANCH  42  44
ATOM     43  O   UNL     1     -14.491  41.978   3.939  0.00  0.00    +0.000 OA
ATOM     44  C   UNL     1     -15.613  41.618   4.781  0.00  0.00    +0.000 C 
ATOM     45  C   UNL     1     -15.731  41.938   3.362  0.00  0.00    +0.000 C 
ATOM     46  C   UNL     1     -15.724  42.655   5.948  0.00  0.00    +0.000 C 
BRANCH  45  47
ATOM     47  C   UNL     1     -16.254  43.168   2.849  0.00  0.00    +0.000 C 
ATOM     48  C   UNL     1     -15.355  44.122   2.105  0.00  0.00    +0.000 C 
BRANCH  47  49
ATOM     49  C   UNL     1     -17.646  43.315   2.623  0.00  0.00    +0.000 C 
ATOM     50  C   UNL     1     -18.819  43.386   2.391  0.00  0.00    +0.000 C 
ATOM     51  C   UNL     1     -20.302  43.389   2.007  0.00  0.00    +0.000 C 
ENDBRANCH  47  49
ENDBRANCH  45  47
ENDBRANCH  42  44
BRANCH  42  52
ATOM     52  O   UNL     1     -14.834  39.278   5.308  0.00  0.00    +0.000 OA
ATOM     53  H   UNL     1     -14.056  39.703   5.722  0.00  0.00    +0.000 HD
ENDBRANCH  42  52
ENDBRANCH   6  42
TORSDOF 12
ENDMDL
MODEL 6
REMARK VINA RESULT:      -6.6      1.330      2.383
REMARK  Name = 101808842_CandidaspongiolideB.pdbqt.pdb
REMARK  12 active torsions:
REMARK  status: ('A' for Active; 'I' for Inactive)
REMARK    1  A    between atoms: C_6  and  C_42
REMARK    2  A    between atoms: C_7  and  O_28
REMARK    3  A    between atoms: C_10  and  O_30
REMARK    4  A    between atoms: C_13  and  O_32
REMARK    5  A    between atoms: C_19  and  O_34
REMARK    6  A    between atoms: C_20  and  O_38
REMARK    7  A    between atoms: C_21  and  O_36
REMARK    8  A    between atoms: O_38  and  C_40
REMARK    9  A    between atoms: C_42  and  C_44
REMARK   10  A    between atoms: C_42  and  O_52
REMARK   11  A    between atoms: C_45  and  C_47
REMARK   12  A    between atoms: C_47  and  C_49
REMARK                            x       y       z     vdW  Elec       q    Type
REMARK                         _______ _______ _______ _____ _____    ______ ____
ROOT
ATOM      1  O   UNL     1      10.843  39.074   9.868  0.00  0.00    +0.000 OA
ATOM      2  O   UNL     1       7.214  43.409   5.963  0.00  0.00    +0.000 OA
ATOM      3  O   UNL     1      10.941  41.959   7.383  0.00  0.00    +0.000 OA
ATOM      4  O   UNL     1       8.076  41.389   5.257  0.00  0.00    +0.000 OA
ATOM      5  O   UNL     1       6.571  38.989   6.117  0.00  0.00    +0.000 OA
ATOM      6  C   UNL     1       9.248  43.514   7.821  0.00  0.00    +0.000 C 
ATOM      7  C   UNL     1       9.437  41.360   9.239  0.00  0.00    +0.000 C 
ATOM      8  C   UNL     1       9.968  42.237   8.084  0.00  0.00    +0.000 C 
ATOM      9  C   UNL     1       8.208  43.513   6.847  0.00  0.00    +0.000 C 
ATOM     10  C   UNL     1       8.341  40.401   8.734  0.00  0.00    +0.000 C 
ATOM     11  C   UNL     1       8.605  39.013   8.935  0.00  0.00    +0.000 C 
ATOM     12  C   UNL     1      10.451  40.352   9.686  0.00  0.00    +0.000 C 
ATOM     13  C   UNL     1       9.725  38.179   9.470  0.00  0.00    +0.000 C 
ATOM     14  C   UNL     1      10.226  37.180   8.417  0.00  0.00    +0.000 C 
ATOM     15  C   UNL     1       9.850  37.305   7.046  0.00  0.00    +0.000 C 
ATOM     16  C   UNL     1      11.049  35.924   8.687  0.00  0.00    +0.000 C 
ATOM     17  C   UNL     1       7.194  42.236   5.273  0.00  0.00    +0.000 C 
ATOM     18  C   UNL     1       9.445  37.465   5.824  0.00  0.00    +0.000 C 
ATOM     19  C   UNL     1       5.893  42.060   4.586  0.00  0.00    +0.000 C 
ATOM     20  C   UNL     1       8.297  36.757   5.306  0.00  0.00    +0.000 C 
ATOM     21  C   UNL     1       5.450  40.756   4.133  0.00  0.00    +0.000 C 
ATOM     22  C   UNL     1       7.204  37.334   4.526  0.00  0.00    +0.000 C 
ATOM     23  C   UNL     1       6.290  39.610   3.817  0.00  0.00    +0.000 C 
ATOM     24  C   UNL     1       6.682  38.683   4.925  0.00  0.00    +0.000 C 
ATOM     25  C   UNL     1      10.101  38.564   5.038  0.00  0.00    +0.000 C 
ATOM     26  C   UNL     1       6.312  36.421   3.687  0.00  0.00    +0.000 C 
ATOM     27  C   UNL     1       6.939  39.538   2.438  0.00  0.00    +0.000 C 
ENDROOT
BRANCH   7  28
ATOM     28  O   UNL     1       8.953  42.051  10.373  0.00  0.00    +0.000 OA
ATOM     29  H   UNL     1       9.064  43.001  10.184  0.00  0.00    +0.000 HD
ENDBRANCH   7  28
BRANCH  10  30
ATOM     30  O   UNL     1       7.183  40.842   8.148  0.00  0.00    +0.000 OA
ATOM     31  H   UNL     1       6.963  41.753   8.438  0.00  0.00    +0.000 HD
ENDBRANCH  10  30
BRANCH  13  32
ATOM     32  O   UNL     1       9.249  37.504  10.632  0.00  0.00    +0.000 OA
ATOM     33  H   UNL     1       9.624  37.985  11.388  0.00  0.00    +0.000 HD
ENDBRANCH  13  32
BRANCH  19  34
ATOM     34  O   UNL     1       4.979  43.091   4.472  0.00  0.00    +0.000 OA
ATOM     35  H   UNL     1       4.988  43.518   3.591  0.00  0.00    +0.000 HD
ENDBRANCH  19  34
BRANCH  21  36
ATOM     36  O   UNL     1       4.164  40.728   3.621  0.00  0.00    +0.000 OA
ATOM     37  C   UNL     1       3.754  39.407   3.365  0.00  0.00    +0.000 C 
ENDBRANCH  21  36
BRANCH  20  38
ATOM     38  O   UNL     1       8.409  35.346   5.328  0.00  0.00    +0.000 OA
BRANCH  38  40
ATOM     39  O   UNL     1      10.591  34.542   5.182  0.00  0.00    +0.000 OA
ATOM     40  C   UNL     1       9.546  34.943   4.704  0.00  0.00    +0.000 C 
ATOM     41  C   UNL     1       9.535  35.077   3.227  0.00  0.00    +0.000 C 
ENDBRANCH  38  40
ENDBRANCH  20  38
BRANCH   6  42
ATOM     42  C   UNL     1       9.773  44.734   8.394  0.00  0.00    +0.000 C 
BRANCH  42  44
ATOM     43  O   UNL     1      10.720  46.980   7.725  0.00  0.00    +0.000 OA
ATOM     44  C   UNL     1       9.608  46.053   7.729  0.00  0.00    +0.000 C 
ATOM     45  C   UNL     1      10.510  46.236   6.597  0.00  0.00    +0.000 C 
ATOM     46  C   UNL     1       8.283  46.852   7.960  0.00  0.00    +0.000 C 
BRANCH  45  47
ATOM     47  C   UNL     1      10.174  46.944   5.399  0.00  0.00    +0.000 C 
ATOM     48  C   UNL     1      10.641  48.364   5.201  0.00  0.00    +0.000 C 
BRANCH  47  49
ATOM     49  C   UNL     1       9.816  46.236   4.224  0.00  0.00    +0.000 C 
ATOM     50  C   UNL     1       9.513  45.579   3.268  0.00  0.00    +0.000 C 
ATOM     51  C   UNL     1       9.149  44.640   2.115  0.00  0.00    +0.000 C 
ENDBRANCH  47  49
ENDBRANCH  45  47
ENDBRANCH  42  44
BRANCH  42  52
ATOM     52  O   UNL     1      10.411  44.588   9.619  0.00  0.00    +0.000 OA
ATOM     53  H   UNL     1      10.190  45.314  10.237  0.00  0.00    +0.000 HD
ENDBRANCH  42  52
ENDBRANCH   6  42
TORSDOF 12
ENDMDL
MODEL 7
REMARK VINA RESULT:      -6.5      2.099      3.999
REMARK  Name = 101808842_CandidaspongiolideB.pdbqt.pdb
REMARK  12 active torsions:
REMARK  status: ('A' for Active; 'I' for Inactive)
REMARK    1  A    between atoms: C_6  and  C_42
REMARK    2  A    between atoms: C_7  and  O_28
REMARK    3  A    between atoms: C_10  and  O_30
REMARK    4  A    between atoms: C_13  and  O_32
REMARK    5  A    between atoms: C_19  and  O_34
REMARK    6  A    between atoms: C_20  and  O_38
REMARK    7  A    between atoms: C_21  and  O_36
REMARK    8  A    between atoms: O_38  and  C_40
REMARK    9  A    between atoms: C_42  and  C_44
REMARK   10  A    between atoms: C_42  and  O_52
REMARK   11  A    between atoms: C_45  and  C_47
REMARK   12  A    between atoms: C_47  and  C_49
REMARK                            x       y       z     vdW  Elec       q    Type
REMARK                         _______ _______ _______ _____ _____    ______ ____
ROOT
ATOM      1  O   UNL     1       9.161  40.250   9.915  0.00  0.00    +0.000 OA
ATOM      2  O   UNL     1       7.648  40.159   3.213  0.00  0.00    +0.000 OA
ATOM      3  O   UNL     1       9.732  41.845   6.505  0.00  0.00    +0.000 OA
ATOM      4  O   UNL     1       9.448  39.090   4.184  0.00  0.00    +0.000 OA
ATOM      5  O   UNL     1       8.823  36.566   5.599  0.00  0.00    +0.000 OA
ATOM      6  C   UNL     1       7.738  41.976   5.284  0.00  0.00    +0.000 C 
ATOM      7  C   UNL     1       7.769  40.856   7.615  0.00  0.00    +0.000 C 
ATOM      8  C   UNL     1       8.530  41.575   6.480  0.00  0.00    +0.000 C 
ATOM      9  C   UNL     1       7.688  41.080   4.178  0.00  0.00    +0.000 C 
ATOM     10  C   UNL     1       7.744  39.334   7.373  0.00  0.00    +0.000 C 
ATOM     11  C   UNL     1       8.320  38.543   8.412  0.00  0.00    +0.000 C 
ATOM     12  C   UNL     1       8.531  40.883   8.904  0.00  0.00    +0.000 C 
ATOM     13  C   UNL     1       9.028  38.784   9.708  0.00  0.00    +0.000 C 
ATOM     14  C   UNL     1      10.424  38.144   9.704  0.00  0.00    +0.000 C 
ATOM     15  C   UNL     1      11.019  37.680   8.493  0.00  0.00    +0.000 C 
ATOM     16  C   UNL     1      11.271  37.827  10.933  0.00  0.00    +0.000 C 
ATOM     17  C   UNL     1       8.534  39.137   3.374  0.00  0.00    +0.000 C 
ATOM     18  C   UNL     1      11.485  37.256   7.360  0.00  0.00    +0.000 C 
ATOM     19  C   UNL     1       8.192  38.010   2.475  0.00  0.00    +0.000 C 
ATOM     20  C   UNL     1      11.339  35.880   6.946  0.00  0.00    +0.000 C 
ATOM     21  C   UNL     1       8.696  36.672   2.719  0.00  0.00    +0.000 C 
ATOM     22  C   UNL     1      10.905  35.413   5.630  0.00  0.00    +0.000 C 
ATOM     23  C   UNL     1       9.893  36.313   3.466  0.00  0.00    +0.000 C 
ATOM     24  C   UNL     1       9.786  36.144   4.950  0.00  0.00    +0.000 C 
ATOM     25  C   UNL     1      12.005  38.301   6.414  0.00  0.00    +0.000 C 
ATOM     26  C   UNL     1      11.214  33.981   5.199  0.00  0.00    +0.000 C 
ATOM     27  C   UNL     1      11.241  36.368   2.756  0.00  0.00    +0.000 C 
ENDROOT
BRANCH   7  28
ATOM     28  O   UNL     1       6.450  41.301   7.858  0.00  0.00    +0.000 OA
ATOM     29  H   UNL     1       6.464  42.271   7.759  0.00  0.00    +0.000 HD
ENDBRANCH   7  28
BRANCH  10  30
ATOM     30  O   UNL     1       7.194  38.770   6.251  0.00  0.00    +0.000 OA
ATOM     31  H   UNL     1       7.332  39.338   5.465  0.00  0.00    +0.000 HD
ENDBRANCH  10  30
BRANCH  13  32
ATOM     32  O   UNL     1       8.220  38.249  10.752  0.00  0.00    +0.000 OA
ATOM     33  H   UNL     1       7.984  39.004  11.316  0.00  0.00    +0.000 HD
ENDBRANCH  13  32
BRANCH  19  34
ATOM     34  O   UNL     1       7.270  38.140   1.453  0.00  0.00    +0.000 OA
ATOM     35  H   UNL     1       7.387  37.475   0.743  0.00  0.00    +0.000 HD
ENDBRANCH  19  34
BRANCH  21  36
ATOM     36  O   UNL     1       8.194  35.701   1.869  0.00  0.00    +0.000 OA
ATOM     37  C   UNL     1       7.379  34.794   2.570  0.00  0.00    +0.000 C 
ENDBRANCH  21  36
BRANCH  20  38
ATOM     38  O   UNL     1      11.939  34.933   7.809  0.00  0.00    +0.000 OA
BRANCH  38  40
ATOM     39  O   UNL     1      14.102  35.094   6.956  0.00  0.00    +0.000 OA
ATOM     40  C   UNL     1      13.285  35.110   7.859  0.00  0.00    +0.000 C 
ATOM     41  C   UNL     1      13.848  35.280   9.221  0.00  0.00    +0.000 C 
ENDBRANCH  38  40
ENDBRANCH  20  38
BRANCH   6  42
ATOM     42  C   UNL     1       7.243  43.333   5.207  0.00  0.00    +0.000 C 
BRANCH  42  44
ATOM     43  O   UNL     1       7.473  45.773   5.825  0.00  0.00    +0.000 OA
ATOM     44  C   UNL     1       8.102  44.505   5.519  0.00  0.00    +0.000 C 
ATOM     45  C   UNL     1       7.905  45.009   6.874  0.00  0.00    +0.000 C 
ATOM     46  C   UNL     1       9.369  44.766   4.639  0.00  0.00    +0.000 C 
BRANCH  45  47
ATOM     47  C   UNL     1       8.943  45.554   7.696  0.00  0.00    +0.000 C 
ATOM     48  C   UNL     1       8.869  46.985   8.163  0.00  0.00    +0.000 C 
BRANCH  47  49
ATOM     49  C   UNL     1       9.789  44.695   8.444  0.00  0.00    +0.000 C 
ATOM     50  C   UNL     1      10.556  44.006   9.054  0.00  0.00    +0.000 C 
ATOM     51  C   UNL     1      11.628  43.184   9.774  0.00  0.00    +0.000 C 
ENDBRANCH  47  49
ENDBRANCH  45  47
ENDBRANCH  42  44
BRANCH  42  52
ATOM     52  O   UNL     1       5.924  43.461   4.791  0.00  0.00    +0.000 OA
ATOM     53  H   UNL     1       5.850  43.537   3.818  0.00  0.00    +0.000 HD
ENDBRANCH  42  52
ENDBRANCH   6  42
TORSDOF 12
ENDMDL
MODEL 8
REMARK VINA RESULT:      -6.4     31.508     34.137
REMARK  Name = 101808842_CandidaspongiolideB.pdbqt.pdb
REMARK  12 active torsions:
REMARK  status: ('A' for Active; 'I' for Inactive)
REMARK    1  A    between atoms: C_6  and  C_42
REMARK    2  A    between atoms: C_7  and  O_28
REMARK    3  A    between atoms: C_10  and  O_30
REMARK    4  A    between atoms: C_13  and  O_32
REMARK    5  A    between atoms: C_19  and  O_34
REMARK    6  A    between atoms: C_20  and  O_38
REMARK    7  A    between atoms: C_21  and  O_36
REMARK    8  A    between atoms: O_38  and  C_40
REMARK    9  A    between atoms: C_42  and  C_44
REMARK   10  A    between atoms: C_42  and  O_52
REMARK   11  A    between atoms: C_45  and  C_47
REMARK   12  A    between atoms: C_47  and  C_49
REMARK                            x       y       z     vdW  Elec       q    Type
REMARK                         _______ _______ _______ _____ _____    ______ ____
ROOT
ATOM      1  O   UNL     1     -18.624  48.882  23.336  0.00  0.00    +0.000 OA
ATOM      2  O   UNL     1     -22.714  48.472  17.830  0.00  0.00    +0.000 OA
ATOM      3  O   UNL     1     -22.182  48.469  22.041  0.00  0.00    +0.000 OA
ATOM      4  O   UNL     1     -22.240  50.408  18.992  0.00  0.00    +0.000 OA
ATOM      5  O   UNL     1     -19.591  51.611  18.443  0.00  0.00    +0.000 OA
ATOM      6  C   UNL     1     -22.245  47.077  20.160  0.00  0.00    +0.000 C 
ATOM      7  C   UNL     1     -19.984  47.677  21.263  0.00  0.00    +0.000 C 
ATOM      8  C   UNL     1     -21.522  47.812  21.236  0.00  0.00    +0.000 C 
ATOM      9  C   UNL     1     -22.534  47.768  18.949  0.00  0.00    +0.000 C 
ATOM     10  C   UNL     1     -19.328  48.749  20.370  0.00  0.00    +0.000 C 
ATOM     11  C   UNL     1     -18.413  49.619  21.036  0.00  0.00    +0.000 C 
ATOM     12  C   UNL     1     -19.411  48.083  22.587  0.00  0.00    +0.000 C 
ATOM     13  C   UNL     1     -17.927  49.835  22.434  0.00  0.00    +0.000 C 
ATOM     14  C   UNL     1     -18.204  51.271  22.901  0.00  0.00    +0.000 C 
ATOM     15  C   UNL     1     -19.086  52.125  22.175  0.00  0.00    +0.000 C 
ATOM     16  C   UNL     1     -17.527  51.983  24.068  0.00  0.00    +0.000 C 
ATOM     17  C   UNL     1     -22.442  49.801  17.950  0.00  0.00    +0.000 C 
ATOM     18  C   UNL     1     -19.878  52.853  21.450  0.00  0.00    +0.000 C 
ATOM     19  C   UNL     1     -22.329  50.430  16.614  0.00  0.00    +0.000 C 
ATOM     20  C   UNL     1     -19.370  53.751  20.440  0.00  0.00    +0.000 C 
ATOM     21  C   UNL     1     -21.658  51.703  16.434  0.00  0.00    +0.000 C 
ATOM     22  C   UNL     1     -19.872  53.890  19.074  0.00  0.00    +0.000 C 
ATOM     23  C   UNL     1     -21.459  52.735  17.441  0.00  0.00    +0.000 C 
ATOM     24  C   UNL     1     -20.257  52.645  18.329  0.00  0.00    +0.000 C 
ATOM     25  C   UNL     1     -21.349  52.571  21.573  0.00  0.00    +0.000 C 
ATOM     26  C   UNL     1     -19.548  55.151  18.275  0.00  0.00    +0.000 C 
ATOM     27  C   UNL     1     -22.596  53.712  17.719  0.00  0.00    +0.000 C 
ENDROOT
BRANCH   7  28
ATOM     28  O   UNL     1     -19.464  46.410  20.913  0.00  0.00    +0.000 OA
ATOM     29  H   UNL     1     -20.228  45.809  20.845  0.00  0.00    +0.000 HD
ENDBRANCH   7  28
BRANCH  10  30
ATOM     30  O   UNL     1     -19.586  48.855  19.028  0.00  0.00    +0.000 OA
ATOM     31  H   UNL     1     -18.944  49.452  18.589  0.00  0.00    +0.000 HD
ENDBRANCH  10  30
BRANCH  13  32
ATOM     32  O   UNL     1     -16.532  49.546  22.460  0.00  0.00    +0.000 OA
ATOM     33  H   UNL     1     -16.159  49.975  21.672  0.00  0.00    +0.000 HD
ENDBRANCH  13  32
BRANCH  19  34
ATOM     34  O   UNL     1     -22.723  49.778  15.461  0.00  0.00    +0.000 OA
ATOM     35  H   UNL     1     -23.667  49.923  15.239  0.00  0.00    +0.000 HD
ENDBRANCH  19  34
BRANCH  21  36
ATOM     36  O   UNL     1     -21.523  52.105  15.116  0.00  0.00    +0.000 OA
ATOM     37  C   UNL     1     -20.179  52.042  14.707  0.00  0.00    +0.000 C 
ENDBRANCH  21  36
BRANCH  20  38
ATOM     38  O   UNL     1     -18.508  54.764  20.924  0.00  0.00    +0.000 OA
BRANCH  38  40
ATOM     39  O   UNL     1     -16.670  53.733  19.929  0.00  0.00    +0.000 OA
ATOM     40  C   UNL     1     -17.208  54.389  20.802  0.00  0.00    +0.000 C 
ATOM     41  C   UNL     1     -16.332  54.780  21.933  0.00  0.00    +0.000 C 
ENDBRANCH  38  40
ENDBRANCH  20  38
BRANCH   6  42
ATOM     42  C   UNL     1     -22.810  45.782  20.469  0.00  0.00    +0.000 C 
BRANCH  42  44
ATOM     43  O   UNL     1     -23.781  43.577  19.702  0.00  0.00    +0.000 OA
ATOM     44  C   UNL     1     -22.896  44.697  19.456  0.00  0.00    +0.000 C 
ATOM     45  C   UNL     1     -24.228  44.569  18.872  0.00  0.00    +0.000 C 
ATOM     46  C   UNL     1     -21.575  44.167  18.806  0.00  0.00    +0.000 C 
BRANCH  45  47
ATOM     47  C   UNL     1     -24.484  44.215  17.509  0.00  0.00    +0.000 C 
ATOM     48  C   UNL     1     -25.056  42.861  17.171  0.00  0.00    +0.000 C 
BRANCH  47  49
ATOM     49  C   UNL     1     -24.644  45.224  16.526  0.00  0.00    +0.000 C 
ATOM     50  C   UNL     1     -24.740  46.040  15.653  0.00  0.00    +0.000 C 
ATOM     51  C   UNL     1     -24.773  47.021  14.478  0.00  0.00    +0.000 C 
ENDBRANCH  47  49
ENDBRANCH  45  47
ENDBRANCH  42  44
BRANCH  42  52
ATOM     52  O   UNL     1     -23.235  45.616  21.781  0.00  0.00    +0.000 OA
ATOM     53  H   UNL     1     -22.607  46.004  22.423  0.00  0.00    +0.000 HD
ENDBRANCH  42  52
ENDBRANCH   6  42
TORSDOF 12
ENDMDL
MODEL 9
REMARK VINA RESULT:      -6.3     24.900     29.447
REMARK  Name = 101808842_CandidaspongiolideB.pdbqt.pdb
REMARK  12 active torsions:
REMARK  status: ('A' for Active; 'I' for Inactive)
REMARK    1  A    between atoms: C_6  and  C_42
REMARK    2  A    between atoms: C_7  and  O_28
REMARK    3  A    between atoms: C_10  and  O_30
REMARK    4  A    between atoms: C_13  and  O_32
REMARK    5  A    between atoms: C_19  and  O_34
REMARK    6  A    between atoms: C_20  and  O_38
REMARK    7  A    between atoms: C_21  and  O_36
REMARK    8  A    between atoms: O_38  and  C_40
REMARK    9  A    between atoms: C_42  and  C_44
REMARK   10  A    between atoms: C_42  and  O_52
REMARK   11  A    between atoms: C_45  and  C_47
REMARK   12  A    between atoms: C_47  and  C_49
REMARK                            x       y       z     vdW  Elec       q    Type
REMARK                         _______ _______ _______ _____ _____    ______ ____
ROOT
ATOM      1  O   UNL     1     -24.558  38.844   5.245  0.00  0.00    +0.000 OA
ATOM      2  O   UNL     1     -18.531  41.640   3.493  0.00  0.00    +0.000 OA
ATOM      3  O   UNL     1     -22.090  41.690   5.806  0.00  0.00    +0.000 OA
ATOM      4  O   UNL     1     -18.857  40.176   5.246  0.00  0.00    +0.000 OA
ATOM      5  O   UNL     1     -19.131  37.325   4.494  0.00  0.00    +0.000 OA
ATOM      6  C   UNL     1     -21.160  42.417   3.785  0.00  0.00    +0.000 C 
ATOM      7  C   UNL     1     -22.808  40.425   3.819  0.00  0.00    +0.000 C 
ATOM      8  C   UNL     1     -22.030  41.514   4.588  0.00  0.00    +0.000 C 
ATOM      9  C   UNL     1     -19.787  42.070   3.631  0.00  0.00    +0.000 C 
ATOM     10  C   UNL     1     -21.958  39.146   3.678  0.00  0.00    +0.000 C 
ATOM     11  C   UNL     1     -22.536  37.966   4.233  0.00  0.00    +0.000 C 
ATOM     12  C   UNL     1     -23.942  39.872   4.627  0.00  0.00    +0.000 C 
ATOM     13  C   UNL     1     -23.769  37.608   5.002  0.00  0.00    +0.000 C 
ATOM     14  C   UNL     1     -23.413  36.960   6.348  0.00  0.00    +0.000 C 
ATOM     15  C   UNL     1     -22.085  37.016   6.866  0.00  0.00    +0.000 C 
ATOM     16  C   UNL     1     -24.344  36.116   7.214  0.00  0.00    +0.000 C 
ATOM     17  C   UNL     1     -18.197  40.603   4.309  0.00  0.00    +0.000 C 
ATOM     18  C   UNL     1     -20.851  37.083   7.260  0.00  0.00    +0.000 C 
ATOM     19  C   UNL     1     -16.935  39.973   3.857  0.00  0.00    +0.000 C 
ATOM     20  C   UNL     1     -19.913  36.015   7.002  0.00  0.00    +0.000 C 
ATOM     21  C   UNL     1     -16.570  38.633   4.273  0.00  0.00    +0.000 C 
ATOM     22  C   UNL     1     -18.552  36.164   6.490  0.00  0.00    +0.000 C 
ATOM     23  C   UNL     1     -17.024  37.935   5.467  0.00  0.00    +0.000 C 
ATOM     24  C   UNL     1     -18.307  37.167   5.402  0.00  0.00    +0.000 C 
ATOM     25  C   UNL     1     -20.395  38.401   7.818  0.00  0.00    +0.000 C 
ATOM     26  C   UNL     1     -17.546  35.030   6.681  0.00  0.00    +0.000 C 
ATOM     27  C   UNL     1     -16.319  38.216   6.790  0.00  0.00    +0.000 C 
ENDROOT
BRANCH   7  28
ATOM     28  O   UNL     1     -23.295  40.792   2.544  0.00  0.00    +0.000 OA
ATOM     29  H   UNL     1     -24.136  40.314   2.423  0.00  0.00    +0.000 HD
ENDBRANCH   7  28
BRANCH  10  30
ATOM     30  O   UNL     1     -20.739  39.132   3.050  0.00  0.00    +0.000 OA
ATOM     31  H   UNL     1     -20.566  39.981   2.593  0.00  0.00    +0.000 HD
ENDBRANCH  10  30
BRANCH  13  32
ATOM     32  O   UNL     1     -24.544  36.725   4.196  0.00  0.00    +0.000 OA
ATOM     33  H   UNL     1     -25.053  36.180   4.818  0.00  0.00    +0.000 HD
ENDBRANCH  13  32
BRANCH  19  34
ATOM     34  O   UNL     1     -16.119  40.564   2.911  0.00  0.00    +0.000 OA
ATOM     35  H   UNL     1     -16.146  41.543   2.936  0.00  0.00    +0.000 HD
ENDBRANCH  19  34
BRANCH  21  36
ATOM     36  O   UNL     1     -15.426  38.133   3.673  0.00  0.00    +0.000 OA
ATOM     37  C   UNL     1     -15.736  37.061   2.818  0.00  0.00    +0.000 C 
ENDBRANCH  21  36
BRANCH  20  38
ATOM     38  O   UNL     1     -20.266  34.765   7.564  0.00  0.00    +0.000 OA
BRANCH  38  40
ATOM     39  O   UNL     1     -20.862  33.974   5.455  0.00  0.00    +0.000 OA
ATOM     40  C   UNL     1     -20.953  34.010   6.668  0.00  0.00    +0.000 C 
ATOM     41  C   UNL     1     -22.015  33.154   7.250  0.00  0.00    +0.000 C 
ENDBRANCH  38  40
ENDBRANCH  20  38
BRANCH   6  42
ATOM     42  C   UNL     1     -21.684  43.704   3.384  0.00  0.00    +0.000 C 
BRANCH  42  44
ATOM     43  O   UNL     1     -21.444  45.776   1.956  0.00  0.00    +0.000 OA
ATOM     44  C   UNL     1     -21.312  44.341   2.094  0.00  0.00    +0.000 C 
ATOM     45  C   UNL     1     -20.199  45.276   2.220  0.00  0.00    +0.000 C 
ATOM     46  C   UNL     1     -21.765  43.659   0.760  0.00  0.00    +0.000 C 
BRANCH  45  47
ATOM     47  C   UNL     1     -19.189  45.474   1.225  0.00  0.00    +0.000 C 
ATOM     48  C   UNL     1     -19.204  46.713   0.365  0.00  0.00    +0.000 C 
BRANCH  47  49
ATOM     49  C   UNL     1     -17.949  44.794   1.318  0.00  0.00    +0.000 C 
ATOM     50  C   UNL     1     -16.873  44.276   1.419  0.00  0.00    +0.000 C 
ATOM     51  C   UNL     1     -15.451  43.727   1.569  0.00  0.00    +0.000 C 
ENDBRANCH  47  49
ENDBRANCH  45  47
ENDBRANCH  42  44
BRANCH  42  52
ATOM     52  O   UNL     1     -22.579  44.285   4.274  0.00  0.00    +0.000 OA
ATOM     53  H   UNL     1     -23.492  43.959   4.142  0.00  0.00    +0.000 HD
ENDBRANCH  42  52
ENDBRANCH   6  42
TORSDOF 12
ENDMDL
