MODEL 1
REMARK VINA RESULT:      -6.1      0.000      0.000
REMARK  Name = 101808841_CandidaspongiolideA.pdbqt.pdb
REMARK  13 active torsions:
REMARK  status: ('A' for Active; 'I' for Inactive)
REMARK    1  A    between atoms: C_6  and  C_39
REMARK    2  A    between atoms: C_9  and  O_27
REMARK    3  A    between atoms: C_9  and  C_51
REMARK    4  A    between atoms: C_10  and  O_29
REMARK    5  A    between atoms: C_14  and  O_31
REMARK    6  A    between atoms: C_15  and  O_33
REMARK    7  A    between atoms: C_20  and  O_35
REMARK    8  A    between atoms: O_35  and  C_37
REMARK    9  A    between atoms: C_39  and  C_41
REMARK   10  A    between atoms: C_39  and  O_49
REMARK   11  A    between atoms: C_42  and  C_44
REMARK   12  A    between atoms: C_44  and  C_46
REMARK   13  A    between atoms: C_51  and  O_52
REMARK                            x       y       z     vdW  Elec       q    Type
REMARK                         _______ _______ _______ _____ _____    ______ ____
ROOT
ATOM      1  O   UNL     1     -25.526  42.103  18.173  0.00  0.00    +0.000 OA
ATOM      2  O   UNL     1     -25.405  38.234  16.656  0.00  0.00    +0.000 OA
ATOM      3  O   UNL     1     -24.494  41.527  20.154  0.00  0.00    +0.000 OA
ATOM      4  O   UNL     1     -30.473  40.978  13.449  0.00  0.00    +0.000 OA
ATOM      5  O   UNL     1     -26.057  43.693  15.874  0.00  0.00    +0.000 OA
ATOM      6  C   UNL     1     -26.769  39.658  17.944  0.00  0.00    +0.000 C 
ATOM      7  C   UNL     1     -26.451  38.885  16.703  0.00  0.00    +0.000 C 
ATOM      8  C   UNL     1     -26.144  40.926  18.104  0.00  0.00    +0.000 C 
ATOM      9  C   UNL     1     -27.442  39.051  15.519  0.00  0.00    +0.000 C 
ATOM     10  C   UNL     1     -27.257  40.404  14.854  0.00  0.00    +0.000 C 
ATOM     11  C   UNL     1     -28.327  41.110  14.229  0.00  0.00    +0.000 C 
ATOM     12  C   UNL     1     -24.645  42.263  19.188  0.00  0.00    +0.000 C 
ATOM     13  C   UNL     1     -29.507  41.711  13.629  0.00  0.00    +0.000 C 
ATOM     14  C   UNL     1     -23.798  43.459  18.978  0.00  0.00    +0.000 C 
ATOM     15  C   UNL     1     -23.983  44.425  17.914  0.00  0.00    +0.000 C 
ATOM     16  C   UNL     1     -29.504  43.163  13.258  0.00  0.00    +0.000 C 
ATOM     17  C   UNL     1     -25.219  45.123  17.581  0.00  0.00    +0.000 C 
ATOM     18  C   UNL     1     -26.268  46.039  15.442  0.00  0.00    +0.000 C 
ATOM     19  C   UNL     1     -25.846  44.847  16.251  0.00  0.00    +0.000 C 
ATOM     20  C   UNL     1     -27.195  45.847  14.324  0.00  0.00    +0.000 C 
ATOM     21  C   UNL     1     -28.344  43.969  13.374  0.00  0.00    +0.000 C 
ATOM     22  C   UNL     1     -27.267  44.682  13.473  0.00  0.00    +0.000 C 
ATOM     23  C   UNL     1     -30.724  43.883  12.722  0.00  0.00    +0.000 C 
ATOM     24  C   UNL     1     -26.164  45.525  18.715  0.00  0.00    +0.000 C 
ATOM     25  C   UNL     1     -25.667  47.415  15.708  0.00  0.00    +0.000 C 
ATOM     26  C   UNL     1     -26.047  44.122  12.785  0.00  0.00    +0.000 C 
ENDROOT
BRANCH   9  27
ATOM     27  O   UNL     1     -28.779  38.973  16.016  0.00  0.00    +0.000 OA
ATOM     28  H   UNL     1     -28.849  38.142  16.519  0.00  0.00    +0.000 HD
ENDBRANCH   9  27
BRANCH  10  29
ATOM     29  O   UNL     1     -25.990  40.953  14.831  0.00  0.00    +0.000 OA
ATOM     30  H   UNL     1     -25.530  40.851  13.977  0.00  0.00    +0.000 HD
ENDBRANCH  10  29
BRANCH  14  31
ATOM     31  O   UNL     1     -22.714  43.662  19.814  0.00  0.00    +0.000 OA
ATOM     32  H   UNL     1     -22.965  43.508  20.749  0.00  0.00    +0.000 HD
ENDBRANCH  14  31
BRANCH  15  33
ATOM     33  O   UNL     1     -22.820  45.074  17.533  0.00  0.00    +0.000 OA
ATOM     34  C   UNL     1     -22.877  46.429  17.893  0.00  0.00    +0.000 C 
ENDBRANCH  15  33
BRANCH  20  35
ATOM     35  O   UNL     1     -27.845  46.985  13.774  0.00  0.00    +0.000 OA
BRANCH  35  37
ATOM     36  O   UNL     1     -26.230  47.719  12.259  0.00  0.00    +0.000 OA
ATOM     37  C   UNL     1     -27.355  47.380  12.571  0.00  0.00    +0.000 C 
ATOM     38  C   UNL     1     -28.366  47.454  11.487  0.00  0.00    +0.000 C 
ENDBRANCH  35  37
ENDBRANCH  20  35
BRANCH   6  39
ATOM     39  C   UNL     1     -27.598  39.077  18.981  0.00  0.00    +0.000 C 
BRANCH  39  41
ATOM     40  O   UNL     1     -27.860  37.109  20.581  0.00  0.00    +0.000 OA
ATOM     41  C   UNL     1     -27.034  38.150  20.003  0.00  0.00    +0.000 C 
ATOM     42  C   UNL     1     -26.995  36.750  19.589  0.00  0.00    +0.000 C 
ATOM     43  C   UNL     1     -26.143  38.762  21.138  0.00  0.00    +0.000 C 
BRANCH  42  44
ATOM     44  C   UNL     1     -25.893  35.888  19.910  0.00  0.00    +0.000 C 
ATOM     45  C   UNL     1     -26.136  34.429  20.202  0.00  0.00    +0.000 C 
BRANCH  44  46
ATOM     46  C   UNL     1     -24.600  36.221  19.426  0.00  0.00    +0.000 C 
ATOM     47  C   UNL     1     -23.506  36.579  19.088  0.00  0.00    +0.000 C 
ATOM     48  C   UNL     1     -22.128  37.157  18.735  0.00  0.00    +0.000 C 
ENDBRANCH  44  46
ENDBRANCH  42  44
ENDBRANCH  39  41
BRANCH  39  49
ATOM     49  O   UNL     1     -28.826  39.696  19.163  0.00  0.00    +0.000 OA
ATOM     50  H   UNL     1     -29.466  39.126  19.632  0.00  0.00    +0.000 HD
ENDBRANCH  39  49
ENDBRANCH   6  39
BRANCH   9  51
ATOM     51  C   UNL     1     -27.240  37.985  14.510  0.00  0.00    +0.000 C 
BRANCH  51  52
ATOM     52  O   UNL     1     -27.082  37.016  13.608  0.00  0.00    +0.000 OA
ATOM     53  H   UNL     1     -26.392  36.389  13.894  0.00  0.00    +0.000 HD
ENDBRANCH  51  52
ENDBRANCH   9  51
TORSDOF 13
ENDMDL
MODEL 2
REMARK VINA RESULT:      -5.8     25.682     30.642
REMARK  Name = 101808841_CandidaspongiolideA.pdbqt.pdb
REMARK  13 active torsions:
REMARK  status: ('A' for Active; 'I' for Inactive)
REMARK    1  A    between atoms: C_6  and  C_39
REMARK    2  A    between atoms: C_9  and  O_27
REMARK    3  A    between atoms: C_9  and  C_51
REMARK    4  A    between atoms: C_10  and  O_29
REMARK    5  A    between atoms: C_14  and  O_31
REMARK    6  A    between atoms: C_15  and  O_33
REMARK    7  A    between atoms: C_20  and  O_35
REMARK    8  A    between atoms: O_35  and  C_37
REMARK    9  A    between atoms: C_39  and  C_41
REMARK   10  A    between atoms: C_39  and  O_49
REMARK   11  A    between atoms: C_42  and  C_44
REMARK   12  A    between atoms: C_44  and  C_46
REMARK   13  A    between atoms: C_51  and  O_52
REMARK                            x       y       z     vdW  Elec       q    Type
REMARK                         _______ _______ _______ _____ _____    ______ ____
ROOT
ATOM      1  O   UNL     1      -1.309  49.887  28.503  0.00  0.00    +0.000 OA
ATOM      2  O   UNL     1      -2.510  46.672  30.849  0.00  0.00    +0.000 OA
ATOM      3  O   UNL     1      -3.466  50.507  27.971  0.00  0.00    +0.000 OA
ATOM      4  O   UNL     1       3.580  44.993  28.951  0.00  0.00    +0.000 OA
ATOM      5  O   UNL     1       1.405  50.278  29.264  0.00  0.00    +0.000 OA
ATOM      6  C   UNL     1      -1.955  47.215  28.625  0.00  0.00    +0.000 C 
ATOM      7  C   UNL     1      -1.690  46.545  29.937  0.00  0.00    +0.000 C 
ATOM      8  C   UNL     1      -1.638  48.598  28.521  0.00  0.00    +0.000 C 
ATOM      9  C   UNL     1      -0.327  45.812  30.069  0.00  0.00    +0.000 C 
ATOM     10  C   UNL     1       0.805  46.813  30.229  0.00  0.00    +0.000 C 
ATOM     11  C   UNL     1       2.125  46.566  29.752  0.00  0.00    +0.000 C 
ATOM     12  C   UNL     1      -2.321  50.767  28.315  0.00  0.00    +0.000 C 
ATOM     13  C   UNL     1       3.422  46.179  29.220  0.00  0.00    +0.000 C 
ATOM     14  C   UNL     1      -1.896  52.149  28.635  0.00  0.00    +0.000 C 
ATOM     15  C   UNL     1      -0.538  52.542  28.954  0.00  0.00    +0.000 C 
ATOM     16  C   UNL     1       4.493  47.209  29.025  0.00  0.00    +0.000 C 
ATOM     17  C   UNL     1       0.656  52.252  28.169  0.00  0.00    +0.000 C 
ATOM     18  C   UNL     1       3.121  51.849  28.694  0.00  0.00    +0.000 C 
ATOM     19  C   UNL     1       1.700  51.370  28.777  0.00  0.00    +0.000 C 
ATOM     20  C   UNL     1       4.206  50.895  28.935  0.00  0.00    +0.000 C 
ATOM     21  C   UNL     1       4.330  48.554  29.442  0.00  0.00    +0.000 C 
ATOM     22  C   UNL     1       4.164  49.774  29.846  0.00  0.00    +0.000 C 
ATOM     23  C   UNL     1       5.831  46.902  28.386  0.00  0.00    +0.000 C 
ATOM     24  C   UNL     1       0.546  52.236  26.643  0.00  0.00    +0.000 C 
ATOM     25  C   UNL     1       3.436  53.322  28.467  0.00  0.00    +0.000 C 
ATOM     26  C   UNL     1       3.753  49.935  31.288  0.00  0.00    +0.000 C 
ENDROOT
BRANCH   9  27
ATOM     27  O   UNL     1      -0.090  45.050  28.884  0.00  0.00    +0.000 OA
ATOM     28  H   UNL     1       0.729  44.542  29.030  0.00  0.00    +0.000 HD
ENDBRANCH   9  27
BRANCH  10  29
ATOM     29  O   UNL     1       0.542  47.996  30.891  0.00  0.00    +0.000 OA
ATOM     30  H   UNL     1       0.547  47.915  31.863  0.00  0.00    +0.000 HD
ENDBRANCH  10  29
BRANCH  14  31
ATOM     31  O   UNL     1      -2.855  53.144  28.689  0.00  0.00    +0.000 OA
ATOM     32  H   UNL     1      -2.434  54.026  28.769  0.00  0.00    +0.000 HD
ENDBRANCH  14  31
BRANCH  15  33
ATOM     33  O   UNL     1      -0.451  53.659  29.767  0.00  0.00    +0.000 OA
ATOM     34  C   UNL     1      -0.349  53.276  31.113  0.00  0.00    +0.000 C 
ENDBRANCH  15  33
BRANCH  20  35
ATOM     35  O   UNL     1       5.525  51.250  28.542  0.00  0.00    +0.000 OA
BRANCH  35  37
ATOM     36  O   UNL     1       6.225  52.435  30.426  0.00  0.00    +0.000 OA
ATOM     37  C   UNL     1       6.346  51.576  29.574  0.00  0.00    +0.000 C 
ATOM     38  C   UNL     1       7.604  50.792  29.633  0.00  0.00    +0.000 C 
ENDBRANCH  35  37
ENDBRANCH  20  35
BRANCH   6  39
ATOM     39  C   UNL     1      -2.606  46.496  27.550  0.00  0.00    +0.000 C 
BRANCH  39  41
ATOM     40  O   UNL     1      -4.905  46.721  28.631  0.00  0.00    +0.000 OA
ATOM     41  C   UNL     1      -4.053  46.142  27.611  0.00  0.00    +0.000 C 
ATOM     42  C   UNL     1      -4.957  47.266  27.381  0.00  0.00    +0.000 C 
ATOM     43  C   UNL     1      -4.449  44.637  27.430  0.00  0.00    +0.000 C 
BRANCH  42  44
ATOM     44  C   UNL     1      -6.165  47.132  26.617  0.00  0.00    +0.000 C 
ATOM     45  C   UNL     1      -7.469  46.834  27.312  0.00  0.00    +0.000 C 
BRANCH  44  46
ATOM     46  C   UNL     1      -6.262  47.801  25.367  0.00  0.00    +0.000 C 
ATOM     47  C   UNL     1      -6.442  48.386  24.337  0.00  0.00    +0.000 C 
ATOM     48  C   UNL     1      -6.815  49.134  23.048  0.00  0.00    +0.000 C 
ENDBRANCH  44  46
ENDBRANCH  42  44
ENDBRANCH  39  41
BRANCH  39  49
ATOM     49  O   UNL     1      -1.904  46.470  26.353  0.00  0.00    +0.000 OA
ATOM     50  H   UNL     1      -0.958  46.260  26.479  0.00  0.00    +0.000 HD
ENDBRANCH  39  49
ENDBRANCH   6  39
BRANCH   9  51
ATOM     51  C   UNL     1      -0.332  44.899  31.237  0.00  0.00    +0.000 C 
BRANCH  51  52
ATOM     52  O   UNL     1      -0.318  44.093  32.298  0.00  0.00    +0.000 OA
ATOM     53  H   UNL     1      -1.112  44.233  32.848  0.00  0.00    +0.000 HD
ENDBRANCH  51  52
ENDBRANCH   9  51
TORSDOF 13
ENDMDL
MODEL 3
REMARK VINA RESULT:      -5.7     17.316     22.633
REMARK  Name = 101808841_CandidaspongiolideA.pdbqt.pdb
REMARK  13 active torsions:
REMARK  status: ('A' for Active; 'I' for Inactive)
REMARK    1  A    between atoms: C_6  and  C_39
REMARK    2  A    between atoms: C_9  and  O_27
REMARK    3  A    between atoms: C_9  and  C_51
REMARK    4  A    between atoms: C_10  and  O_29
REMARK    5  A    between atoms: C_14  and  O_31
REMARK    6  A    between atoms: C_15  and  O_33
REMARK    7  A    between atoms: C_20  and  O_35
REMARK    8  A    between atoms: O_35  and  C_37
REMARK    9  A    between atoms: C_39  and  C_41
REMARK   10  A    between atoms: C_39  and  O_49
REMARK   11  A    between atoms: C_42  and  C_44
REMARK   12  A    between atoms: C_44  and  C_46
REMARK   13  A    between atoms: C_51  and  O_52
REMARK                            x       y       z     vdW  Elec       q    Type
REMARK                         _______ _______ _______ _____ _____    ______ ____
ROOT
ATOM      1  O   UNL     1      -9.989  51.675  27.269  0.00  0.00    +0.000 OA
ATOM      2  O   UNL     1     -13.535  50.952  25.222  0.00  0.00    +0.000 OA
ATOM      3  O   UNL     1      -8.909  52.523  25.415  0.00  0.00    +0.000 OA
ATOM      4  O   UNL     1     -13.762  46.673  30.236  0.00  0.00    +0.000 OA
ATOM      5  O   UNL     1     -10.770  51.547  30.001  0.00  0.00    +0.000 OA
ATOM      6  C   UNL     1     -11.489  49.922  25.769  0.00  0.00    +0.000 C 
ATOM      7  C   UNL     1     -12.973  50.078  25.884  0.00  0.00    +0.000 C 
ATOM      8  C   UNL     1     -10.677  50.812  26.525  0.00  0.00    +0.000 C 
ATOM      9  C   UNL     1     -13.679  49.166  26.925  0.00  0.00    +0.000 C 
ATOM     10  C   UNL     1     -13.409  49.659  28.336  0.00  0.00    +0.000 C 
ATOM     11  C   UNL     1     -13.339  48.783  29.459  0.00  0.00    +0.000 C 
ATOM     12  C   UNL     1      -9.205  52.554  26.602  0.00  0.00    +0.000 C 
ATOM     13  C   UNL     1     -13.299  47.776  30.507  0.00  0.00    +0.000 C 
ATOM     14  C   UNL     1      -8.755  53.650  27.491  0.00  0.00    +0.000 C 
ATOM     15  C   UNL     1      -8.985  53.701  28.920  0.00  0.00    +0.000 C 
ATOM     16  C   UNL     1     -12.714  48.108  31.847  0.00  0.00    +0.000 C 
ATOM     17  C   UNL     1      -8.670  52.657  29.887  0.00  0.00    +0.000 C 
ATOM     18  C   UNL     1      -9.666  51.871  32.102  0.00  0.00    +0.000 C 
ATOM     19  C   UNL     1      -9.803  52.005  30.613  0.00  0.00    +0.000 C 
ATOM     20  C   UNL     1     -10.545  50.942  32.816  0.00  0.00    +0.000 C 
ATOM     21  C   UNL     1     -12.283  49.417  32.178  0.00  0.00    +0.000 C 
ATOM     22  C   UNL     1     -11.910  50.625  32.463  0.00  0.00    +0.000 C 
ATOM     23  C   UNL     1     -12.547  47.088  32.953  0.00  0.00    +0.000 C 
ATOM     24  C   UNL     1      -7.415  51.809  29.670  0.00  0.00    +0.000 C 
ATOM     25  C   UNL     1      -8.702  52.760  32.879  0.00  0.00    +0.000 C 
ATOM     26  C   UNL     1     -12.943  51.699  32.233  0.00  0.00    +0.000 C 
ENDROOT
BRANCH   9  27
ATOM     27  O   UNL     1     -13.167  47.838  26.806  0.00  0.00    +0.000 OA
ATOM     28  H   UNL     1     -13.666  47.402  26.091  0.00  0.00    +0.000 HD
ENDBRANCH   9  27
BRANCH  10  29
ATOM     29  O   UNL     1     -13.255  51.016  28.536  0.00  0.00    +0.000 OA
ATOM     30  H   UNL     1     -14.088  51.521  28.482  0.00  0.00    +0.000 HD
ENDBRANCH  10  29
BRANCH  14  31
ATOM     31  O   UNL     1      -8.111  54.740  26.930  0.00  0.00    +0.000 OA
ATOM     32  H   UNL     1      -8.616  55.082  26.162  0.00  0.00    +0.000 HD
ENDBRANCH  14  31
BRANCH  15  33
ATOM     33  O   UNL     1      -9.040  54.985  29.437  0.00  0.00    +0.000 OA
ATOM     34  C   UNL     1     -10.369  55.430  29.496  0.00  0.00    +0.000 C 
ENDBRANCH  15  33
BRANCH  20  35
ATOM     35  O   UNL     1     -10.209  50.571  34.145  0.00  0.00    +0.000 OA
BRANCH  35  37
ATOM     36  O   UNL     1      -8.646  48.940  33.558  0.00  0.00    +0.000 OA
ATOM     37  C   UNL     1      -9.544  49.390  34.244  0.00  0.00    +0.000 C 
ATOM     38  C   UNL     1     -10.029  48.497  35.325  0.00  0.00    +0.000 C 
ENDBRANCH  35  37
ENDBRANCH  20  35
BRANCH   6  39
ATOM     39  C   UNL     1     -10.920  48.969  24.838  0.00  0.00    +0.000 C 
BRANCH  39  41
ATOM     40  O   UNL     1      -8.935  47.541  24.113  0.00  0.00    +0.000 OA
ATOM     41  C   UNL     1      -9.681  48.206  25.162  0.00  0.00    +0.000 C 
ATOM     42  C   UNL     1      -8.466  48.744  24.555  0.00  0.00    +0.000 C 
ATOM     43  C   UNL     1      -9.702  47.273  26.422  0.00  0.00    +0.000 C 
BRANCH  42  44
ATOM     44  C   UNL     1      -7.214  48.784  25.254  0.00  0.00    +0.000 C 
ATOM     45  C   UNL     1      -7.064  49.638  26.488  0.00  0.00    +0.000 C 
BRANCH  44  46
ATOM     46  C   UNL     1      -6.340  47.669  25.158  0.00  0.00    +0.000 C 
ATOM     47  C   UNL     1      -5.609  46.718  25.179  0.00  0.00    +0.000 C 
ATOM     48  C   UNL     1      -4.670  45.515  25.350  0.00  0.00    +0.000 C 
ENDBRANCH  44  46
ENDBRANCH  42  44
ENDBRANCH  39  41
BRANCH  39  49
ATOM     49  O   UNL     1     -11.768  48.571  23.815  0.00  0.00    +0.000 OA
ATOM     50  H   UNL     1     -11.570  47.671  23.493  0.00  0.00    +0.000 HD
ENDBRANCH  39  49
ENDBRANCH   6  39
BRANCH   9  51
ATOM     51  C   UNL     1     -15.143  49.141  26.694  0.00  0.00    +0.000 C 
BRANCH  51  52
ATOM     52  O   UNL     1     -16.462  49.096  26.504  0.00  0.00    +0.000 OA
ATOM     53  H   UNL     1     -16.934  49.119  27.357  0.00  0.00    +0.000 HD
ENDBRANCH  51  52
ENDBRANCH   9  51
TORSDOF 13
ENDMDL
MODEL 4
REMARK VINA RESULT:      -5.7     22.560     27.656
REMARK  Name = 101808841_CandidaspongiolideA.pdbqt.pdb
REMARK  13 active torsions:
REMARK  status: ('A' for Active; 'I' for Inactive)
REMARK    1  A    between atoms: C_6  and  C_39
REMARK    2  A    between atoms: C_9  and  O_27
REMARK    3  A    between atoms: C_9  and  C_51
REMARK    4  A    between atoms: C_10  and  O_29
REMARK    5  A    between atoms: C_14  and  O_31
REMARK    6  A    between atoms: C_15  and  O_33
REMARK    7  A    between atoms: C_20  and  O_35
REMARK    8  A    between atoms: O_35  and  C_37
REMARK    9  A    between atoms: C_39  and  C_41
REMARK   10  A    between atoms: C_39  and  O_49
REMARK   11  A    between atoms: C_42  and  C_44
REMARK   12  A    between atoms: C_44  and  C_46
REMARK   13  A    between atoms: C_51  and  O_52
REMARK                            x       y       z     vdW  Elec       q    Type
REMARK                         _______ _______ _______ _____ _____    ______ ____
ROOT
ATOM      1  O   UNL     1      -5.206  48.262  30.042  0.00  0.00    +0.000 OA
ATOM      2  O   UNL     1      -2.253  45.464  29.185  0.00  0.00    +0.000 OA
ATOM      3  O   UNL     1      -6.858  46.673  30.295  0.00  0.00    +0.000 OA
ATOM      4  O   UNL     1      -0.021  50.971  26.323  0.00  0.00    +0.000 OA
ATOM      5  O   UNL     1      -3.725  50.608  30.672  0.00  0.00    +0.000 OA
ATOM      6  C   UNL     1      -3.886  46.791  28.127  0.00  0.00    +0.000 C 
ATOM      7  C   UNL     1      -2.470  46.430  28.451  0.00  0.00    +0.000 C 
ATOM      8  C   UNL     1      -4.606  47.548  29.093  0.00  0.00    +0.000 C 
ATOM      9  C   UNL     1      -1.377  47.385  27.898  0.00  0.00    +0.000 C 
ATOM     10  C   UNL     1      -1.344  48.677  28.696  0.00  0.00    +0.000 C 
ATOM     11  C   UNL     1      -0.972  49.929  28.123  0.00  0.00    +0.000 C 
ATOM     12  C   UNL     1      -6.271  47.686  30.648  0.00  0.00    +0.000 C 
ATOM     13  C   UNL     1      -0.570  51.129  27.408  0.00  0.00    +0.000 C 
ATOM     14  C   UNL     1      -6.645  48.417  31.881  0.00  0.00    +0.000 C 
ATOM     15  C   UNL     1      -6.059  49.672  32.306  0.00  0.00    +0.000 C 
ATOM     16  C   UNL     1      -0.830  52.481  28.003  0.00  0.00    +0.000 C 
ATOM     17  C   UNL     1      -5.934  50.886  31.508  0.00  0.00    +0.000 C 
ATOM     18  C   UNL     1      -4.276  52.823  31.396  0.00  0.00    +0.000 C 
ATOM     19  C   UNL     1      -4.559  51.367  31.169  0.00  0.00    +0.000 C 
ATOM     20  C   UNL     1      -3.101  53.426  30.763  0.00  0.00    +0.000 C 
ATOM     21  C   UNL     1      -1.367  52.641  29.305  0.00  0.00    +0.000 C 
ATOM     22  C   UNL     1      -1.844  52.763  30.503  0.00  0.00    +0.000 C 
ATOM     23  C   UNL     1      -0.531  53.775  27.277  0.00  0.00    +0.000 C 
ATOM     24  C   UNL     1      -7.046  51.230  30.515  0.00  0.00    +0.000 C 
ATOM     25  C   UNL     1      -5.134  53.645  32.351  0.00  0.00    +0.000 C 
ATOM     26  C   UNL     1      -1.097  52.020  31.582  0.00  0.00    +0.000 C 
ENDROOT
BRANCH   9  27
ATOM     27  O   UNL     1      -1.678  47.703  26.539  0.00  0.00    +0.000 OA
ATOM     28  H   UNL     1      -1.808  46.859  26.070  0.00  0.00    +0.000 HD
ENDBRANCH   9  27
BRANCH  10  29
ATOM     29  O   UNL     1      -1.660  48.624  30.039  0.00  0.00    +0.000 OA
ATOM     30  H   UNL     1      -2.230  47.870  30.282  0.00  0.00    +0.000 HD
ENDBRANCH  10  29
BRANCH  14  31
ATOM     31  O   UNL     1      -7.582  47.855  32.729  0.00  0.00    +0.000 OA
ATOM     32  H   UNL     1      -7.648  48.369  33.562  0.00  0.00    +0.000 HD
ENDBRANCH  14  31
BRANCH  15  33
ATOM     33  O   UNL     1      -6.081  49.869  33.677  0.00  0.00    +0.000 OA
ATOM     34  C   UNL     1      -4.879  49.429  34.252  0.00  0.00    +0.000 C 
ENDBRANCH  15  33
BRANCH  20  35
ATOM     35  O   UNL     1      -3.011  54.843  30.701  0.00  0.00    +0.000 OA
BRANCH  35  37
ATOM     36  O   UNL     1      -2.067  55.315  32.782  0.00  0.00    +0.000 OA
ATOM     37  C   UNL     1      -2.117  55.384  31.569  0.00  0.00    +0.000 C 
ATOM     38  C   UNL     1      -1.075  56.228  30.935  0.00  0.00    +0.000 C 
ENDBRANCH  35  37
ENDBRANCH  20  35
BRANCH   6  39
ATOM     39  C   UNL     1      -4.516  46.290  26.922  0.00  0.00    +0.000 C 
BRANCH  39  41
ATOM     40  O   UNL     1      -5.770  46.731  24.746  0.00  0.00    +0.000 OA
ATOM     41  C   UNL     1      -5.380  47.160  26.074  0.00  0.00    +0.000 C 
ATOM     42  C   UNL     1      -6.682  46.582  25.749  0.00  0.00    +0.000 C 
ATOM     43  C   UNL     1      -5.055  48.692  26.024  0.00  0.00    +0.000 C 
BRANCH  42  44
ATOM     44  C   UNL     1      -7.882  47.369  25.717  0.00  0.00    +0.000 C 
ATOM     45  C   UNL     1      -8.827  47.257  24.549  0.00  0.00    +0.000 C 
BRANCH  44  46
ATOM     46  C   UNL     1      -8.454  47.794  26.946  0.00  0.00    +0.000 C 
ATOM     47  C   UNL     1      -8.925  48.251  27.950  0.00  0.00    +0.000 C 
ATOM     48  C   UNL     1      -9.477  48.964  29.192  0.00  0.00    +0.000 C 
ENDBRANCH  44  46
ENDBRANCH  42  44
ENDBRANCH  39  41
BRANCH  39  49
ATOM     49  O   UNL     1      -3.997  45.097  26.443  0.00  0.00    +0.000 OA
ATOM     50  H   UNL     1      -3.065  45.180  26.161  0.00  0.00    +0.000 HD
ENDBRANCH  39  49
ENDBRANCH   6  39
BRANCH   9  51
ATOM     51  C   UNL     1      -0.041  46.746  27.960  0.00  0.00    +0.000 C 
BRANCH  51  52
ATOM     52  O   UNL     1       1.151  46.154  28.035  0.00  0.00    +0.000 OA
ATOM     53  H   UNL     1       1.838  46.797  28.292  0.00  0.00    +0.000 HD
ENDBRANCH  51  52
ENDBRANCH   9  51
TORSDOF 13
ENDMDL
MODEL 5
REMARK VINA RESULT:      -5.6     32.119     34.721
REMARK  Name = 101808841_CandidaspongiolideA.pdbqt.pdb
REMARK  13 active torsions:
REMARK  status: ('A' for Active; 'I' for Inactive)
REMARK    1  A    between atoms: C_6  and  C_39
REMARK    2  A    between atoms: C_9  and  O_27
REMARK    3  A    between atoms: C_9  and  C_51
REMARK    4  A    between atoms: C_10  and  O_29
REMARK    5  A    between atoms: C_14  and  O_31
REMARK    6  A    between atoms: C_15  and  O_33
REMARK    7  A    between atoms: C_20  and  O_35
REMARK    8  A    between atoms: O_35  and  C_37
REMARK    9  A    between atoms: C_39  and  C_41
REMARK   10  A    between atoms: C_39  and  O_49
REMARK   11  A    between atoms: C_42  and  C_44
REMARK   12  A    between atoms: C_44  and  C_46
REMARK   13  A    between atoms: C_51  and  O_52
REMARK                            x       y       z     vdW  Elec       q    Type
REMARK                         _______ _______ _______ _____ _____    ______ ____
ROOT
ATOM      1  O   UNL     1       5.807  42.481   0.668  0.00  0.00    +0.000 OA
ATOM      2  O   UNL     1       6.140  39.117   3.088  0.00  0.00    +0.000 OA
ATOM      3  O   UNL     1       7.915  43.258   1.190  0.00  0.00    +0.000 OA
ATOM      4  O   UNL     1      -0.372  40.092   2.709  0.00  0.00    +0.000 OA
ATOM      5  O   UNL     1       3.598  41.863  -1.014  0.00  0.00    +0.000 OA
ATOM      6  C   UNL     1       5.446  41.366   3.158  0.00  0.00    +0.000 C 
ATOM      7  C   UNL     1       5.186  39.892   3.175  0.00  0.00    +0.000 C 
ATOM      8  C   UNL     1       5.642  41.981   1.890  0.00  0.00    +0.000 C 
ATOM      9  C   UNL     1       3.695  39.460   3.206  0.00  0.00    +0.000 C 
ATOM     10  C   UNL     1       3.051  39.666   1.845  0.00  0.00    +0.000 C 
ATOM     11  C   UNL     1       1.670  39.983   1.685  0.00  0.00    +0.000 C 
ATOM     12  C   UNL     1       7.021  43.012   0.392  0.00  0.00    +0.000 C 
ATOM     13  C   UNL     1       0.251  40.298   1.673  0.00  0.00    +0.000 C 
ATOM     14  C   UNL     1       7.190  43.233  -1.063  0.00  0.00    +0.000 C 
ATOM     15  C   UNL     1       6.147  43.057  -2.051  0.00  0.00    +0.000 C 
ATOM     16  C   UNL     1      -0.388  40.845   0.433  0.00  0.00    +0.000 C 
ATOM     17  C   UNL     1       4.813  43.644  -2.019  0.00  0.00    +0.000 C 
ATOM     18  C   UNL     1       2.501  42.948  -2.846  0.00  0.00    +0.000 C 
ATOM     19  C   UNL     1       3.641  42.723  -1.896  0.00  0.00    +0.000 C 
ATOM     20  C   UNL     1       1.201  42.338  -2.554  0.00  0.00    +0.000 C 
ATOM     21  C   UNL     1       0.323  40.975  -0.787  0.00  0.00    +0.000 C 
ATOM     22  C   UNL     1       0.989  41.070  -1.894  0.00  0.00    +0.000 C 
ATOM     23  C   UNL     1      -1.834  41.288   0.373  0.00  0.00    +0.000 C 
ATOM     24  C   UNL     1       4.644  45.051  -1.442  0.00  0.00    +0.000 C 
ATOM     25  C   UNL     1       2.710  43.712  -4.149  0.00  0.00    +0.000 C 
ATOM     26  C   UNL     1       1.673  39.808  -2.356  0.00  0.00    +0.000 C 
ENDROOT
BRANCH   9  27
ATOM     27  O   UNL     1       2.996  40.260   4.160  0.00  0.00    +0.000 OA
ATOM     28  H   UNL     1       3.430  41.132   4.175  0.00  0.00    +0.000 HD
ENDBRANCH   9  27
BRANCH  10  29
ATOM     29  O   UNL     1       3.837  39.511   0.720  0.00  0.00    +0.000 OA
ATOM     30  H   UNL     1       4.444  38.748   0.764  0.00  0.00    +0.000 HD
ENDBRANCH  10  29
BRANCH  14  31
ATOM     31  O   UNL     1       8.441  43.584  -1.541  0.00  0.00    +0.000 OA
ATOM     32  H   UNL     1       8.884  44.205  -0.926  0.00  0.00    +0.000 HD
ENDBRANCH  14  31
BRANCH  15  33
ATOM     33  O   UNL     1       6.614  42.728  -3.313  0.00  0.00    +0.000 OA
ATOM     34  C   UNL     1       6.645  41.334  -3.473  0.00  0.00    +0.000 C 
ENDBRANCH  15  33
BRANCH  20  35
ATOM     35  O   UNL     1       0.056  42.806  -3.253  0.00  0.00    +0.000 OA
BRANCH  35  37
ATOM     36  O   UNL     1      -0.382  44.539  -1.753  0.00  0.00    +0.000 OA
ATOM     37  C   UNL     1      -0.709  43.679  -2.549  0.00  0.00    +0.000 C 
ATOM     38  C   UNL     1      -2.171  43.520  -2.749  0.00  0.00    +0.000 C 
ENDBRANCH  35  37
ENDBRANCH  20  35
BRANCH   6  39
ATOM     39  C   UNL     1       5.594  42.102   4.397  0.00  0.00    +0.000 C 
BRANCH  39  41
ATOM     40  O   UNL     1       8.144  42.169   4.393  0.00  0.00    +0.000 OA
ATOM     41  C   UNL     1       6.894  42.149   5.127  0.00  0.00    +0.000 C 
ATOM     42  C   UNL     1       7.678  43.356   4.881  0.00  0.00    +0.000 C 
ATOM     43  C   UNL     1       7.068  41.219   6.377  0.00  0.00    +0.000 C 
BRANCH  42  44
ATOM     44  C   UNL     1       8.416  44.014   5.921  0.00  0.00    +0.000 C 
ATOM     45  C   UNL     1       9.880  43.712   6.117  0.00  0.00    +0.000 C 
BRANCH  44  46
ATOM     46  C   UNL     1       7.975  45.287   6.373  0.00  0.00    +0.000 C 
ATOM     47  C   UNL     1       7.632  46.332   6.849  0.00  0.00    +0.000 C 
ATOM     48  C   UNL     1       7.208  47.609   7.589  0.00  0.00    +0.000 C 
ENDBRANCH  44  46
ENDBRANCH  42  44
ENDBRANCH  39  41
BRANCH  39  49
ATOM     49  O   UNL     1       4.581  43.012   4.662  0.00  0.00    +0.000 OA
ATOM     50  H   UNL     1       4.705  43.858   4.190  0.00  0.00    +0.000 HD
ENDBRANCH  39  49
ENDBRANCH   6  39
BRANCH   9  51
ATOM     51  C   UNL     1       3.569  38.033   3.587  0.00  0.00    +0.000 C 
BRANCH  51  52
ATOM     52  O   UNL     1       3.478  36.745   3.917  0.00  0.00    +0.000 OA
ATOM     53  H   UNL     1       2.552  36.500   4.096  0.00  0.00    +0.000 HD
ENDBRANCH  51  52
ENDBRANCH   9  51
TORSDOF 13
ENDMDL
MODEL 6
REMARK VINA RESULT:      -5.6     18.825     22.931
REMARK  Name = 101808841_CandidaspongiolideA.pdbqt.pdb
REMARK  13 active torsions:
REMARK  status: ('A' for Active; 'I' for Inactive)
REMARK    1  A    between atoms: C_6  and  C_39
REMARK    2  A    between atoms: C_9  and  O_27
REMARK    3  A    between atoms: C_9  and  C_51
REMARK    4  A    between atoms: C_10  and  O_29
REMARK    5  A    between atoms: C_14  and  O_31
REMARK    6  A    between atoms: C_15  and  O_33
REMARK    7  A    between atoms: C_20  and  O_35
REMARK    8  A    between atoms: O_35  and  C_37
REMARK    9  A    between atoms: C_39  and  C_41
REMARK   10  A    between atoms: C_39  and  O_49
REMARK   11  A    between atoms: C_42  and  C_44
REMARK   12  A    between atoms: C_44  and  C_46
REMARK   13  A    between atoms: C_51  and  O_52
REMARK                            x       y       z     vdW  Elec       q    Type
REMARK                         _______ _______ _______ _____ _____    ______ ____
ROOT
ATOM      1  O   UNL     1     -12.160  48.288  31.802  0.00  0.00    +0.000 OA
ATOM      2  O   UNL     1      -9.039  49.303  34.354  0.00  0.00    +0.000 OA
ATOM      3  O   UNL     1     -13.724  48.200  33.495  0.00  0.00    +0.000 OA
ATOM      4  O   UNL     1      -5.982  46.451  29.253  0.00  0.00    +0.000 OA
ATOM      5  O   UNL     1     -11.139  48.933  29.226  0.00  0.00    +0.000 OA
ATOM      6  C   UNL     1     -10.126  47.423  33.442  0.00  0.00    +0.000 C 
ATOM      7  C   UNL     1      -8.961  48.353  33.572  0.00  0.00    +0.000 C 
ATOM      8  C   UNL     1     -11.202  47.835  32.606  0.00  0.00    +0.000 C 
ATOM      9  C   UNL     1      -7.765  48.090  32.617  0.00  0.00    +0.000 C 
ATOM     10  C   UNL     1      -8.101  48.536  31.204  0.00  0.00    +0.000 C 
ATOM     11  C   UNL     1      -7.561  47.902  30.046  0.00  0.00    +0.000 C 
ATOM     12  C   UNL     1     -13.364  48.529  32.374  0.00  0.00    +0.000 C 
ATOM     13  C   UNL     1      -6.934  47.166  28.961  0.00  0.00    +0.000 C 
ATOM     14  C   UNL     1     -14.234  49.322  31.475  0.00  0.00    +0.000 C 
ATOM     15  C   UNL     1     -13.913  49.663  30.104  0.00  0.00    +0.000 C 
ATOM     16  C   UNL     1      -7.454  47.301  27.562  0.00  0.00    +0.000 C 
ATOM     17  C   UNL     1     -13.503  48.740  29.053  0.00  0.00    +0.000 C 
ATOM     18  C   UNL     1     -12.003  48.882  26.993  0.00  0.00    +0.000 C 
ATOM     19  C   UNL     1     -12.125  48.881  28.489  0.00  0.00    +0.000 C 
ATOM     20  C   UNL     1     -10.689  48.654  26.388  0.00  0.00    +0.000 C 
ATOM     21  C   UNL     1      -8.486  48.214  27.226  0.00  0.00    +0.000 C 
ATOM     22  C   UNL     1      -9.418  49.066  26.939  0.00  0.00    +0.000 C 
ATOM     23  C   UNL     1      -6.919  46.494  26.398  0.00  0.00    +0.000 C 
ATOM     24  C   UNL     1     -14.114  47.338  29.029  0.00  0.00    +0.000 C 
ATOM     25  C   UNL     1     -13.202  49.214  26.113  0.00  0.00    +0.000 C 
ATOM     26  C   UNL     1      -9.164  50.486  27.379  0.00  0.00    +0.000 C 
ENDROOT
BRANCH   9  27
ATOM     27  O   UNL     1      -7.486  46.689  32.593  0.00  0.00    +0.000 OA
ATOM     28  H   UNL     1      -7.060  46.498  31.737  0.00  0.00    +0.000 HD
ENDBRANCH   9  27
BRANCH  10  29
ATOM     29  O   UNL     1      -8.942  49.619  31.044  0.00  0.00    +0.000 OA
ATOM     30  H   UNL     1      -8.484  50.440  30.780  0.00  0.00    +0.000 HD
ENDBRANCH  10  29
BRANCH  14  31
ATOM     31  O   UNL     1     -15.422  49.827  31.974  0.00  0.00    +0.000 OA
ATOM     32  H   UNL     1     -15.263  50.659  32.468  0.00  0.00    +0.000 HD
ENDBRANCH  14  31
BRANCH  15  33
ATOM     33  O   UNL     1     -14.504  50.834  29.661  0.00  0.00    +0.000 OA
ATOM     34  C   UNL     1     -13.633  51.919  29.841  0.00  0.00    +0.000 C 
ENDBRANCH  15  33
BRANCH  20  35
ATOM     35  O   UNL     1     -10.622  48.329  25.006  0.00  0.00    +0.000 OA
BRANCH  35  37
ATOM     36  O   UNL     1     -10.615  50.382  23.896  0.00  0.00    +0.000 OA
ATOM     37  C   UNL     1     -10.121  49.320  24.223  0.00  0.00    +0.000 C 
ATOM     38  C   UNL     1      -8.787  49.032  23.641  0.00  0.00    +0.000 C 
ENDBRANCH  35  37
ENDBRANCH  20  35
BRANCH   6  39
ATOM     39  C   UNL     1     -10.188  46.207  34.226  0.00  0.00    +0.000 C 
BRANCH  39  41
ATOM     40  O   UNL     1     -12.231  46.600  35.700  0.00  0.00    +0.000 OA
ATOM     41  C   UNL     1     -10.854  46.170  35.559  0.00  0.00    +0.000 C 
ATOM     42  C   UNL     1     -11.993  45.258  35.637  0.00  0.00    +0.000 C 
ATOM     43  C   UNL     1     -10.045  46.684  36.798  0.00  0.00    +0.000 C 
BRANCH  42  44
ATOM     44  C   UNL     1     -12.250  44.454  36.798  0.00  0.00    +0.000 C 
ATOM     45  C   UNL     1     -13.216  44.934  37.851  0.00  0.00    +0.000 C 
BRANCH  44  46
ATOM     46  C   UNL     1     -12.071  43.047  36.709  0.00  0.00    +0.000 C 
ATOM     47  C   UNL     1     -12.011  41.850  36.682  0.00  0.00    +0.000 C 
ATOM     48  C   UNL     1     -12.048  40.316  36.739  0.00  0.00    +0.000 C 
ENDBRANCH  44  46
ENDBRANCH  42  44
ENDBRANCH  39  41
BRANCH  39  49
ATOM     49  O   UNL     1      -9.907  45.043  33.524  0.00  0.00    +0.000 OA
ATOM     50  H   UNL     1      -9.760  44.278  34.112  0.00  0.00    +0.000 HD
ENDBRANCH  39  49
ENDBRANCH   6  39
BRANCH   9  51
ATOM     51  C   UNL     1      -6.556  48.814  33.077  0.00  0.00    +0.000 C 
BRANCH  51  52
ATOM     52  O   UNL     1      -5.474  49.458  33.516  0.00  0.00    +0.000 OA
ATOM     53  H   UNL     1      -4.733  48.838  33.645  0.00  0.00    +0.000 HD
ENDBRANCH  51  52
ENDBRANCH   9  51
TORSDOF 13
ENDMDL
MODEL 7
REMARK VINA RESULT:      -5.5      3.057      8.937
REMARK  Name = 101808841_CandidaspongiolideA.pdbqt.pdb
REMARK  13 active torsions:
REMARK  status: ('A' for Active; 'I' for Inactive)
REMARK    1  A    between atoms: C_6  and  C_39
REMARK    2  A    between atoms: C_9  and  O_27
REMARK    3  A    between atoms: C_9  and  C_51
REMARK    4  A    between atoms: C_10  and  O_29
REMARK    5  A    between atoms: C_14  and  O_31
REMARK    6  A    between atoms: C_15  and  O_33
REMARK    7  A    between atoms: C_20  and  O_35
REMARK    8  A    between atoms: O_35  and  C_37
REMARK    9  A    between atoms: C_39  and  C_41
REMARK   10  A    between atoms: C_39  and  O_49
REMARK   11  A    between atoms: C_42  and  C_44
REMARK   12  A    between atoms: C_44  and  C_46
REMARK   13  A    between atoms: C_51  and  O_52
REMARK                            x       y       z     vdW  Elec       q    Type
REMARK                         _______ _______ _______ _____ _____    ______ ____
ROOT
ATOM      1  O   UNL     1     -25.708  41.333  18.158  0.00  0.00    +0.000 OA
ATOM      2  O   UNL     1     -22.445  43.762  19.020  0.00  0.00    +0.000 OA
ATOM      3  O   UNL     1     -24.765  40.482  16.233  0.00  0.00    +0.000 OA
ATOM      4  O   UNL     1     -27.451  46.785  22.069  0.00  0.00    +0.000 OA
ATOM      5  O   UNL     1     -27.137  41.257  20.617  0.00  0.00    +0.000 OA
ATOM      6  C   UNL     1     -24.486  43.779  17.845  0.00  0.00    +0.000 C 
ATOM      7  C   UNL     1     -23.594  44.205  18.968  0.00  0.00    +0.000 C 
ATOM      8  C   UNL     1     -25.134  42.519  17.966  0.00  0.00    +0.000 C 
ATOM      9  C   UNL     1     -24.240  45.115  20.049  0.00  0.00    +0.000 C 
ATOM     10  C   UNL     1     -25.163  44.306  20.945  0.00  0.00    +0.000 C 
ATOM     11  C   UNL     1     -26.324  44.861  21.558  0.00  0.00    +0.000 C 
ATOM     12  C   UNL     1     -25.377  40.354  17.285  0.00  0.00    +0.000 C 
ATOM     13  C   UNL     1     -27.470  45.559  22.119  0.00  0.00    +0.000 C 
ATOM     14  C   UNL     1     -25.809  39.026  17.781  0.00  0.00    +0.000 C 
ATOM     15  C   UNL     1     -26.618  38.810  18.963  0.00  0.00    +0.000 C 
ATOM     16  C   UNL     1     -28.602  44.784  22.722  0.00  0.00    +0.000 C 
ATOM     17  C   UNL     1     -27.892  39.448  19.271  0.00  0.00    +0.000 C 
ATOM     18  C   UNL     1     -29.106  40.144  21.406  0.00  0.00    +0.000 C 
ATOM     19  C   UNL     1     -27.957  40.351  20.462  0.00  0.00    +0.000 C 
ATOM     20  C   UNL     1     -29.431  41.198  22.370  0.00  0.00    +0.000 C 
ATOM     21  C   UNL     1     -28.557  43.374  22.867  0.00  0.00    +0.000 C 
ATOM     22  C   UNL     1     -28.486  42.088  23.004  0.00  0.00    +0.000 C 
ATOM     23  C   UNL     1     -29.870  45.433  23.235  0.00  0.00    +0.000 C 
ATOM     24  C   UNL     1     -28.857  39.754  18.123  0.00  0.00    +0.000 C 
ATOM     25  C   UNL     1     -29.861  38.821  21.437  0.00  0.00    +0.000 C 
ATOM     26  C   UNL     1     -27.262  41.573  23.717  0.00  0.00    +0.000 C 
ENDROOT
BRANCH   9  27
ATOM     27  O   UNL     1     -25.013  46.129  19.405  0.00  0.00    +0.000 OA
ATOM     28  H   UNL     1     -25.267  45.782  18.530  0.00  0.00    +0.000 HD
ENDBRANCH   9  27
BRANCH  10  29
ATOM     29  O   UNL     1     -24.840  42.987  21.194  0.00  0.00    +0.000 OA
ATOM     30  H   UNL     1     -25.614  42.396  21.255  0.00  0.00    +0.000 HD
ENDBRANCH  10  29
BRANCH  14  31
ATOM     31  O   UNL     1     -25.378  37.894  17.112  0.00  0.00    +0.000 OA
ATOM     32  H   UNL     1     -25.542  37.091  17.651  0.00  0.00    +0.000 HD
ENDBRANCH  14  31
BRANCH  15  33
ATOM     33  O   UNL     1     -26.412  37.582  19.569  0.00  0.00    +0.000 OA
ATOM     34  C   UNL     1     -25.502  37.708  20.629  0.00  0.00    +0.000 C 
ENDBRANCH  15  33
BRANCH  20  35
ATOM     35  O   UNL     1     -30.690  41.155  23.027  0.00  0.00    +0.000 OA
BRANCH  35  37
ATOM     36  O   UNL     1     -30.205  39.745  24.821  0.00  0.00    +0.000 OA
ATOM     37  C   UNL     1     -30.628  40.773  24.328  0.00  0.00    +0.000 C 
ATOM     38  C   UNL     1     -31.215  41.744  25.285  0.00  0.00    +0.000 C 
ENDBRANCH  35  37
ENDBRANCH  20  35
BRANCH   6  39
ATOM     39  C   UNL     1     -24.591  44.582  16.643  0.00  0.00    +0.000 C 
BRANCH  39  41
ATOM     40  O   UNL     1     -25.955  45.374  14.640  0.00  0.00    +0.000 OA
ATOM     41  C   UNL     1     -25.904  44.831  15.982  0.00  0.00    +0.000 C 
ATOM     42  C   UNL     1     -26.135  44.030  14.783  0.00  0.00    +0.000 C 
ATOM     43  C   UNL     1     -27.038  45.500  16.832  0.00  0.00    +0.000 C 
BRANCH  42  44
ATOM     44  C   UNL     1     -27.419  43.466  14.476  0.00  0.00    +0.000 C 
ATOM     45  C   UNL     1     -28.344  44.171  13.517  0.00  0.00    +0.000 C 
BRANCH  44  46
ATOM     46  C   UNL     1     -27.597  42.062  14.597  0.00  0.00    +0.000 C 
ATOM     47  C   UNL     1     -27.790  40.878  14.604  0.00  0.00    +0.000 C 
ATOM     48  C   UNL     1     -28.121  39.382  14.497  0.00  0.00    +0.000 C 
ENDBRANCH  44  46
ENDBRANCH  42  44
ENDBRANCH  39  41
BRANCH  39  49
ATOM     49  O   UNL     1     -23.479  45.363  16.362  0.00  0.00    +0.000 OA
ATOM     50  H   UNL     1     -22.899  44.959  15.688  0.00  0.00    +0.000 HD
ENDBRANCH  39  49
ENDBRANCH   6  39
BRANCH   9  51
ATOM     51  C   UNL     1     -23.199  45.759  20.884  0.00  0.00    +0.000 C 
BRANCH  51  52
ATOM     52  O   UNL     1     -22.269  46.321  21.656  0.00  0.00    +0.000 OA
ATOM     53  H   UNL     1     -22.643  47.071  22.155  0.00  0.00    +0.000 HD
ENDBRANCH  51  52
ENDBRANCH   9  51
TORSDOF 13
ENDMDL
MODEL 8
REMARK VINA RESULT:      -5.5     15.133     20.232
REMARK  Name = 101808841_CandidaspongiolideA.pdbqt.pdb
REMARK  13 active torsions:
REMARK  status: ('A' for Active; 'I' for Inactive)
REMARK    1  A    between atoms: C_6  and  C_39
REMARK    2  A    between atoms: C_9  and  O_27
REMARK    3  A    between atoms: C_9  and  C_51
REMARK    4  A    between atoms: C_10  and  O_29
REMARK    5  A    between atoms: C_14  and  O_31
REMARK    6  A    between atoms: C_15  and  O_33
REMARK    7  A    between atoms: C_20  and  O_35
REMARK    8  A    between atoms: O_35  and  C_37
REMARK    9  A    between atoms: C_39  and  C_41
REMARK   10  A    between atoms: C_39  and  O_49
REMARK   11  A    between atoms: C_42  and  C_44
REMARK   12  A    between atoms: C_44  and  C_46
REMARK   13  A    between atoms: C_51  and  O_52
REMARK                            x       y       z     vdW  Elec       q    Type
REMARK                         _______ _______ _______ _____ _____    ______ ____
ROOT
ATOM      1  O   UNL     1     -15.037  46.652  32.581  0.00  0.00    +0.000 OA
ATOM      2  O   UNL     1     -16.272  50.411  31.305  0.00  0.00    +0.000 OA
ATOM      3  O   UNL     1     -12.835  47.290  32.837  0.00  0.00    +0.000 OA
ATOM      4  O   UNL     1     -20.773  46.354  28.701  0.00  0.00    +0.000 OA
ATOM      5  O   UNL     1     -17.475  45.359  33.271  0.00  0.00    +0.000 OA
ATOM      6  C   UNL     1     -15.438  48.373  30.471  0.00  0.00    +0.000 C 
ATOM      7  C   UNL     1     -16.520  49.389  30.662  0.00  0.00    +0.000 C 
ATOM      8  C   UNL     1     -15.195  47.466  31.540  0.00  0.00    +0.000 C 
ATOM      9  C   UNL     1     -17.919  49.014  30.103  0.00  0.00    +0.000 C 
ATOM     10  C   UNL     1     -18.588  47.977  30.989  0.00  0.00    +0.000 C 
ATOM     11  C   UNL     1     -19.494  46.999  30.484  0.00  0.00    +0.000 C 
ATOM     12  C   UNL     1     -13.845  46.715  33.220  0.00  0.00    +0.000 C 
ATOM     13  C   UNL     1     -20.398  46.065  29.832  0.00  0.00    +0.000 C 
ATOM     14  C   UNL     1     -13.901  46.021  34.527  0.00  0.00    +0.000 C 
ATOM     15  C   UNL     1     -15.026  45.241  35.000  0.00  0.00    +0.000 C 
ATOM     16  C   UNL     1     -20.832  44.819  30.542  0.00  0.00    +0.000 C 
ATOM     17  C   UNL     1     -15.691  44.157  34.286  0.00  0.00    +0.000 C 
ATOM     18  C   UNL     1     -18.068  43.231  34.196  0.00  0.00    +0.000 C 
ATOM     19  C   UNL     1     -17.119  44.351  33.884  0.00  0.00    +0.000 C 
ATOM     20  C   UNL     1     -19.369  43.194  33.524  0.00  0.00    +0.000 C 
ATOM     21  C   UNL     1     -20.475  44.555  31.888  0.00  0.00    +0.000 C 
ATOM     22  C   UNL     1     -20.149  44.342  33.124  0.00  0.00    +0.000 C 
ATOM     23  C   UNL     1     -21.690  43.753  29.894  0.00  0.00    +0.000 C 
ATOM     24  C   UNL     1     -14.849  43.232  33.405  0.00  0.00    +0.000 C 
ATOM     25  C   UNL     1     -17.734  42.201  35.269  0.00  0.00    +0.000 C 
ATOM     26  C   UNL     1     -20.483  45.453  34.088  0.00  0.00    +0.000 C 
ENDROOT
BRANCH   9  27
ATOM     27  O   UNL     1     -17.766  48.457  28.796  0.00  0.00    +0.000 OA
ATOM     28  H   UNL     1     -17.247  49.095  28.273  0.00  0.00    +0.000 HD
ENDBRANCH   9  27
BRANCH  10  29
ATOM     29  O   UNL     1     -18.324  48.008  32.344  0.00  0.00    +0.000 OA
ATOM     30  H   UNL     1     -17.398  48.223  32.562  0.00  0.00    +0.000 HD
ENDBRANCH  10  29
BRANCH  14  31
ATOM     31  O   UNL     1     -12.834  46.157  35.398  0.00  0.00    +0.000 OA
ATOM     32  H   UNL     1     -12.234  46.872  35.101  0.00  0.00    +0.000 HD
ENDBRANCH  14  31
BRANCH  15  33
ATOM     33  O   UNL     1     -15.141  45.195  36.379  0.00  0.00    +0.000 OA
ATOM     34  C   UNL     1     -16.017  46.195  36.828  0.00  0.00    +0.000 C 
ENDBRANCH  15  33
BRANCH  20  35
ATOM     35  O   UNL     1     -20.121  41.989  33.561  0.00  0.00    +0.000 OA
BRANCH  35  37
ATOM     36  O   UNL     1     -21.245  42.258  35.588  0.00  0.00    +0.000 OA
ATOM     37  C   UNL     1     -21.192  42.025  34.395  0.00  0.00    +0.000 C 
ATOM     38  C   UNL     1     -22.484  41.675  33.757  0.00  0.00    +0.000 C 
ENDBRANCH  35  37
ENDBRANCH  20  35
BRANCH   6  39
ATOM     39  C   UNL     1     -14.610  48.394  29.282  0.00  0.00    +0.000 C 
BRANCH  39  41
ATOM     40  O   UNL     1     -12.471  49.387  30.253  0.00  0.00    +0.000 OA
ATOM     41  C   UNL     1     -13.429  49.297  29.169  0.00  0.00    +0.000 C 
ATOM     42  C   UNL     1     -12.142  48.608  29.183  0.00  0.00    +0.000 C 
ATOM     43  C   UNL     1     -13.658  50.735  28.589  0.00  0.00    +0.000 C 
BRANCH  42  44
ATOM     44  C   UNL     1     -11.050  49.012  28.343  0.00  0.00    +0.000 C 
ATOM     45  C   UNL     1      -9.919  49.830  28.914  0.00  0.00    +0.000 C 
BRANCH  44  46
ATOM     46  C   UNL     1     -10.737  48.225  27.202  0.00  0.00    +0.000 C 
ATOM     47  C   UNL     1     -10.414  47.640  26.206  0.00  0.00    +0.000 C 
ATOM     48  C   UNL     1      -9.945  47.016  24.884  0.00  0.00    +0.000 C 
ENDBRANCH  44  46
ENDBRANCH  42  44
ENDBRANCH  39  41
BRANCH  39  49
ATOM     49  O   UNL     1     -14.776  47.309  28.434  0.00  0.00    +0.000 OA
ATOM     50  H   UNL     1     -15.694  46.975  28.427  0.00  0.00    +0.000 HD
ENDBRANCH  39  49
ENDBRANCH   6  39
BRANCH   9  51
ATOM     51  C   UNL     1     -18.790  50.210  30.018  0.00  0.00    +0.000 C 
BRANCH  51  52
ATOM     52  O   UNL     1     -19.557  51.296  29.923  0.00  0.00    +0.000 OA
ATOM     53  H   UNL     1     -20.239  51.176  29.235  0.00  0.00    +0.000 HD
ENDBRANCH  51  52
ENDBRANCH   9  51
TORSDOF 13
ENDMDL
MODEL 9
REMARK VINA RESULT:      -5.5     32.764     38.082
REMARK  Name = 101808841_CandidaspongiolideA.pdbqt.pdb
REMARK  13 active torsions:
REMARK  status: ('A' for Active; 'I' for Inactive)
REMARK    1  A    between atoms: C_6  and  C_39
REMARK    2  A    between atoms: C_9  and  O_27
REMARK    3  A    between atoms: C_9  and  C_51
REMARK    4  A    between atoms: C_10  and  O_29
REMARK    5  A    between atoms: C_14  and  O_31
REMARK    6  A    between atoms: C_15  and  O_33
REMARK    7  A    between atoms: C_20  and  O_35
REMARK    8  A    between atoms: O_35  and  C_37
REMARK    9  A    between atoms: C_39  and  C_41
REMARK   10  A    between atoms: C_39  and  O_49
REMARK   11  A    between atoms: C_42  and  C_44
REMARK   12  A    between atoms: C_44  and  C_46
REMARK   13  A    between atoms: C_51  and  O_52
REMARK                            x       y       z     vdW  Elec       q    Type
REMARK                         _______ _______ _______ _____ _____    ______ ____
ROOT
ATOM      1  O   UNL     1       9.477  56.507  14.834  0.00  0.00    +0.000 OA
ATOM      2  O   UNL     1      11.939  55.098  17.874  0.00  0.00    +0.000 OA
ATOM      3  O   UNL     1      11.239  57.097  13.467  0.00  0.00    +0.000 OA
ATOM      4  O   UNL     1       6.377  56.707  21.031  0.00  0.00    +0.000 OA
ATOM      5  O   UNL     1       6.936  55.407  15.485  0.00  0.00    +0.000 OA
ATOM      6  C   UNL     1      10.886  57.069  17.131  0.00  0.00    +0.000 C 
ATOM      7  C   UNL     1      11.051  55.926  18.083  0.00  0.00    +0.000 C 
ATOM      8  C   UNL     1      10.167  56.819  15.928  0.00  0.00    +0.000 C 
ATOM      9  C   UNL     1      10.004  55.830  19.226  0.00  0.00    +0.000 C 
ATOM     10  C   UNL     1       8.673  55.331  18.690  0.00  0.00    +0.000 C 
ATOM     11  C   UNL     1       7.421  55.716  19.254  0.00  0.00    +0.000 C 
ATOM     12  C   UNL     1      10.143  56.589  13.658  0.00  0.00    +0.000 C 
ATOM     13  C   UNL     1       6.224  56.190  19.929  0.00  0.00    +0.000 C 
ATOM     14  C   UNL     1       9.392  55.918  12.571  0.00  0.00    +0.000 C 
ATOM     15  C   UNL     1       8.053  55.383  12.701  0.00  0.00    +0.000 C 
ATOM     16  C   UNL     1       4.882  56.033  19.280  0.00  0.00    +0.000 C 
ATOM     17  C   UNL     1       6.881  56.088  13.206  0.00  0.00    +0.000 C 
ATOM     18  C   UNL     1       4.766  55.424  14.471  0.00  0.00    +0.000 C 
ATOM     19  C   UNL     1       6.257  55.598  14.474  0.00  0.00    +0.000 C 
ATOM     20  C   UNL     1       4.062  55.302  15.750  0.00  0.00    +0.000 C 
ATOM     21  C   UNL     1       4.713  55.337  18.057  0.00  0.00    +0.000 C 
ATOM     22  C   UNL     1       4.581  54.682  16.947  0.00  0.00    +0.000 C 
ATOM     23  C   UNL     1       3.605  56.588  19.875  0.00  0.00    +0.000 C 
ATOM     24  C   UNL     1       6.734  57.580  12.901  0.00  0.00    +0.000 C 
ATOM     25  C   UNL     1       4.001  55.274  13.161  0.00  0.00    +0.000 C 
ATOM     26  C   UNL     1       5.163  53.291  16.935  0.00  0.00    +0.000 C 
ENDROOT
BRANCH   9  27
ATOM     27  O   UNL     1       9.805  57.128  19.788  0.00  0.00    +0.000 OA
ATOM     28  H   UNL     1      10.668  57.429  20.126  0.00  0.00    +0.000 HD
ENDBRANCH   9  27
BRANCH  10  29
ATOM     29  O   UNL     1       8.686  54.445  17.632  0.00  0.00    +0.000 OA
ATOM     30  H   UNL     1       8.863  54.863  16.768  0.00  0.00    +0.000 HD
ENDBRANCH  10  29
BRANCH  14  31
ATOM     31  O   UNL     1      10.015  55.733  11.349  0.00  0.00    +0.000 OA
ATOM     32  H   UNL     1      10.151  56.593  10.897  0.00  0.00    +0.000 HD
ENDBRANCH  14  31
BRANCH  15  33
ATOM     33  O   UNL     1       7.781  54.329  11.844  0.00  0.00    +0.000 OA
ATOM     34  C   UNL     1       6.899  54.739  10.833  0.00  0.00    +0.000 C 
ENDBRANCH  15  33
BRANCH  20  35
ATOM     35  O   UNL     1       2.651  55.467  15.770  0.00  0.00    +0.000 OA
BRANCH  35  37
ATOM     36  O   UNL     1       1.578  56.909  17.258  0.00  0.00    +0.000 OA
ATOM     37  C   UNL     1       2.236  56.662  16.266  0.00  0.00    +0.000 C 
ATOM     38  C   UNL     1       2.603  57.836  15.436  0.00  0.00    +0.000 C 
ENDBRANCH  35  37
ENDBRANCH  20  35
BRANCH   6  39
ATOM     39  C   UNL     1      11.529  58.341  17.388  0.00  0.00    +0.000 C 
BRANCH  39  41
ATOM     40  O   UNL     1      11.393  60.722  16.486  0.00  0.00    +0.000 OA
ATOM     41  C   UNL     1      10.798  59.631  17.231  0.00  0.00    +0.000 C 
ATOM     42  C   UNL     1      10.453  59.963  15.852  0.00  0.00    +0.000 C 
ATOM     43  C   UNL     1      10.080  60.225  18.491  0.00  0.00    +0.000 C 
BRANCH  42  44
ATOM     44  C   UNL     1       9.198  60.565  15.501  0.00  0.00    +0.000 C 
ATOM     45  C   UNL     1       9.129  61.569  14.378  0.00  0.00    +0.000 C 
BRANCH  44  46
ATOM     46  C   UNL     1       7.998  59.859  15.782  0.00  0.00    +0.000 C 
ATOM     47  C   UNL     1       7.001  59.284  16.119  0.00  0.00    +0.000 C 
ATOM     48  C   UNL     1       5.772  58.559  16.687  0.00  0.00    +0.000 C 
ENDBRANCH  44  46
ENDBRANCH  42  44
ENDBRANCH  39  41
BRANCH  39  49
ATOM     49  O   UNL     1      12.716  58.263  18.102  0.00  0.00    +0.000 OA
ATOM     50  H   UNL     1      13.498  58.463  17.552  0.00  0.00    +0.000 HD
ENDBRANCH  39  49
ENDBRANCH   6  39
BRANCH   9  51
ATOM     51  C   UNL     1      10.471  54.911  20.291  0.00  0.00    +0.000 C 
BRANCH  51  52
ATOM     52  O   UNL     1      10.865  54.076  21.253  0.00  0.00    +0.000 OA
ATOM     53  H   UNL     1      11.443  54.534  21.890  0.00  0.00    +0.000 HD
ENDBRANCH  51  52
ENDBRANCH   9  51
TORSDOF 13
ENDMDL
