MODEL 1
REMARK VINA RESULT:      -6.7      0.000      0.000
REMARK  Name = 102471178_CandidaspongiolideCore.pdbqt.pdb
REMARK  13 active torsions:
REMARK  status: ('A' for Active; 'I' for Inactive)
REMARK    1  A    between atoms: C_6  and  C_39
REMARK    2  A    between atoms: C_8  and  O_27
REMARK    3  A    between atoms: C_8  and  C_51
REMARK    4  A    between atoms: C_10  and  O_29
REMARK    5  A    between atoms: C_15  and  O_31
REMARK    6  A    between atoms: C_16  and  O_33
REMARK    7  A    between atoms: C_21  and  O_35
REMARK    8  A    between atoms: O_35  and  C_37
REMARK    9  A    between atoms: C_39  and  C_41
REMARK   10  A    between atoms: C_39  and  O_49
REMARK   11  A    between atoms: C_42  and  C_44
REMARK   12  A    between atoms: C_44  and  C_46
REMARK   13  A    between atoms: C_51  and  O_52
REMARK                            x       y       z     vdW  Elec       q    Type
REMARK                         _______ _______ _______ _____ _____    ______ ____
ROOT
ATOM      1  O   UNL     1      -8.777  47.715  26.092  0.00  0.00    +0.000 OA
ATOM      2  O   UNL     1      -9.085  49.670  27.258  0.00  0.00    +0.000 OA
ATOM      3  O   UNL     1      -8.238  53.017  30.796  0.00  0.00    +0.000 OA
ATOM      4  O   UNL     1      -8.752  48.476  23.966  0.00  0.00    +0.000 OA
ATOM      5  O   UNL     1     -10.723  51.291  24.728  0.00  0.00    +0.000 OA
ATOM      6  C   UNL     1      -7.815  47.865  28.196  0.00  0.00    +0.000 C 
ATOM      7  C   UNL     1      -7.992  48.156  29.577  0.00  0.00    +0.000 C 
ATOM      8  C   UNL     1      -8.159  48.293  31.026  0.00  0.00    +0.000 C 
ATOM      9  C   UNL     1      -8.622  48.542  27.147  0.00  0.00    +0.000 C 
ATOM     10  C   UNL     1      -7.520  49.557  31.559  0.00  0.00    +0.000 C 
ATOM     11  C   UNL     1      -7.587  50.823  30.918  0.00  0.00    +0.000 C 
ATOM     12  C   UNL     1      -7.717  52.077  30.206  0.00  0.00    +0.000 C 
ATOM     13  C   UNL     1      -9.360  48.261  25.009  0.00  0.00    +0.000 C 
ATOM     14  C   UNL     1      -7.270  52.190  28.784  0.00  0.00    +0.000 C 
ATOM     15  C   UNL     1     -10.843  48.301  25.019  0.00  0.00    +0.000 C 
ATOM     16  C   UNL     1     -11.646  48.775  26.127  0.00  0.00    +0.000 C 
ATOM     17  C   UNL     1     -12.058  50.155  26.345  0.00  0.00    +0.000 C 
ATOM     18  C   UNL     1      -7.945  53.075  27.908  0.00  0.00    +0.000 C 
ATOM     19  C   UNL     1     -10.754  52.297  26.877  0.00  0.00    +0.000 C 
ATOM     20  C   UNL     1      -6.312  51.192  28.150  0.00  0.00    +0.000 C 
ATOM     21  C   UNL     1      -9.832  53.337  26.433  0.00  0.00    +0.000 C 
ATOM     22  C   UNL     1     -11.166  51.259  25.878  0.00  0.00    +0.000 C 
ATOM     23  C   UNL     1      -8.660  53.836  27.138  0.00  0.00    +0.000 C 
ATOM     24  C   UNL     1     -13.489  50.500  26.748  0.00  0.00    +0.000 C 
ATOM     25  C   UNL     1     -11.020  52.132  28.367  0.00  0.00    +0.000 C 
ATOM     26  C   UNL     1      -8.174  55.254  26.977  0.00  0.00    +0.000 C 
ENDROOT
BRANCH   8  27
ATOM     27  O   UNL     1      -7.490  47.167  31.601  0.00  0.00    +0.000 OA
ATOM     28  H   UNL     1      -6.545  47.418  31.594  0.00  0.00    +0.000 HD
ENDBRANCH   8  27
BRANCH  10  29
ATOM     29  O   UNL     1      -6.871  49.466  32.781  0.00  0.00    +0.000 OA
ATOM     30  H   UNL     1      -7.336  49.960  33.482  0.00  0.00    +0.000 HD
ENDBRANCH  10  29
BRANCH  15  31
ATOM     31  O   UNL     1     -11.495  48.356  23.796  0.00  0.00    +0.000 OA
ATOM     32  H   UNL     1     -12.363  47.904  23.850  0.00  0.00    +0.000 HD
ENDBRANCH  15  31
BRANCH  16  33
ATOM     33  O   UNL     1     -12.460  47.824  26.714  0.00  0.00    +0.000 OA
ATOM     34  C   UNL     1     -12.070  47.641  28.053  0.00  0.00    +0.000 C 
ENDBRANCH  16  33
BRANCH  21  35
ATOM     35  O   UNL     1     -10.248  54.029  25.267  0.00  0.00    +0.000 OA
BRANCH  35  37
ATOM     36  O   UNL     1     -11.644  55.599  26.297  0.00  0.00    +0.000 OA
ATOM     37  C   UNL     1     -11.384  54.756  25.457  0.00  0.00    +0.000 C 
ATOM     38  C   UNL     1     -12.454  54.501  24.459  0.00  0.00    +0.000 C 
ENDBRANCH  35  37
ENDBRANCH  21  35
BRANCH   6  39
ATOM     39  C   UNL     1      -6.756  46.949  27.839  0.00  0.00    +0.000 C 
BRANCH  39  41
ATOM     40  O   UNL     1      -5.504  48.745  26.532  0.00  0.00    +0.000 OA
ATOM     41  C   UNL     1      -5.719  47.350  26.847  0.00  0.00    +0.000 C 
ATOM     42  C   UNL     1      -4.669  48.169  27.447  0.00  0.00    +0.000 C 
ATOM     43  C   UNL     1      -5.528  46.486  25.550  0.00  0.00    +0.000 C 
BRANCH  42  44
ATOM     44  C   UNL     1      -3.281  48.081  27.109  0.00  0.00    +0.000 C 
ATOM     45  C   UNL     1      -2.579  49.258  26.472  0.00  0.00    +0.000 C 
BRANCH  44  46
ATOM     46  C   UNL     1      -2.442  47.134  27.748  0.00  0.00    +0.000 C 
ATOM     47  C   UNL     1      -1.744  46.353  28.332  0.00  0.00    +0.000 C 
ATOM     48  C   UNL     1      -0.880  45.377  29.141  0.00  0.00    +0.000 C 
ENDBRANCH  44  46
ENDBRANCH  42  44
ENDBRANCH  39  41
BRANCH  39  49
ATOM     49  O   UNL     1      -6.802  45.686  28.406  0.00  0.00    +0.000 OA
ATOM     50  H   UNL     1      -6.224  45.028  27.975  0.00  0.00    +0.000 HD
ENDBRANCH  39  49
ENDBRANCH   6  39
BRANCH   8  51
ATOM     51  C   UNL     1      -9.574  48.226  31.428  0.00  0.00    +0.000 C 
BRANCH  51  52
ATOM     52  O   UNL     1     -10.847  48.128  31.813  0.00  0.00    +0.000 OA
ATOM     53  H   UNL     1     -11.193  48.997  32.102  0.00  0.00    +0.000 HD
ENDBRANCH  51  52
ENDBRANCH   8  51
TORSDOF 13
ENDMDL
MODEL 2
REMARK VINA RESULT:      -6.1     26.563     30.406
REMARK  Name = 102471178_CandidaspongiolideCore.pdbqt.pdb
REMARK  13 active torsions:
REMARK  status: ('A' for Active; 'I' for Inactive)
REMARK    1  A    between atoms: C_6  and  C_39
REMARK    2  A    between atoms: C_8  and  O_27
REMARK    3  A    between atoms: C_8  and  C_51
REMARK    4  A    between atoms: C_10  and  O_29
REMARK    5  A    between atoms: C_15  and  O_31
REMARK    6  A    between atoms: C_16  and  O_33
REMARK    7  A    between atoms: C_21  and  O_35
REMARK    8  A    between atoms: O_35  and  C_37
REMARK    9  A    between atoms: C_39  and  C_41
REMARK   10  A    between atoms: C_39  and  O_49
REMARK   11  A    between atoms: C_42  and  C_44
REMARK   12  A    between atoms: C_44  and  C_46
REMARK   13  A    between atoms: C_51  and  O_52
REMARK                            x       y       z     vdW  Elec       q    Type
REMARK                         _______ _______ _______ _____ _____    ______ ____
ROOT
ATOM      1  O   UNL     1      10.119  38.363  10.523  0.00  0.00    +0.000 OA
ATOM      2  O   UNL     1      10.178  37.932   8.268  0.00  0.00    +0.000 OA
ATOM      3  O   UNL     1      11.600  35.627   4.132  0.00  0.00    +0.000 OA
ATOM      4  O   UNL     1       7.894  38.493  10.883  0.00  0.00    +0.000 OA
ATOM      5  O   UNL     1       7.203  39.474   7.574  0.00  0.00    +0.000 OA
ATOM      6  C   UNL     1      11.862  37.056   9.733  0.00  0.00    +0.000 C 
ATOM      7  C   UNL     1      12.925  36.912   8.798  0.00  0.00    +0.000 C 
ATOM      8  C   UNL     1      14.122  36.788   7.962  0.00  0.00    +0.000 C 
ATOM      9  C   UNL     1      10.629  37.816   9.401  0.00  0.00    +0.000 C 
ATOM     10  C   UNL     1      13.954  35.751   6.873  0.00  0.00    +0.000 C 
ATOM     11  C   UNL     1      12.775  35.582   6.099  0.00  0.00    +0.000 C 
ATOM     12  C   UNL     1      11.541  35.488   5.348  0.00  0.00    +0.000 C 
ATOM     13  C   UNL     1       8.916  38.952  10.386  0.00  0.00    +0.000 C 
ATOM     14  C   UNL     1      10.240  35.273   6.053  0.00  0.00    +0.000 C 
ATOM     15  C   UNL     1       8.928  40.346   9.877  0.00  0.00    +0.000 C 
ATOM     16  C   UNL     1       9.672  40.791   8.717  0.00  0.00    +0.000 C 
ATOM     17  C   UNL     1       9.190  40.773   7.342  0.00  0.00    +0.000 C 
ATOM     18  C   UNL     1       9.053  35.822   5.511  0.00  0.00    +0.000 C 
ATOM     19  C   UNL     1       8.580  38.869   5.738  0.00  0.00    +0.000 C 
ATOM     20  C   UNL     1      10.164  34.741   7.477  0.00  0.00    +0.000 C 
ATOM     21  C   UNL     1       7.668  37.790   5.375  0.00  0.00    +0.000 C 
ATOM     22  C   UNL     1       8.227  39.708   6.928  0.00  0.00    +0.000 C 
ATOM     23  C   UNL     1       8.019  36.424   5.009  0.00  0.00    +0.000 C 
ATOM     24  C   UNL     1       9.393  41.969   6.416  0.00  0.00    +0.000 C 
ATOM     25  C   UNL     1       9.963  38.914   5.102  0.00  0.00    +0.000 C 
ATOM     26  C   UNL     1       7.175  35.608   4.064  0.00  0.00    +0.000 C 
ENDROOT
BRANCH   8  27
ATOM     27  O   UNL     1      15.165  36.361   8.841  0.00  0.00    +0.000 OA
ATOM     28  H   UNL     1      15.716  35.768   8.292  0.00  0.00    +0.000 HD
ENDBRANCH   8  27
BRANCH  10  29
ATOM     29  O   UNL     1      15.053  34.955   6.589  0.00  0.00    +0.000 OA
ATOM     30  H   UNL     1      15.295  34.982   5.645  0.00  0.00    +0.000 HD
ENDBRANCH  10  29
BRANCH  15  31
ATOM     31  O   UNL     1       7.847  41.155  10.188  0.00  0.00    +0.000 OA
ATOM     32  H   UNL     1       8.013  41.643  11.023  0.00  0.00    +0.000 HD
ENDBRANCH  15  31
BRANCH  16  33
ATOM     33  O   UNL     1      10.664  41.721   8.974  0.00  0.00    +0.000 OA
ATOM     34  C   UNL     1      11.916  41.080   8.965  0.00  0.00    +0.000 C 
ENDBRANCH  16  33
BRANCH  21  35
ATOM     35  O   UNL     1       6.319  38.194   5.208  0.00  0.00    +0.000 OA
BRANCH  35  37
ATOM     36  O   UNL     1       6.385  38.832   2.959  0.00  0.00    +0.000 OA
ATOM     37  C   UNL     1       6.140  39.016   4.138  0.00  0.00    +0.000 C 
ATOM     38  C   UNL     1       5.512  40.323   4.461  0.00  0.00    +0.000 C 
ENDBRANCH  35  37
ENDBRANCH  21  35
BRANCH   6  39
ATOM     39  C   UNL     1      11.986  36.359  10.993  0.00  0.00    +0.000 C 
BRANCH  39  41
ATOM     40  O   UNL     1      13.111  34.135  10.453  0.00  0.00    +0.000 OA
ATOM     41  C   UNL     1      12.005  34.870  11.028  0.00  0.00    +0.000 C 
ATOM     42  C   UNL     1      13.129  34.351  11.802  0.00  0.00    +0.000 C 
ATOM     43  C   UNL     1      10.669  34.083  10.780  0.00  0.00    +0.000 C 
BRANCH  42  44
ATOM     44  C   UNL     1      13.064  33.202  12.654  0.00  0.00    +0.000 C 
ATOM     45  C   UNL     1      13.885  31.974  12.336  0.00  0.00    +0.000 C 
BRANCH  44  46
ATOM     46  C   UNL     1      12.634  33.326  13.999  0.00  0.00    +0.000 C 
ATOM     47  C   UNL     1      12.264  33.479  15.130  0.00  0.00    +0.000 C 
ATOM     48  C   UNL     1      11.771  33.742  16.558  0.00  0.00    +0.000 C 
ENDBRANCH  44  46
ENDBRANCH  42  44
ENDBRANCH  39  41
BRANCH  39  49
ATOM     49  O   UNL     1      12.014  37.137  12.139  0.00  0.00    +0.000 OA
ATOM     50  H   UNL     1      12.120  38.093  11.976  0.00  0.00    +0.000 HD
ENDBRANCH  39  49
ENDBRANCH   6  39
BRANCH   8  51
ATOM     51  C   UNL     1      14.526  38.080   7.382  0.00  0.00    +0.000 C 
BRANCH  51  52
ATOM     52  O   UNL     1      14.872  39.270   6.891  0.00  0.00    +0.000 OA
ATOM     53  H   UNL     1      14.084  39.766   6.589  0.00  0.00    +0.000 HD
ENDBRANCH  51  52
ENDBRANCH   8  51
TORSDOF 13
ENDMDL
MODEL 3
REMARK VINA RESULT:      -5.9     18.153     21.876
REMARK  Name = 102471178_CandidaspongiolideCore.pdbqt.pdb
REMARK  13 active torsions:
REMARK  status: ('A' for Active; 'I' for Inactive)
REMARK    1  A    between atoms: C_6  and  C_39
REMARK    2  A    between atoms: C_8  and  O_27
REMARK    3  A    between atoms: C_8  and  C_51
REMARK    4  A    between atoms: C_10  and  O_29
REMARK    5  A    between atoms: C_15  and  O_31
REMARK    6  A    between atoms: C_16  and  O_33
REMARK    7  A    between atoms: C_21  and  O_35
REMARK    8  A    between atoms: O_35  and  C_37
REMARK    9  A    between atoms: C_39  and  C_41
REMARK   10  A    between atoms: C_39  and  O_49
REMARK   11  A    between atoms: C_42  and  C_44
REMARK   12  A    between atoms: C_44  and  C_46
REMARK   13  A    between atoms: C_51  and  O_52
REMARK                            x       y       z     vdW  Elec       q    Type
REMARK                         _______ _______ _______ _____ _____    ______ ____
ROOT
ATOM      1  O   UNL     1     -27.336  41.147  16.322  0.00  0.00    +0.000 OA
ATOM      2  O   UNL     1     -26.829  42.876  17.748  0.00  0.00    +0.000 OA
ATOM      3  O   UNL     1     -25.414  44.983  21.990  0.00  0.00    +0.000 OA
ATOM      4  O   UNL     1     -26.202  41.765  14.470  0.00  0.00    +0.000 OA
ATOM      5  O   UNL     1     -26.334  45.189  15.275  0.00  0.00    +0.000 OA
ATOM      6  C   UNL     1     -27.196  40.658  18.584  0.00  0.00    +0.000 C 
ATOM      7  C   UNL     1     -27.607  40.980  19.907  0.00  0.00    +0.000 C 
ATOM      8  C   UNL     1     -28.120  41.171  21.267  0.00  0.00    +0.000 C 
ATOM      9  C   UNL     1     -27.086  41.699  17.528  0.00  0.00    +0.000 C 
ATOM     10  C   UNL     1     -27.087  41.784  22.187  0.00  0.00    +0.000 C 
ATOM     11  C   UNL     1     -26.211  42.841  21.821  0.00  0.00    +0.000 C 
ATOM     12  C   UNL     1     -25.367  43.927  21.369  0.00  0.00    +0.000 C 
ATOM     13  C   UNL     1     -27.118  41.949  15.263  0.00  0.00    +0.000 C 
ATOM     14  C   UNL     1     -24.508  43.765  20.156  0.00  0.00    +0.000 C 
ATOM     15  C   UNL     1     -28.222  42.877  14.913  0.00  0.00    +0.000 C 
ATOM     16  C   UNL     1     -28.914  43.727  15.860  0.00  0.00    +0.000 C 
ATOM     17  C   UNL     1     -28.510  45.072  16.245  0.00  0.00    +0.000 C 
ATOM     18  C   UNL     1     -24.234  44.889  19.339  0.00  0.00    +0.000 C 
ATOM     19  C   UNL     1     -26.473  45.982  17.508  0.00  0.00    +0.000 C 
ATOM     20  C   UNL     1     -24.149  42.399  19.589  0.00  0.00    +0.000 C 
ATOM     21  C   UNL     1     -25.040  46.258  17.527  0.00  0.00    +0.000 C 
ATOM     22  C   UNL     1     -27.055  45.417  16.248  0.00  0.00    +0.000 C 
ATOM     23  C   UNL     1     -24.094  45.937  18.587  0.00  0.00    +0.000 C 
ATOM     24  C   UNL     1     -29.525  46.207  16.342  0.00  0.00    +0.000 C 
ATOM     25  C   UNL     1     -27.246  45.992  18.820  0.00  0.00    +0.000 C 
ATOM     26  C   UNL     1     -22.867  46.774  18.844  0.00  0.00    +0.000 C 
ENDROOT
BRANCH   8  27
ATOM     27  O   UNL     1     -28.440  39.863  21.747  0.00  0.00    +0.000 OA
ATOM     28  H   UNL     1     -27.972  39.260  21.135  0.00  0.00    +0.000 HD
ENDBRANCH   8  27
BRANCH  10  29
ATOM     29  O   UNL     1     -27.039  41.304  23.486  0.00  0.00    +0.000 OA
ATOM     30  H   UNL     1     -27.139  40.334  23.525  0.00  0.00    +0.000 HD
ENDBRANCH  10  29
BRANCH  15  31
ATOM     31  O   UNL     1     -28.291  43.331  13.605  0.00  0.00    +0.000 OA
ATOM     32  H   UNL     1     -27.392  43.399  13.217  0.00  0.00    +0.000 HD
ENDBRANCH  15  31
BRANCH  16  33
ATOM     33  O   UNL     1     -30.261  43.454  16.021  0.00  0.00    +0.000 OA
ATOM     34  C   UNL     1     -30.455  42.776  17.237  0.00  0.00    +0.000 C 
ENDBRANCH  16  33
BRANCH  21  35
ATOM     35  O   UNL     1     -24.587  47.075  16.461  0.00  0.00    +0.000 OA
BRANCH  35  37
ATOM     36  O   UNL     1     -25.080  49.152  17.419  0.00  0.00    +0.000 OA
ATOM     37  C   UNL     1     -25.089  48.340  16.511  0.00  0.00    +0.000 C 
ATOM     38  C   UNL     1     -25.710  48.808  15.245  0.00  0.00    +0.000 C 
ENDBRANCH  35  37
ENDBRANCH  21  35
BRANCH   6  39
ATOM     39  C   UNL     1     -26.803  39.293  18.322  0.00  0.00    +0.000 C 
BRANCH  39  41
ATOM     40  O   UNL     1     -24.535  39.078  19.468  0.00  0.00    +0.000 OA
ATOM     41  C   UNL     1     -25.361  38.921  18.291  0.00  0.00    +0.000 C 
ATOM     42  C   UNL     1     -25.050  37.837  19.219  0.00  0.00    +0.000 C 
ATOM     43  C   UNL     1     -24.514  39.253  17.011  0.00  0.00    +0.000 C 
BRANCH  42  44
ATOM     44  C   UNL     1     -24.122  36.781  18.950  0.00  0.00    +0.000 C 
ATOM     45  C   UNL     1     -22.635  37.041  19.017  0.00  0.00    +0.000 C 
BRANCH  44  46
ATOM     46  C   UNL     1     -24.518  35.425  19.075  0.00  0.00    +0.000 C 
ATOM     47  C   UNL     1     -24.810  34.265  19.161  0.00  0.00    +0.000 C 
ATOM     48  C   UNL     1     -25.116  32.765  19.254  0.00  0.00    +0.000 C 
ENDBRANCH  44  46
ENDBRANCH  42  44
ENDBRANCH  39  41
BRANCH  39  49
ATOM     49  O   UNL     1     -27.816  38.391  18.041  0.00  0.00    +0.000 OA
ATOM     50  H   UNL     1     -27.821  37.598  18.611  0.00  0.00    +0.000 HD
ENDBRANCH  39  49
ENDBRANCH   6  39
BRANCH   8  51
ATOM     51  C   UNL     1     -29.357  41.968  21.282  0.00  0.00    +0.000 C 
BRANCH  51  52
ATOM     52  O   UNL     1     -30.461  42.716  21.328  0.00  0.00    +0.000 OA
ATOM     53  H   UNL     1     -30.316  43.581  20.894  0.00  0.00    +0.000 HD
ENDBRANCH  51  52
ENDBRANCH   8  51
TORSDOF 13
ENDMDL
MODEL 4
REMARK VINA RESULT:      -5.7     25.281     29.149
REMARK  Name = 102471178_CandidaspongiolideCore.pdbqt.pdb
REMARK  13 active torsions:
REMARK  status: ('A' for Active; 'I' for Inactive)
REMARK    1  A    between atoms: C_6  and  C_39
REMARK    2  A    between atoms: C_8  and  O_27
REMARK    3  A    between atoms: C_8  and  C_51
REMARK    4  A    between atoms: C_10  and  O_29
REMARK    5  A    between atoms: C_15  and  O_31
REMARK    6  A    between atoms: C_16  and  O_33
REMARK    7  A    between atoms: C_21  and  O_35
REMARK    8  A    between atoms: O_35  and  C_37
REMARK    9  A    between atoms: C_39  and  C_41
REMARK   10  A    between atoms: C_39  and  O_49
REMARK   11  A    between atoms: C_42  and  C_44
REMARK   12  A    between atoms: C_44  and  C_46
REMARK   13  A    between atoms: C_51  and  O_52
REMARK                            x       y       z     vdW  Elec       q    Type
REMARK                         _______ _______ _______ _____ _____    ______ ____
ROOT
ATOM      1  O   UNL     1     -20.911  36.759   3.600  0.00  0.00    +0.000 OA
ATOM      2  O   UNL     1     -18.739  37.500   3.716  0.00  0.00    +0.000 OA
ATOM      3  O   UNL     1     -14.933  40.117   5.476  0.00  0.00    +0.000 OA
ATOM      4  O   UNL     1     -20.601  34.529   3.433  0.00  0.00    +0.000 OA
ATOM      5  O   UNL     1     -17.415  34.868   1.975  0.00  0.00    +0.000 OA
ATOM      6  C   UNL     1     -20.500  38.666   4.853  0.00  0.00    +0.000 C 
ATOM      7  C   UNL     1     -19.916  39.962   4.907  0.00  0.00    +0.000 C 
ATOM      8  C   UNL     1     -19.469  41.356   4.960  0.00  0.00    +0.000 C 
ATOM      9  C   UNL     1     -19.926  37.587   4.006  0.00  0.00    +0.000 C 
ATOM     10  C   UNL     1     -18.242  41.531   5.828  0.00  0.00    +0.000 C 
ATOM     11  C   UNL     1     -17.134  40.642   5.841  0.00  0.00    +0.000 C 
ATOM     12  C   UNL     1     -16.042  39.693   5.781  0.00  0.00    +0.000 C 
ATOM     13  C   UNL     1     -20.506  35.651   2.951  0.00  0.00    +0.000 C 
ATOM     14  C   UNL     1     -16.285  38.242   6.040  0.00  0.00    +0.000 C 
ATOM     15  C   UNL     1     -20.231  35.811   1.502  0.00  0.00    +0.000 C 
ATOM     16  C   UNL     1     -19.425  36.869   0.929  0.00  0.00    +0.000 C 
ATOM     17  C   UNL     1     -17.981  36.825   0.736  0.00  0.00    +0.000 C 
ATOM     18  C   UNL     1     -15.497  37.271   5.374  0.00  0.00    +0.000 C 
ATOM     19  C   UNL     1     -16.010  36.739   2.373  0.00  0.00    +0.000 C 
ATOM     20  C   UNL     1     -17.528  37.740   6.762  0.00  0.00    +0.000 C 
ATOM     21  C   UNL     1     -15.238  35.984   3.354  0.00  0.00    +0.000 C 
ATOM     22  C   UNL     1     -17.147  36.037   1.694  0.00  0.00    +0.000 C 
ATOM     23  C   UNL     1     -14.801  36.435   4.668  0.00  0.00    +0.000 C 
ATOM     24  C   UNL     1     -17.342  37.294  -0.568  0.00  0.00    +0.000 C 
ATOM     25  C   UNL     1     -15.832  38.249   2.294  0.00  0.00    +0.000 C 
ATOM     26  C   UNL     1     -13.538  35.920   5.310  0.00  0.00    +0.000 C 
ENDROOT
BRANCH   8  27
ATOM     27  O   UNL     1     -20.550  42.087   5.546  0.00  0.00    +0.000 OA
ATOM     28  H   UNL     1     -21.346  41.746   5.091  0.00  0.00    +0.000 HD
ENDBRANCH   8  27
BRANCH  10  29
ATOM     29  O   UNL     1     -18.190  42.667   6.620  0.00  0.00    +0.000 OA
ATOM     30  H   UNL     1     -17.345  42.742   7.102  0.00  0.00    +0.000 HD
ENDBRANCH  10  29
BRANCH  15  31
ATOM     31  O   UNL     1     -20.317  34.682   0.702  0.00  0.00    +0.000 OA
ATOM     32  H   UNL     1     -20.676  33.926   1.213  0.00  0.00    +0.000 HD
ENDBRANCH  15  31
BRANCH  16  33
ATOM     33  O   UNL     1     -20.100  37.732   0.084  0.00  0.00    +0.000 OA
ATOM     34  C   UNL     1     -20.307  38.957   0.741  0.00  0.00    +0.000 C 
ENDBRANCH  16  33
BRANCH  21  35
ATOM     35  O   UNL     1     -14.735  34.747   2.877  0.00  0.00    +0.000 OA
BRANCH  35  37
ATOM     36  O   UNL     1     -12.771  35.546   1.888  0.00  0.00    +0.000 OA
ATOM     37  C   UNL     1     -13.801  34.896   1.898  0.00  0.00    +0.000 C 
ATOM     38  C   UNL     1     -14.069  34.111   0.665  0.00  0.00    +0.000 C 
ENDBRANCH  35  37
ENDBRANCH  21  35
BRANCH   6  39
ATOM     39  C   UNL     1     -21.624  38.405   5.722  0.00  0.00    +0.000 C 
BRANCH  39  41
ATOM     40  O   UNL     1     -22.615  36.767   7.407  0.00  0.00    +0.000 OA
ATOM     41  C   UNL     1     -21.474  37.490   6.888  0.00  0.00    +0.000 C 
ATOM     42  C   UNL     1     -21.786  36.105   6.546  0.00  0.00    +0.000 C 
ATOM     43  C   UNL     1     -20.540  37.914   8.077  0.00  0.00    +0.000 C 
BRANCH  42  44
ATOM     44  C   UNL     1     -21.081  34.967   7.054  0.00  0.00    +0.000 C 
ATOM     45  C   UNL     1     -21.843  33.814   7.665  0.00  0.00    +0.000 C 
BRANCH  44  46
ATOM     46  C   UNL     1     -19.770  34.672   6.603  0.00  0.00    +0.000 C 
ATOM     47  C   UNL     1     -18.680  34.391   6.189  0.00  0.00    +0.000 C 
ATOM     48  C   UNL     1     -17.317  34.000   5.604  0.00  0.00    +0.000 C 
ENDBRANCH  44  46
ENDBRANCH  42  44
ENDBRANCH  39  41
BRANCH  39  49
ATOM     49  O   UNL     1     -22.833  38.986   5.375  0.00  0.00    +0.000 OA
ATOM     50  H   UNL     1     -22.797  39.955   5.258  0.00  0.00    +0.000 HD
ENDBRANCH  39  49
ENDBRANCH   6  39
BRANCH   8  51
ATOM     51  C   UNL     1     -19.231  41.911   3.617  0.00  0.00    +0.000 C 
BRANCH  51  52
ATOM     52  O   UNL     1     -18.973  42.423   2.413  0.00  0.00    +0.000 OA
ATOM     53  H   UNL     1     -19.549  42.021   1.732  0.00  0.00    +0.000 HD
ENDBRANCH  51  52
ENDBRANCH   8  51
TORSDOF 13
ENDMDL
MODEL 5
REMARK VINA RESULT:      -5.5     26.857     29.950
REMARK  Name = 102471178_CandidaspongiolideCore.pdbqt.pdb
REMARK  13 active torsions:
REMARK  status: ('A' for Active; 'I' for Inactive)
REMARK    1  A    between atoms: C_6  and  C_39
REMARK    2  A    between atoms: C_8  and  O_27
REMARK    3  A    between atoms: C_8  and  C_51
REMARK    4  A    between atoms: C_10  and  O_29
REMARK    5  A    between atoms: C_15  and  O_31
REMARK    6  A    between atoms: C_16  and  O_33
REMARK    7  A    between atoms: C_21  and  O_35
REMARK    8  A    between atoms: O_35  and  C_37
REMARK    9  A    between atoms: C_39  and  C_41
REMARK   10  A    between atoms: C_39  and  O_49
REMARK   11  A    between atoms: C_42  and  C_44
REMARK   12  A    between atoms: C_44  and  C_46
REMARK   13  A    between atoms: C_51  and  O_52
REMARK                            x       y       z     vdW  Elec       q    Type
REMARK                         _______ _______ _______ _____ _____    ______ ____
ROOT
ATOM      1  O   UNL     1      -6.182  34.438   3.041  0.00  0.00    +0.000 OA
ATOM      2  O   UNL     1      -5.505  36.404   2.065  0.00  0.00    +0.000 OA
ATOM      3  O   UNL     1      -5.998  41.012   0.343  0.00  0.00    +0.000 OA
ATOM      4  O   UNL     1      -4.521  34.098   4.532  0.00  0.00    +0.000 OA
ATOM      5  O   UNL     1      -2.169  35.911   2.643  0.00  0.00    +0.000 OA
ATOM      6  C   UNL     1      -7.835  35.887   2.305  0.00  0.00    +0.000 C 
ATOM      7  C   UNL     1      -8.353  36.672   1.238  0.00  0.00    +0.000 C 
ATOM      8  C   UNL     1      -9.008  37.369   0.127  0.00  0.00    +0.000 C 
ATOM      9  C   UNL     1      -6.377  35.636   2.451  0.00  0.00    +0.000 C 
ATOM     10  C   UNL     1      -8.912  38.873   0.260  0.00  0.00    +0.000 C 
ATOM     11  C   UNL     1      -7.748  39.570   0.680  0.00  0.00    +0.000 C 
ATOM     12  C   UNL     1      -6.515  40.200   1.103  0.00  0.00    +0.000 C 
ATOM     13  C   UNL     1      -4.908  34.155   3.371  0.00  0.00    +0.000 C 
ATOM     14  C   UNL     1      -5.882  39.828   2.405  0.00  0.00    +0.000 C 
ATOM     15  C   UNL     1      -4.062  33.603   2.284  0.00  0.00    +0.000 C 
ATOM     16  C   UNL     1      -3.964  34.164   0.952  0.00  0.00    +0.000 C 
ATOM     17  C   UNL     1      -3.031  35.202   0.536  0.00  0.00    +0.000 C 
ATOM     18  C   UNL     1      -4.472  39.873   2.534  0.00  0.00    +0.000 C 
ATOM     19  C   UNL     1      -2.779  37.672   1.174  0.00  0.00    +0.000 C 
ATOM     20  C   UNL     1      -6.652  39.123   3.513  0.00  0.00    +0.000 C 
ATOM     21  C   UNL     1      -2.416  38.669   2.175  0.00  0.00    +0.000 C 
ATOM     22  C   UNL     1      -2.599  36.229   1.533  0.00  0.00    +0.000 C 
ATOM     23  C   UNL     1      -3.175  39.851   2.559  0.00  0.00    +0.000 C 
ATOM     24  C   UNL     1      -2.256  35.092  -0.774  0.00  0.00    +0.000 C 
ATOM     25  C   UNL     1      -3.584  38.106  -0.044  0.00  0.00    +0.000 C 
ATOM     26  C   UNL     1      -2.504  41.105   3.058  0.00  0.00    +0.000 C 
ENDROOT
BRANCH   8  27
ATOM     27  O   UNL     1     -10.386  36.992   0.194  0.00  0.00    +0.000 OA
ATOM     28  H   UNL     1     -10.519  36.729   1.127  0.00  0.00    +0.000 HD
ENDBRANCH   8  27
BRANCH  10  29
ATOM     29  O   UNL     1     -10.029  39.608  -0.107  0.00  0.00    +0.000 OA
ATOM     30  H   UNL     1     -10.698  39.062  -0.560  0.00  0.00    +0.000 HD
ENDBRANCH  10  29
BRANCH  15  31
ATOM     31  O   UNL     1      -2.964  32.838   2.647  0.00  0.00    +0.000 OA
ATOM     32  H   UNL     1      -2.131  33.310   2.431  0.00  0.00    +0.000 HD
ENDBRANCH  15  31
BRANCH  16  33
ATOM     33  O   UNL     1      -4.417  33.345  -0.067  0.00  0.00    +0.000 OA
ATOM     34  C   UNL     1      -5.688  33.779  -0.482  0.00  0.00    +0.000 C 
ENDBRANCH  16  33
BRANCH  21  35
ATOM     35  O   UNL     1      -1.101  38.532   2.687  0.00  0.00    +0.000 OA
BRANCH  35  37
ATOM     36  O   UNL     1      -0.221  39.454   0.725  0.00  0.00    +0.000 OA
ATOM     37  C   UNL     1      -0.158  39.110   1.892  0.00  0.00    +0.000 C 
ATOM     38  C   UNL     1       1.133  39.394   2.570  0.00  0.00    +0.000 C 
ENDBRANCH  35  37
ENDBRANCH  21  35
BRANCH   6  39
ATOM     39  C   UNL     1      -8.772  35.414   3.299  0.00  0.00    +0.000 C 
BRANCH  39  41
ATOM     40  O   UNL     1      -9.793  33.621   1.800  0.00  0.00    +0.000 OA
ATOM     41  C   UNL     1      -9.921  34.556   2.896  0.00  0.00    +0.000 C 
ATOM     42  C   UNL     1      -9.634  33.134   3.067  0.00  0.00    +0.000 C 
ATOM     43  C   UNL     1     -11.367  35.168   2.895  0.00  0.00    +0.000 C 
BRANCH  42  44
ATOM     44  C   UNL     1     -10.584  32.165   3.524  0.00  0.00    +0.000 C 
ATOM     45  C   UNL     1     -10.945  30.985   2.651  0.00  0.00    +0.000 C 
BRANCH  44  46
ATOM     46  C   UNL     1     -10.848  32.013   4.908  0.00  0.00    +0.000 C 
ATOM     47  C   UNL     1     -11.081  31.932   6.082  0.00  0.00    +0.000 C 
ATOM     48  C   UNL     1     -11.403  31.897   7.581  0.00  0.00    +0.000 C 
ENDBRANCH  44  46
ENDBRANCH  42  44
ENDBRANCH  39  41
BRANCH  39  49
ATOM     49  O   UNL     1      -8.581  35.851   4.599  0.00  0.00    +0.000 OA
ATOM     50  H   UNL     1      -8.824  35.199   5.284  0.00  0.00    +0.000 HD
ENDBRANCH  39  49
ENDBRANCH   6  39
BRANCH   8  51
ATOM     51  C   UNL     1      -8.488  36.935  -1.180  0.00  0.00    +0.000 C 
BRANCH  51  52
ATOM     52  O   UNL     1      -8.045  36.570  -2.383  0.00  0.00    +0.000 OA
ATOM     53  H   UNL     1      -7.067  36.573  -2.411  0.00  0.00    +0.000 HD
ENDBRANCH  51  52
ENDBRANCH   8  51
TORSDOF 13
ENDMDL
MODEL 6
REMARK VINA RESULT:      -5.5     15.381     19.622
REMARK  Name = 102471178_CandidaspongiolideCore.pdbqt.pdb
REMARK  13 active torsions:
REMARK  status: ('A' for Active; 'I' for Inactive)
REMARK    1  A    between atoms: C_6  and  C_39
REMARK    2  A    between atoms: C_8  and  O_27
REMARK    3  A    between atoms: C_8  and  C_51
REMARK    4  A    between atoms: C_10  and  O_29
REMARK    5  A    between atoms: C_15  and  O_31
REMARK    6  A    between atoms: C_16  and  O_33
REMARK    7  A    between atoms: C_21  and  O_35
REMARK    8  A    between atoms: O_35  and  C_37
REMARK    9  A    between atoms: C_39  and  C_41
REMARK   10  A    between atoms: C_39  and  O_49
REMARK   11  A    between atoms: C_42  and  C_44
REMARK   12  A    between atoms: C_44  and  C_46
REMARK   13  A    between atoms: C_51  and  O_52
REMARK                            x       y       z     vdW  Elec       q    Type
REMARK                         _______ _______ _______ _____ _____    ______ ____
ROOT
ATOM      1  O   UNL     1       1.942  56.183  17.086  0.00  0.00    +0.000 OA
ATOM      2  O   UNL     1       3.930  57.258  16.671  0.00  0.00    +0.000 OA
ATOM      3  O   UNL     1       6.881  61.090  15.652  0.00  0.00    +0.000 OA
ATOM      4  O   UNL     1       2.482  54.960  18.905  0.00  0.00    +0.000 OA
ATOM      5  O   UNL     1       5.898  54.832  18.067  0.00  0.00    +0.000 OA
ATOM      6  C   UNL     1       1.834  58.308  16.165  0.00  0.00    +0.000 C 
ATOM      7  C   UNL     1       2.265  59.193  15.138  0.00  0.00    +0.000 C 
ATOM      8  C   UNL     1       2.556  60.091  14.017  0.00  0.00    +0.000 C 
ATOM      9  C   UNL     1       2.706  57.214  16.668  0.00  0.00    +0.000 C 
ATOM     10  C   UNL     1       3.487  61.216  14.414  0.00  0.00    +0.000 C 
ATOM     11  C   UNL     1       4.625  61.061  15.249  0.00  0.00    +0.000 C 
ATOM     12  C   UNL     1       5.773  60.811  16.095  0.00  0.00    +0.000 C 
ATOM     13  C   UNL     1       2.602  55.188  17.707  0.00  0.00    +0.000 C 
ATOM     14  C   UNL     1       5.599  60.189  17.443  0.00  0.00    +0.000 C 
ATOM     15  C   UNL     1       3.239  54.179  16.824  0.00  0.00    +0.000 C 
ATOM     16  C   UNL     1       4.072  54.494  15.682  0.00  0.00    +0.000 C 
ATOM     17  C   UNL     1       5.512  54.710  15.716  0.00  0.00    +0.000 C 
ATOM     18  C   UNL     1       6.619  59.357  17.966  0.00  0.00    +0.000 C 
ATOM     19  C   UNL     1       6.975  56.519  16.792  0.00  0.00    +0.000 C 
ATOM     20  C   UNL     1       4.258  60.168  18.163  0.00  0.00    +0.000 C 
ATOM     21  C   UNL     1       7.520  57.123  18.003  0.00  0.00    +0.000 C 
ATOM     22  C   UNL     1       6.127  55.294  16.948  0.00  0.00    +0.000 C 
ATOM     23  C   UNL     1       7.550  58.538  18.347  0.00  0.00    +0.000 C 
ATOM     24  C   UNL     1       6.432  54.080  14.675  0.00  0.00    +0.000 C 
ATOM     25  C   UNL     1       7.033  57.299  15.486  0.00  0.00    +0.000 C 
ATOM     26  C   UNL     1       8.635  59.128  19.210  0.00  0.00    +0.000 C 
ENDROOT
BRANCH   8  27
ATOM     27  O   UNL     1       1.298  60.653  13.635  0.00  0.00    +0.000 OA
ATOM     28  H   UNL     1       1.526  61.309  12.945  0.00  0.00    +0.000 HD
ENDBRANCH   8  27
BRANCH  10  29
ATOM     29  O   UNL     1       3.225  62.467  13.875  0.00  0.00    +0.000 OA
ATOM     30  H   UNL     1       3.983  63.074  13.967  0.00  0.00    +0.000 HD
ENDBRANCH  10  29
BRANCH  15  31
ATOM     31  O   UNL     1       3.470  52.917  17.350  0.00  0.00    +0.000 OA
ATOM     32  H   UNL     1       2.808  52.278  17.009  0.00  0.00    +0.000 HD
ENDBRANCH  15  31
BRANCH  16  33
ATOM     33  O   UNL     1       3.573  54.084  14.459  0.00  0.00    +0.000 OA
ATOM     34  C   UNL     1       3.165  55.210  13.722  0.00  0.00    +0.000 C 
ENDBRANCH  16  33
BRANCH  21  35
ATOM     35  O   UNL     1       8.240  56.225  18.832  0.00  0.00    +0.000 OA
BRANCH  35  37
ATOM     36  O   UNL     1      10.138  56.388  17.474  0.00  0.00    +0.000 OA
ATOM     37  C   UNL     1       9.421  55.827  18.284  0.00  0.00    +0.000 C 
ATOM     38  C   UNL     1       9.925  54.521  18.783  0.00  0.00    +0.000 C 
ENDBRANCH  35  37
ENDBRANCH  21  35
BRANCH   6  39
ATOM     39  C   UNL     1       0.546  58.565  16.767  0.00  0.00    +0.000 C 
BRANCH  39  41
ATOM     40  O   UNL     1      -0.596  58.890  19.024  0.00  0.00    +0.000 OA
ATOM     41  C   UNL     1       0.459  59.232  18.096  0.00  0.00    +0.000 C 
ATOM     42  C   UNL     1       0.618  58.289  19.199  0.00  0.00    +0.000 C 
ATOM     43  C   UNL     1       0.769  60.768  18.201  0.00  0.00    +0.000 C 
BRANCH  42  44
ATOM     44  C   UNL     1       1.324  58.571  20.412  0.00  0.00    +0.000 C 
ATOM     45  C   UNL     1       0.570  59.006  21.646  0.00  0.00    +0.000 C 
BRANCH  44  46
ATOM     46  C   UNL     1       2.615  58.030  20.636  0.00  0.00    +0.000 C 
ATOM     47  C   UNL     1       3.727  57.611  20.803  0.00  0.00    +0.000 C 
ATOM     48  C   UNL     1       5.174  57.139  20.996  0.00  0.00    +0.000 C 
ENDBRANCH  44  46
ENDBRANCH  42  44
ENDBRANCH  39  41
BRANCH  39  49
ATOM     49  O   UNL     1      -0.568  58.103  16.086  0.00  0.00    +0.000 OA
ATOM     50  H   UNL     1      -1.421  58.355  16.489  0.00  0.00    +0.000 HD
ENDBRANCH  39  49
ENDBRANCH   6  39
BRANCH   8  51
ATOM     51  C   UNL     1       3.094  59.366  12.854  0.00  0.00    +0.000 C 
BRANCH  51  52
ATOM     52  O   UNL     1       3.542  58.712  11.782  0.00  0.00    +0.000 OA
ATOM     53  H   UNL     1       3.760  57.785  12.004  0.00  0.00    +0.000 HD
ENDBRANCH  51  52
ENDBRANCH   8  51
TORSDOF 13
ENDMDL
MODEL 7
REMARK VINA RESULT:      -5.2     27.219     32.130
REMARK  Name = 102471178_CandidaspongiolideCore.pdbqt.pdb
REMARK  13 active torsions:
REMARK  status: ('A' for Active; 'I' for Inactive)
REMARK    1  A    between atoms: C_6  and  C_39
REMARK    2  A    between atoms: C_8  and  O_27
REMARK    3  A    between atoms: C_8  and  C_51
REMARK    4  A    between atoms: C_10  and  O_29
REMARK    5  A    between atoms: C_15  and  O_31
REMARK    6  A    between atoms: C_16  and  O_33
REMARK    7  A    between atoms: C_21  and  O_35
REMARK    8  A    between atoms: O_35  and  C_37
REMARK    9  A    between atoms: C_39  and  C_41
REMARK   10  A    between atoms: C_39  and  O_49
REMARK   11  A    between atoms: C_42  and  C_44
REMARK   12  A    between atoms: C_44  and  C_46
REMARK   13  A    between atoms: C_51  and  O_52
REMARK                            x       y       z     vdW  Elec       q    Type
REMARK                         _______ _______ _______ _____ _____    ______ ____
ROOT
ATOM      1  O   UNL     1       3.879  25.965  12.994  0.00  0.00    +0.000 OA
ATOM      2  O   UNL     1       4.741  26.434  10.917  0.00  0.00    +0.000 OA
ATOM      3  O   UNL     1       5.278  28.953   6.698  0.00  0.00    +0.000 OA
ATOM      4  O   UNL     1       5.766  25.560  14.166  0.00  0.00    +0.000 OA
ATOM      5  O   UNL     1       7.571  24.552  11.318  0.00  0.00    +0.000 OA
ATOM      6  C   UNL     1       2.725  27.486  11.679  0.00  0.00    +0.000 C 
ATOM      7  C   UNL     1       2.128  27.771  10.420  0.00  0.00    +0.000 C 
ATOM      8  C   UNL     1       1.366  28.051   9.200  0.00  0.00    +0.000 C 
ATOM      9  C   UNL     1       3.903  26.587  11.797  0.00  0.00    +0.000 C 
ATOM     10  C   UNL     1       2.050  29.076   8.321  0.00  0.00    +0.000 C 
ATOM     11  C   UNL     1       3.447  29.113   8.067  0.00  0.00    +0.000 C 
ATOM     12  C   UNL     1       4.878  29.067   7.851  0.00  0.00    +0.000 C 
ATOM     13  C   UNL     1       4.971  25.237  13.291  0.00  0.00    +0.000 C 
ATOM     14  C   UNL     1       5.821  29.112   9.010  0.00  0.00    +0.000 C 
ATOM     15  C   UNL     1       5.009  23.863  12.733  0.00  0.00    +0.000 C 
ATOM     16  C   UNL     1       4.727  23.528  11.352  0.00  0.00    +0.000 C 
ATOM     17  C   UNL     1       5.701  23.507  10.269  0.00  0.00    +0.000 C 
ATOM     18  C   UNL     1       7.060  28.431   8.930  0.00  0.00    +0.000 C 
ATOM     19  C   UNL     1       7.081  25.346   9.136  0.00  0.00    +0.000 C 
ATOM     20  C   UNL     1       5.398  29.610  10.385  0.00  0.00    +0.000 C 
ATOM     21  C   UNL     1       8.172  26.312   9.214  0.00  0.00    +0.000 C 
ATOM     22  C   UNL     1       6.857  24.453  10.318  0.00  0.00    +0.000 C 
ATOM     23  C   UNL     1       8.137  27.715   8.825  0.00  0.00    +0.000 C 
ATOM     24  C   UNL     1       5.746  22.359   9.265  0.00  0.00    +0.000 C 
ATOM     25  C   UNL     1       6.055  25.479   8.019  0.00  0.00    +0.000 C 
ATOM     26  C   UNL     1       9.362  28.436   8.324  0.00  0.00    +0.000 C 
ENDROOT
BRANCH   8  27
ATOM     27  O   UNL     1       0.116  28.589   9.639  0.00  0.00    +0.000 OA
ATOM     28  H   UNL     1      -0.167  29.172   8.906  0.00  0.00    +0.000 HD
ENDBRANCH   8  27
BRANCH  10  29
ATOM     29  O   UNL     1       1.237  30.004   7.689  0.00  0.00    +0.000 OA
ATOM     30  H   UNL     1       1.643  30.357   6.876  0.00  0.00    +0.000 HD
ENDBRANCH  10  29
BRANCH  15  31
ATOM     31  O   UNL     1       5.794  22.924  13.383  0.00  0.00    +0.000 OA
ATOM     32  H   UNL     1       5.968  22.157  12.797  0.00  0.00    +0.000 HD
ENDBRANCH  15  31
BRANCH  16  33
ATOM     33  O   UNL     1       3.620  22.721  11.155  0.00  0.00    +0.000 OA
ATOM     34  C   UNL     1       2.549  23.507  10.693  0.00  0.00    +0.000 C 
ENDBRANCH  16  33
BRANCH  21  35
ATOM     35  O   UNL     1       9.429  25.750   9.550  0.00  0.00    +0.000 OA
BRANCH  35  37
ATOM     36  O   UNL     1      10.087  25.100   7.401  0.00  0.00    +0.000 OA
ATOM     37  C   UNL     1       9.909  24.910   8.591  0.00  0.00    +0.000 C 
ATOM     38  C   UNL     1      10.309  23.569   9.089  0.00  0.00    +0.000 C 
ENDBRANCH  35  37
ENDBRANCH  21  35
BRANCH   6  39
ATOM     39  C   UNL     1       2.200  28.174  12.836  0.00  0.00    +0.000 C 
BRANCH  39  41
ATOM     40  O   UNL     1      -0.115  27.140  12.561  0.00  0.00    +0.000 OA
ATOM     41  C   UNL     1       0.735  28.175  13.107  0.00  0.00    +0.000 C 
ATOM     42  C   UNL     1       0.310  26.993  13.851  0.00  0.00    +0.000 C 
ATOM     43  C   UNL     1      -0.041  29.541  13.107  0.00  0.00    +0.000 C 
BRANCH  42  44
ATOM     44  C   UNL     1      -0.688  26.996  14.877  0.00  0.00    +0.000 C 
ATOM     45  C   UNL     1      -1.783  25.956  14.875  0.00  0.00    +0.000 C 
BRANCH  44  46
ATOM     46  C   UNL     1      -0.438  27.628  16.122  0.00  0.00    +0.000 C 
ATOM     47  C   UNL     1      -0.270  28.145  17.191  0.00  0.00    +0.000 C 
ATOM     48  C   UNL     1      -0.112  28.769  18.583  0.00  0.00    +0.000 C 
ENDBRANCH  44  46
ENDBRANCH  42  44
ENDBRANCH  39  41
BRANCH  39  49
ATOM     49  O   UNL     1       3.107  28.870  13.617  0.00  0.00    +0.000 OA
ATOM     50  H   UNL     1       3.150  28.575  14.547  0.00  0.00    +0.000 HD
ENDBRANCH  39  49
ENDBRANCH   6  39
BRANCH   8  51
ATOM     51  C   UNL     1       1.082  26.827   8.433  0.00  0.00    +0.000 C 
BRANCH  51  52
ATOM     52  O   UNL     1       0.848  25.695   7.769  0.00  0.00    +0.000 OA
ATOM     53  H   UNL     1       0.269  25.099   8.286  0.00  0.00    +0.000 HD
ENDBRANCH  51  52
ENDBRANCH   8  51
TORSDOF 13
ENDMDL
MODEL 8
REMARK VINA RESULT:      -5.2     24.900     28.541
REMARK  Name = 102471178_CandidaspongiolideCore.pdbqt.pdb
REMARK  13 active torsions:
REMARK  status: ('A' for Active; 'I' for Inactive)
REMARK    1  A    between atoms: C_6  and  C_39
REMARK    2  A    between atoms: C_8  and  O_27
REMARK    3  A    between atoms: C_8  and  C_51
REMARK    4  A    between atoms: C_10  and  O_29
REMARK    5  A    between atoms: C_15  and  O_31
REMARK    6  A    between atoms: C_16  and  O_33
REMARK    7  A    between atoms: C_21  and  O_35
REMARK    8  A    between atoms: O_35  and  C_37
REMARK    9  A    between atoms: C_39  and  C_41
REMARK   10  A    between atoms: C_39  and  O_49
REMARK   11  A    between atoms: C_42  and  C_44
REMARK   12  A    between atoms: C_44  and  C_46
REMARK   13  A    between atoms: C_51  and  O_52
REMARK                            x       y       z     vdW  Elec       q    Type
REMARK                         _______ _______ _______ _____ _____    ______ ____
ROOT
ATOM      1  O   UNL     1     -17.320  38.457   2.661  0.00  0.00    +0.000 OA
ATOM      2  O   UNL     1     -19.074  38.926   4.068  0.00  0.00    +0.000 OA
ATOM      3  O   UNL     1     -22.765  41.610   5.969  0.00  0.00    +0.000 OA
ATOM      4  O   UNL     1     -17.843  36.364   1.996  0.00  0.00    +0.000 OA
ATOM      5  O   UNL     1     -19.674  35.666   4.920  0.00  0.00    +0.000 OA
ATOM      6  C   UNL     1     -18.023  40.662   2.790  0.00  0.00    +0.000 C 
ATOM      7  C   UNL     1     -18.334  41.775   3.620  0.00  0.00    +0.000 C 
ATOM      8  C   UNL     1     -18.513  42.990   4.419  0.00  0.00    +0.000 C 
ATOM      9  C   UNL     1     -18.224  39.264   3.253  0.00  0.00    +0.000 C 
ATOM     10  C   UNL     1     -19.968  43.392   4.529  0.00  0.00    +0.000 C 
ATOM     11  C   UNL     1     -21.040  42.484   4.738  0.00  0.00    +0.000 C 
ATOM     12  C   UNL     1     -22.068  41.491   4.967  0.00  0.00    +0.000 C 
ATOM     13  C   UNL     1     -17.490  37.139   2.877  0.00  0.00    +0.000 C 
ATOM     14  C   UNL     1     -22.232  40.340   4.027  0.00  0.00    +0.000 C 
ATOM     15  C   UNL     1     -16.927  36.610   4.144  0.00  0.00    +0.000 C 
ATOM     16  C   UNL     1     -17.129  37.209   5.447  0.00  0.00    +0.000 C 
ATOM     17  C   UNL     1     -18.237  36.924   6.349  0.00  0.00    +0.000 C 
ATOM     18  C   UNL     1     -22.691  39.094   4.521  0.00  0.00    +0.000 C 
ATOM     19  C   UNL     1     -20.760  37.351   6.191  0.00  0.00    +0.000 C 
ATOM     20  C   UNL     1     -21.657  40.351   2.618  0.00  0.00    +0.000 C 
ATOM     21  C   UNL     1     -22.042  37.027   5.575  0.00  0.00    +0.000 C 
ATOM     22  C   UNL     1     -19.564  36.554   5.768  0.00  0.00    +0.000 C 
ATOM     23  C   UNL     1     -23.030  37.960   5.052  0.00  0.00    +0.000 C 
ATOM     24  C   UNL     1     -18.007  36.694   7.839  0.00  0.00    +0.000 C 
ATOM     25  C   UNL     1     -20.628  38.640   6.990  0.00  0.00    +0.000 C 
ATOM     26  C   UNL     1     -24.504  37.645   5.049  0.00  0.00    +0.000 C 
ENDROOT
BRANCH   8  27
ATOM     27  O   UNL     1     -17.807  44.019   3.722  0.00  0.00    +0.000 OA
ATOM     28  H   UNL     1     -17.026  44.198   4.284  0.00  0.00    +0.000 HD
ENDBRANCH   8  27
BRANCH  10  29
ATOM     29  O   UNL     1     -20.251  44.748   4.469  0.00  0.00    +0.000 OA
ATOM     30  H   UNL     1     -21.202  44.931   4.577  0.00  0.00    +0.000 HD
ENDBRANCH  10  29
BRANCH  15  31
ATOM     31  O   UNL     1     -16.611  35.261   4.194  0.00  0.00    +0.000 OA
ATOM     32  H   UNL     1     -17.299  34.766   4.689  0.00  0.00    +0.000 HD
ENDBRANCH  15  31
BRANCH  16  33
ATOM     33  O   UNL     1     -15.983  37.679   6.063  0.00  0.00    +0.000 OA
ATOM     34  C   UNL     1     -15.772  39.019   5.692  0.00  0.00    +0.000 C 
ENDBRANCH  16  33
BRANCH  21  35
ATOM     35  O   UNL     1     -22.406  35.659   5.664  0.00  0.00    +0.000 OA
BRANCH  35  37
ATOM     36  O   UNL     1     -23.359  35.707   7.800  0.00  0.00    +0.000 OA
ATOM     37  C   UNL     1     -22.622  35.249   6.944  0.00  0.00    +0.000 C 
ATOM     38  C   UNL     1     -21.866  34.033   7.339  0.00  0.00    +0.000 C 
ENDBRANCH  35  37
ENDBRANCH  21  35
BRANCH   6  39
ATOM     39  C   UNL     1     -17.587  40.940   1.441  0.00  0.00    +0.000 C 
BRANCH  39  41
ATOM     40  O   UNL     1     -15.878  42.727   2.065  0.00  0.00    +0.000 OA
ATOM     41  C   UNL     1     -16.852  42.199   1.135  0.00  0.00    +0.000 C 
ATOM     42  C   UNL     1     -15.412  41.983   1.017  0.00  0.00    +0.000 C 
ATOM     43  C   UNL     1     -17.621  43.387   0.455  0.00  0.00    +0.000 C 
BRANCH  42  44
ATOM     44  C   UNL     1     -14.569  42.641   0.066  0.00  0.00    +0.000 C 
ATOM     45  C   UNL     1     -14.187  41.944  -1.220  0.00  0.00    +0.000 C 
BRANCH  44  46
ATOM     46  C   UNL     1     -14.456  44.054   0.060  0.00  0.00    +0.000 C 
ATOM     47  C   UNL     1     -14.361  45.248   0.006  0.00  0.00    +0.000 C 
ATOM     48  C   UNL     1     -14.256  46.772  -0.134  0.00  0.00    +0.000 C 
ENDBRANCH  44  46
ENDBRANCH  42  44
ENDBRANCH  39  41
BRANCH  39  49
ATOM     49  O   UNL     1     -17.944  40.024   0.465  0.00  0.00    +0.000 OA
ATOM     50  H   UNL     1     -18.720  40.284  -0.068  0.00  0.00    +0.000 HD
ENDBRANCH  39  49
ENDBRANCH   6  39
BRANCH   8  51
ATOM     51  C   UNL     1     -17.914  42.864   5.758  0.00  0.00    +0.000 C 
BRANCH  51  52
ATOM     52  O   UNL     1     -17.412  42.741   6.987  0.00  0.00    +0.000 OA
ATOM     53  H   UNL     1     -16.890  43.531   7.233  0.00  0.00    +0.000 HD
ENDBRANCH  51  52
ENDBRANCH   8  51
TORSDOF 13
ENDMDL
MODEL 9
REMARK VINA RESULT:      -5.2     26.758     29.914
REMARK  Name = 102471178_CandidaspongiolideCore.pdbqt.pdb
REMARK  13 active torsions:
REMARK  status: ('A' for Active; 'I' for Inactive)
REMARK    1  A    between atoms: C_6  and  C_39
REMARK    2  A    between atoms: C_8  and  O_27
REMARK    3  A    between atoms: C_8  and  C_51
REMARK    4  A    between atoms: C_10  and  O_29
REMARK    5  A    between atoms: C_15  and  O_31
REMARK    6  A    between atoms: C_16  and  O_33
REMARK    7  A    between atoms: C_21  and  O_35
REMARK    8  A    between atoms: O_35  and  C_37
REMARK    9  A    between atoms: C_39  and  C_41
REMARK   10  A    between atoms: C_39  and  O_49
REMARK   11  A    between atoms: C_42  and  C_44
REMARK   12  A    between atoms: C_44  and  C_46
REMARK   13  A    between atoms: C_51  and  O_52
REMARK                            x       y       z     vdW  Elec       q    Type
REMARK                         _______ _______ _______ _____ _____    ______ ____
ROOT
ATOM      1  O   UNL     1       8.387  39.708   7.630  0.00  0.00    +0.000 OA
ATOM      2  O   UNL     1       9.166  41.705   6.807  0.00  0.00    +0.000 OA
ATOM      3  O   UNL     1       9.419  45.528   3.683  0.00  0.00    +0.000 OA
ATOM      4  O   UNL     1       8.112  40.214   9.813  0.00  0.00    +0.000 OA
ATOM      5  O   UNL     1      10.568  42.736   9.754  0.00  0.00    +0.000 OA
ATOM      6  C   UNL     1       7.826  40.253   5.448  0.00  0.00    +0.000 C 
ATOM      7  C   UNL     1       8.275  40.667   4.163  0.00  0.00    +0.000 C 
ATOM      8  C   UNL     1       8.702  40.939   2.788  0.00  0.00    +0.000 C 
ATOM      9  C   UNL     1       8.533  40.663   6.690  0.00  0.00    +0.000 C 
ATOM     10  C   UNL     1       8.350  42.343   2.347  0.00  0.00    +0.000 C 
ATOM     11  C   UNL     1       8.490  43.499   3.161  0.00  0.00    +0.000 C 
ATOM     12  C   UNL     1       8.677  44.625   4.052  0.00  0.00    +0.000 C 
ATOM     13  C   UNL     1       8.850  40.023   8.854  0.00  0.00    +0.000 C 
ATOM     14  C   UNL     1       8.016  44.647   5.393  0.00  0.00    +0.000 C 
ATOM     15  C   UNL     1      10.304  39.819   9.071  0.00  0.00    +0.000 C 
ATOM     16  C   UNL     1      11.343  40.279   8.172  0.00  0.00    +0.000 C 
ATOM     17  C   UNL     1      11.980  41.589   8.212  0.00  0.00    +0.000 C 
ATOM     18  C   UNL     1       8.653  45.303   6.474  0.00  0.00    +0.000 C 
ATOM     19  C   UNL     1      11.106  43.962   7.795  0.00  0.00    +0.000 C 
ATOM     20  C   UNL     1       6.831  43.754   5.732  0.00  0.00    +0.000 C 
ATOM     21  C   UNL     1      10.282  45.082   8.237  0.00  0.00    +0.000 C 
ATOM     22  C   UNL     1      11.189  42.764   8.690  0.00  0.00    +0.000 C 
ATOM     23  C   UNL     1       9.329  45.844   7.441  0.00  0.00    +0.000 C 
ATOM     24  C   UNL     1      13.493  41.737   8.080  0.00  0.00    +0.000 C 
ATOM     25  C   UNL     1      11.594  43.927   6.353  0.00  0.00    +0.000 C 
ATOM     26  C   UNL     1       9.032  47.294   7.723  0.00  0.00    +0.000 C 
ENDROOT
BRANCH   8  27
ATOM     27  O   UNL     1       7.986  40.011   1.969  0.00  0.00    +0.000 OA
ATOM     28  H   UNL     1       7.314  40.559   1.515  0.00  0.00    +0.000 HD
ENDBRANCH   8  27
BRANCH  10  29
ATOM     29  O   UNL     1       7.912  42.500   1.042  0.00  0.00    +0.000 OA
ATOM     30  H   UNL     1       6.957  42.323   0.949  0.00  0.00    +0.000 HD
ENDBRANCH  10  29
BRANCH  15  31
ATOM     31  O   UNL     1      10.741  39.627  10.373  0.00  0.00    +0.000 OA
ATOM     32  H   UNL     1      10.227  40.188  10.993  0.00  0.00    +0.000 HD
ENDBRANCH  15  31
BRANCH  16  33
ATOM     33  O   UNL     1      12.099  39.280   7.586  0.00  0.00    +0.000 OA
ATOM     34  C   UNL     1      11.663  39.081   6.264  0.00  0.00    +0.000 C 
ENDBRANCH  16  33
BRANCH  21  35
ATOM     35  O   UNL     1      10.589  45.558   9.536  0.00  0.00    +0.000 OA
BRANCH  35  37
ATOM     36  O   UNL     1      12.270  47.083   8.969  0.00  0.00    +0.000 OA
ATOM     37  C   UNL     1      11.812  46.153   9.608  0.00  0.00    +0.000 C 
ATOM     38  C   UNL     1      12.707  45.599  10.657  0.00  0.00    +0.000 C 
ENDBRANCH  35  37
ENDBRANCH  21  35
BRANCH   6  39
ATOM     39  C   UNL     1       6.602  39.488   5.512  0.00  0.00    +0.000 C 
BRANCH  39  41
ATOM     40  O   UNL     1       5.365  37.304   5.062  0.00  0.00    +0.000 OA
ATOM     41  C   UNL     1       6.514  38.157   4.850  0.00  0.00    +0.000 C 
ATOM     42  C   UNL     1       5.383  38.071   3.931  0.00  0.00    +0.000 C 
ATOM     43  C   UNL     1       7.807  37.272   4.738  0.00  0.00    +0.000 C 
BRANCH  42  44
ATOM     44  C   UNL     1       5.410  37.388   2.673  0.00  0.00    +0.000 C 
ATOM     45  C   UNL     1       5.137  35.903   2.608  0.00  0.00    +0.000 C 
BRANCH  44  46
ATOM     46  C   UNL     1       5.230  38.103   1.462  0.00  0.00    +0.000 C 
ATOM     47  C   UNL     1       5.067  38.664   0.414  0.00  0.00    +0.000 C 
ATOM     48  C   UNL     1       4.831  39.322  -0.951  0.00  0.00    +0.000 C 
ENDBRANCH  44  46
ENDBRANCH  42  44
ENDBRANCH  39  41
BRANCH  39  49
ATOM     49  O   UNL     1       5.524  40.082   6.147  0.00  0.00    +0.000 OA
ATOM     50  H   UNL     1       4.674  39.619   6.019  0.00  0.00    +0.000 HD
ENDBRANCH  39  49
ENDBRANCH   6  39
BRANCH   8  51
ATOM     51  C   UNL     1      10.140  40.687   2.597  0.00  0.00    +0.000 C 
BRANCH  51  52
ATOM     52  O   UNL     1      11.448  40.463   2.468  0.00  0.00    +0.000 OA
ATOM     53  H   UNL     1      11.968  41.156   2.922  0.00  0.00    +0.000 HD
ENDBRANCH  51  52
ENDBRANCH   8  51
TORSDOF 13
ENDMDL
