MODEL 1
REMARK VINA RESULT:      -5.7      0.000      0.000
REMARK  Name = 10288191_Binimetinib.pdbqt.pdb
REMARK  6 active torsions:
REMARK  status: ('A' for Active; 'I' for Inactive)
REMARK    1  A    between atoms: C_6  and  N_21
REMARK    2  A    between atoms: C_7  and  C_14
REMARK    3  A    between atoms: N_13  and  O_16
REMARK    4  A    between atoms: O_16  and  C_17
REMARK    5  A    between atoms: C_18  and  O_19
REMARK    6  A    between atoms: N_21  and  C_25
REMARK                            x       y       z     vdW  Elec       q    Type
REMARK                         _______ _______ _______ _____ _____    ______ ____
ROOT
ATOM      1  F   UNL     1     -19.235  40.077   6.593  0.00  0.00    +0.000 F 
ATOM      2  N   UNL     1     -20.171  35.702   7.241  0.00  0.00    +0.000 N 
ATOM      3  N   UNL     1     -20.958  37.764   7.191  0.00  0.00    +0.000 NA
ATOM      4  C   UNL     1     -19.094  36.471   6.907  0.00  0.00    +0.000 A 
ATOM      5  C   UNL     1     -19.611  37.763   6.877  0.00  0.00    +0.000 A 
ATOM      6  C   UNL     1     -17.382  38.598   6.264  0.00  0.00    +0.000 A 
ATOM      7  C   UNL     1     -16.902  37.263   6.323  0.00  0.00    +0.000 A 
ATOM      8  C   UNL     1     -17.752  36.189   6.644  0.00  0.00    +0.000 A 
ATOM      9  C   UNL     1     -18.747  38.827   6.556  0.00  0.00    +0.000 A 
ATOM     10  C   UNL     1     -21.265  36.498   7.404  0.00  0.00    +0.000 A 
ATOM     11  C   UNL     1     -20.166  34.284   7.380  0.00  0.00    +0.000 C 
ENDROOT
BRANCH   7  14
ATOM     12  O   UNL     1     -14.588  37.669   6.546  0.00  0.00    +0.000 OA
ATOM     13  N   UNL     1     -15.199  35.825   5.308  0.00  0.00    +0.000 N 
ATOM     14  C   UNL     1     -15.459  36.944   6.074  0.00  0.00    +0.000 C 
ATOM     15  H   UNL     1     -15.875  35.461   4.648  0.00  0.00    +0.000 HD
BRANCH  13  16
ATOM     16  O   UNL     1     -13.860  35.732   4.871  0.00  0.00    +0.000 OA
BRANCH  16  17
ATOM     17  C   UNL     1     -13.596  34.433   4.750  0.00  0.00    +0.000 C 
ATOM     18  C   UNL     1     -13.293  32.939   4.597  0.00  0.00    +0.000 C 
BRANCH  18  19
ATOM     19  O   UNL     1     -13.028  31.644   4.456  0.00  0.00    +0.000 OA
ATOM     20  H   UNL     1     -12.074  31.509   4.328  0.00  0.00    +0.000 HD
ENDBRANCH  18  19
ENDBRANCH  16  17
ENDBRANCH  13  16
ENDBRANCH   7  14
BRANCH   6  21
ATOM     21  N   UNL     1     -16.515  39.657   5.892  0.00  0.00    +0.000 N 
ATOM     22  H   UNL     1     -15.531  39.488   6.155  0.00  0.00    +0.000 HD
BRANCH  21  25
ATOM     23 BR   UNL     1     -17.127  44.041   1.697  0.00  0.00    +0.000 Br
ATOM     24  F   UNL     1     -16.264  42.332   6.516  0.00  0.00    +0.000 F 
ATOM     25  C   UNL     1     -16.623  40.643   4.889  0.00  0.00    +0.000 A 
ATOM     26  C   UNL     1     -16.518  41.999   5.240  0.00  0.00    +0.000 A 
ATOM     27  C   UNL     1     -16.908  40.345   3.555  0.00  0.00    +0.000 A 
ATOM     28  C   UNL     1     -16.663  43.017   4.303  0.00  0.00    +0.000 A 
ATOM     29  C   UNL     1     -17.055  41.351   2.601  0.00  0.00    +0.000 A 
ATOM     30  C   UNL     1     -16.930  42.681   2.984  0.00  0.00    +0.000 A 
ENDBRANCH  21  25
ENDBRANCH   6  21
TORSDOF 6
ENDMDL
MODEL 2
REMARK VINA RESULT:      -5.6      5.546      9.777
REMARK  Name = 10288191_Binimetinib.pdbqt.pdb
REMARK  6 active torsions:
REMARK  status: ('A' for Active; 'I' for Inactive)
REMARK    1  A    between atoms: C_6  and  N_21
REMARK    2  A    between atoms: C_7  and  C_14
REMARK    3  A    between atoms: N_13  and  O_16
REMARK    4  A    between atoms: O_16  and  C_17
REMARK    5  A    between atoms: C_18  and  O_19
REMARK    6  A    between atoms: N_21  and  C_25
REMARK                            x       y       z     vdW  Elec       q    Type
REMARK                         _______ _______ _______ _____ _____    ______ ____
ROOT
ATOM      1  F   UNL     1     -15.027  43.124   3.616  0.00  0.00    +0.000 F 
ATOM      2  N   UNL     1     -16.862  45.078  -0.023  0.00  0.00    +0.000 N 
ATOM      3  N   UNL     1     -15.034  44.249   0.894  0.00  0.00    +0.000 NA
ATOM      4  C   UNL     1     -17.265  44.639   1.204  0.00  0.00    +0.000 A 
ATOM      5  C   UNL     1     -16.102  44.117   1.762  0.00  0.00    +0.000 A 
ATOM      6  C   UNL     1     -17.380  43.532   3.779  0.00  0.00    +0.000 A 
ATOM      7  C   UNL     1     -18.535  44.091   3.170  0.00  0.00    +0.000 A 
ATOM      8  C   UNL     1     -18.488  44.648   1.879  0.00  0.00    +0.000 A 
ATOM      9  C   UNL     1     -16.164  43.565   3.056  0.00  0.00    +0.000 A 
ATOM     10  C   UNL     1     -15.531  44.833  -0.180  0.00  0.00    +0.000 A 
ATOM     11  C   UNL     1     -17.702  45.683  -1.004  0.00  0.00    +0.000 C 
ENDROOT
BRANCH   7  14
ATOM     12  O   UNL     1     -20.508  43.110   4.013  0.00  0.00    +0.000 OA
ATOM     13  N   UNL     1     -20.239  45.369   4.376  0.00  0.00    +0.000 N 
ATOM     14  C   UNL     1     -19.848  44.138   3.889  0.00  0.00    +0.000 C 
ATOM     15  H   UNL     1     -19.899  46.235   3.976  0.00  0.00    +0.000 HD
BRANCH  13  16
ATOM     16  O   UNL     1     -21.590  45.417   4.785  0.00  0.00    +0.000 OA
BRANCH  16  17
ATOM     17  C   UNL     1     -21.840  46.687   5.098  0.00  0.00    +0.000 C 
ATOM     18  C   UNL     1     -22.121  48.152   5.448  0.00  0.00    +0.000 C 
BRANCH  18  19
ATOM     19  O   UNL     1     -22.361  49.425   5.743  0.00  0.00    +0.000 OA
ATOM     20  H   UNL     1     -21.806  49.706   6.491  0.00  0.00    +0.000 HD
ENDBRANCH  18  19
ENDBRANCH  16  17
ENDBRANCH  13  16
ENDBRANCH   7  14
BRANCH   6  21
ATOM     21  N   UNL     1     -17.464  42.935   5.063  0.00  0.00    +0.000 N 
ATOM     22  H   UNL     1     -17.948  43.527   5.756  0.00  0.00    +0.000 HD
BRANCH  21  25
ATOM     23 BR   UNL     1     -17.110  37.071   6.698  0.00  0.00    +0.000 Br
ATOM     24  F   UNL     1     -15.163  41.841   6.119  0.00  0.00    +0.000 F 
ATOM     25  C   UNL     1     -17.429  41.584   5.468  0.00  0.00    +0.000 A 
ATOM     26  C   UNL     1     -16.235  41.046   5.977  0.00  0.00    +0.000 A 
ATOM     27  C   UNL     1     -18.513  40.716   5.319  0.00  0.00    +0.000 A 
ATOM     28  C   UNL     1     -16.127  39.710   6.348  0.00  0.00    +0.000 A 
ATOM     29  C   UNL     1     -18.425  39.374   5.686  0.00  0.00    +0.000 A 
ATOM     30  C   UNL     1     -17.231  38.882   6.199  0.00  0.00    +0.000 A 
ENDBRANCH  21  25
ENDBRANCH   6  21
TORSDOF 6
ENDMDL
MODEL 3
REMARK VINA RESULT:      -5.4      2.976      5.775
REMARK  Name = 10288191_Binimetinib.pdbqt.pdb
REMARK  6 active torsions:
REMARK  status: ('A' for Active; 'I' for Inactive)
REMARK    1  A    between atoms: C_6  and  N_21
REMARK    2  A    between atoms: C_7  and  C_14
REMARK    3  A    between atoms: N_13  and  O_16
REMARK    4  A    between atoms: O_16  and  C_17
REMARK    5  A    between atoms: C_18  and  O_19
REMARK    6  A    between atoms: N_21  and  C_25
REMARK                            x       y       z     vdW  Elec       q    Type
REMARK                         _______ _______ _______ _____ _____    ______ ____
ROOT
ATOM      1  F   UNL     1     -19.608  40.627   6.432  0.00  0.00    +0.000 F 
ATOM      2  N   UNL     1     -16.334  42.665   4.074  0.00  0.00    +0.000 N 
ATOM      3  N   UNL     1     -18.344  42.847   4.966  0.00  0.00    +0.000 NA
ATOM      4  C   UNL     1     -16.550  41.460   4.678  0.00  0.00    +0.000 A 
ATOM      5  C   UNL     1     -17.817  41.598   5.237  0.00  0.00    +0.000 A 
ATOM      6  C   UNL     1     -17.636  39.307   6.110  0.00  0.00    +0.000 A 
ATOM      7  C   UNL     1     -16.354  39.214   5.508  0.00  0.00    +0.000 A 
ATOM      8  C   UNL     1     -15.800  40.288   4.788  0.00  0.00    +0.000 A 
ATOM      9  C   UNL     1     -18.359  40.513   5.952  0.00  0.00    +0.000 A 
ATOM     10  C   UNL     1     -17.418  43.469   4.262  0.00  0.00    +0.000 A 
ATOM     11  C   UNL     1     -15.152  43.040   3.371  0.00  0.00    +0.000 C 
ENDROOT
BRANCH   7  14
ATOM     12  O   UNL     1     -14.914  37.704   6.611  0.00  0.00    +0.000 OA
ATOM     13  N   UNL     1     -15.567  37.138   4.475  0.00  0.00    +0.000 N 
ATOM     14  C   UNL     1     -15.547  37.954   5.588  0.00  0.00    +0.000 C 
ATOM     15  H   UNL     1     -15.773  37.498   3.551  0.00  0.00    +0.000 HD
BRANCH  13  16
ATOM     16  O   UNL     1     -14.582  36.127   4.491  0.00  0.00    +0.000 OA
BRANCH  16  17
ATOM     17  C   UNL     1     -15.236  34.968   4.434  0.00  0.00    +0.000 C 
ATOM     18  C   UNL     1     -15.980  33.630   4.378  0.00  0.00    +0.000 C 
BRANCH  18  19
ATOM     19  O   UNL     1     -16.622  32.467   4.337  0.00  0.00    +0.000 OA
ATOM     20  H   UNL     1     -16.771  32.199   3.414  0.00  0.00    +0.000 HD
ENDBRANCH  18  19
ENDBRANCH  16  17
ENDBRANCH  13  16
ENDBRANCH   7  14
BRANCH   6  21
ATOM     21  N   UNL     1     -18.153  38.226   6.869  0.00  0.00    +0.000 N 
ATOM     22  H   UNL     1     -17.836  38.231   7.851  0.00  0.00    +0.000 HD
BRANCH  21  25
ATOM     23 BR   UNL     1     -23.158  34.777   6.372  0.00  0.00    +0.000 Br
ATOM     24  F   UNL     1     -20.348  38.580   8.501  0.00  0.00    +0.000 F 
ATOM     25  C   UNL     1     -19.310  37.437   6.700  0.00  0.00    +0.000 A 
ATOM     26  C   UNL     1     -20.403  37.619   7.563  0.00  0.00    +0.000 A 
ATOM     27  C   UNL     1     -19.403  36.413   5.754  0.00  0.00    +0.000 A 
ATOM     28  C   UNL     1     -21.552  36.840   7.476  0.00  0.00    +0.000 A 
ATOM     29  C   UNL     1     -20.546  35.622   5.650  0.00  0.00    +0.000 A 
ATOM     30  C   UNL     1     -21.613  35.843   6.512  0.00  0.00    +0.000 A 
ENDBRANCH  21  25
ENDBRANCH   6  21
TORSDOF 6
ENDMDL
MODEL 4
REMARK VINA RESULT:      -5.3     25.147     27.526
REMARK  Name = 10288191_Binimetinib.pdbqt.pdb
REMARK  6 active torsions:
REMARK  status: ('A' for Active; 'I' for Inactive)
REMARK    1  A    between atoms: C_6  and  N_21
REMARK    2  A    between atoms: C_7  and  C_14
REMARK    3  A    between atoms: N_13  and  O_16
REMARK    4  A    between atoms: O_16  and  C_17
REMARK    5  A    between atoms: C_18  and  O_19
REMARK    6  A    between atoms: N_21  and  C_25
REMARK                            x       y       z     vdW  Elec       q    Type
REMARK                         _______ _______ _______ _____ _____    ______ ____
ROOT
ATOM      1  F   UNL     1      11.353  44.430   9.448  0.00  0.00    +0.000 F 
ATOM      2  N   UNL     1       8.809  48.127   8.909  0.00  0.00    +0.000 N 
ATOM      3  N   UNL     1      10.477  47.186  10.005  0.00  0.00    +0.000 NA
ATOM      4  C   UNL     1       8.926  46.885   8.353  0.00  0.00    +0.000 A 
ATOM      5  C   UNL     1       9.983  46.312   9.054  0.00  0.00    +0.000 A 
ATOM      6  C   UNL     1       9.724  44.277   7.701  0.00  0.00    +0.000 A 
ATOM      7  C   UNL     1       8.642  44.902   7.026  0.00  0.00    +0.000 A 
ATOM      8  C   UNL     1       8.234  46.210   7.346  0.00  0.00    +0.000 A 
ATOM      9  C   UNL     1      10.378  45.002   8.725  0.00  0.00    +0.000 A 
ATOM     10  C   UNL     1       9.744  48.277   9.888  0.00  0.00    +0.000 A 
ATOM     11  C   UNL     1       7.870  49.125   8.516  0.00  0.00    +0.000 C 
ENDROOT
BRANCH   7  14
ATOM     12  O   UNL     1       8.262  44.214   4.801  0.00  0.00    +0.000 OA
ATOM     13  N   UNL     1       6.730  43.517   6.375  0.00  0.00    +0.000 N 
ATOM     14  C   UNL     1       7.868  44.183   5.964  0.00  0.00    +0.000 C 
ATOM     15  H   UNL     1       6.230  43.783   7.214  0.00  0.00    +0.000 HD
BRANCH  13  16
ATOM     16  O   UNL     1       5.896  43.105   5.313  0.00  0.00    +0.000 OA
BRANCH  16  17
ATOM     17  C   UNL     1       5.838  41.777   5.379  0.00  0.00    +0.000 C 
ATOM     18  C   UNL     1       5.778  40.248   5.467  0.00  0.00    +0.000 C 
BRANCH  18  19
ATOM     19  O   UNL     1       5.729  38.923   5.551  0.00  0.00    +0.000 OA
ATOM     20  H   UNL     1       6.629  38.556   5.575  0.00  0.00    +0.000 HD
ENDBRANCH  18  19
ENDBRANCH  16  17
ENDBRANCH  13  16
ENDBRANCH   7  14
BRANCH   6  21
ATOM     21  N   UNL     1      10.145  42.975   7.328  0.00  0.00    +0.000 N 
ATOM     22  H   UNL     1      10.902  42.977   6.626  0.00  0.00    +0.000 HD
BRANCH  21  25
ATOM     23 BR   UNL     1      10.015  37.568  10.145  0.00  0.00    +0.000 Br
ATOM     24  F   UNL     1      12.398  41.851   8.455  0.00  0.00    +0.000 F 
ATOM     25  C   UNL     1      10.071  41.741   8.008  0.00  0.00    +0.000 A 
ATOM     26  C   UNL     1      11.240  41.178   8.548  0.00  0.00    +0.000 A 
ATOM     27  C   UNL     1       8.894  40.996   8.109  0.00  0.00    +0.000 A 
ATOM     28  C   UNL     1      11.237  39.943   9.187  0.00  0.00    +0.000 A 
ATOM     29  C   UNL     1       8.871  39.756   8.747  0.00  0.00    +0.000 A 
ATOM     30  C   UNL     1      10.044  39.240   9.282  0.00  0.00    +0.000 A 
ENDBRANCH  21  25
ENDBRANCH   6  21
TORSDOF 6
ENDMDL
MODEL 5
REMARK VINA RESULT:      -5.2     13.493     15.271
REMARK  Name = 10288191_Binimetinib.pdbqt.pdb
REMARK  6 active torsions:
REMARK  status: ('A' for Active; 'I' for Inactive)
REMARK    1  A    between atoms: C_6  and  N_21
REMARK    2  A    between atoms: C_7  and  C_14
REMARK    3  A    between atoms: N_13  and  O_16
REMARK    4  A    between atoms: O_16  and  C_17
REMARK    5  A    between atoms: C_18  and  O_19
REMARK    6  A    between atoms: N_21  and  C_25
REMARK                            x       y       z     vdW  Elec       q    Type
REMARK                         _______ _______ _______ _____ _____    ______ ____
ROOT
ATOM      1  F   UNL     1     -27.282  42.515  12.711  0.00  0.00    +0.000 F 
ATOM      2  N   UNL     1     -25.517  46.084  10.570  0.00  0.00    +0.000 N 
ATOM      3  N   UNL     1     -26.589  44.165  10.371  0.00  0.00    +0.000 NA
ATOM      4  C   UNL     1     -25.675  45.646  11.854  0.00  0.00    +0.000 A 
ATOM      5  C   UNL     1     -26.354  44.441  11.706  0.00  0.00    +0.000 A 
ATOM      6  C   UNL     1     -26.344  44.182  14.150  0.00  0.00    +0.000 A 
ATOM      7  C   UNL     1     -25.638  45.410  14.245  0.00  0.00    +0.000 A 
ATOM      8  C   UNL     1     -25.297  46.152  13.099  0.00  0.00    +0.000 A 
ATOM      9  C   UNL     1     -26.686  43.708  12.862  0.00  0.00    +0.000 A 
ATOM     10  C   UNL     1     -26.070  45.183   9.711  0.00  0.00    +0.000 A 
ATOM     11  C   UNL     1     -24.890  47.304  10.182  0.00  0.00    +0.000 C 
ENDROOT
BRANCH   7  14
ATOM     12  O   UNL     1     -26.022  46.482  16.312  0.00  0.00    +0.000 OA
ATOM     13  N   UNL     1     -23.858  45.825  15.874  0.00  0.00    +0.000 N 
ATOM     14  C   UNL     1     -25.198  45.955  15.569  0.00  0.00    +0.000 C 
ATOM     15  H   UNL     1     -23.153  45.733  15.153  0.00  0.00    +0.000 HD
BRANCH  13  16
ATOM     16  O   UNL     1     -23.449  46.595  16.984  0.00  0.00    +0.000 OA
BRANCH  16  17
ATOM     17  C   UNL     1     -22.924  45.739  17.858  0.00  0.00    +0.000 C 
ATOM     18  C   UNL     1     -22.318  44.764  18.874  0.00  0.00    +0.000 C 
BRANCH  18  19
ATOM     19  O   UNL     1     -21.793  43.925  19.760  0.00  0.00    +0.000 OA
ATOM     20  H   UNL     1     -22.499  43.441  20.221  0.00  0.00    +0.000 HD
ENDBRANCH  18  19
ENDBRANCH  16  17
ENDBRANCH  13  16
ENDBRANCH   7  14
BRANCH   6  21
ATOM     21  N   UNL     1     -26.716  43.476  15.323  0.00  0.00    +0.000 N 
ATOM     22  H   UNL     1     -27.695  43.642  15.605  0.00  0.00    +0.000 HD
BRANCH  21  25
ATOM     23 BR   UNL     1     -24.277  38.503  17.875  0.00  0.00    +0.000 Br
ATOM     24  F   UNL     1     -25.276  43.587  17.673  0.00  0.00    +0.000 F 
ATOM     25  C   UNL     1     -26.200  42.300  15.907  0.00  0.00    +0.000 A 
ATOM     26  C   UNL     1     -25.446  42.389  17.090  0.00  0.00    +0.000 A 
ATOM     27  C   UNL     1     -26.334  41.038  15.325  0.00  0.00    +0.000 A 
ATOM     28  C   UNL     1     -24.873  41.271  17.686  0.00  0.00    +0.000 A 
ATOM     29  C   UNL     1     -25.767  39.905  15.907  0.00  0.00    +0.000 A 
ATOM     30  C   UNL     1     -25.041  40.031  17.085  0.00  0.00    +0.000 A 
ENDBRANCH  21  25
ENDBRANCH   6  21
TORSDOF 6
ENDMDL
MODEL 6
REMARK VINA RESULT:      -5.2     22.878     25.396
REMARK  Name = 10288191_Binimetinib.pdbqt.pdb
REMARK  6 active torsions:
REMARK  status: ('A' for Active; 'I' for Inactive)
REMARK    1  A    between atoms: C_6  and  N_21
REMARK    2  A    between atoms: C_7  and  C_14
REMARK    3  A    between atoms: N_13  and  O_16
REMARK    4  A    between atoms: O_16  and  C_17
REMARK    5  A    between atoms: C_18  and  O_19
REMARK    6  A    between atoms: N_21  and  C_25
REMARK                            x       y       z     vdW  Elec       q    Type
REMARK                         _______ _______ _______ _____ _____    ______ ____
ROOT
ATOM      1  F   UNL     1       5.480  43.080   4.944  0.00  0.00    +0.000 F 
ATOM      2  N   UNL     1       9.055  44.732   7.162  0.00  0.00    +0.000 N 
ATOM      3  N   UNL     1       7.304  45.187   5.898  0.00  0.00    +0.000 NA
ATOM      4  C   UNL     1       8.457  43.522   6.959  0.00  0.00    +0.000 A 
ATOM      5  C   UNL     1       7.357  43.831   6.166  0.00  0.00    +0.000 A 
ATOM      6  C   UNL     1       6.746  41.450   6.157  0.00  0.00    +0.000 A 
ATOM      7  C   UNL     1       7.891  41.187   6.955  0.00  0.00    +0.000 A 
ATOM      8  C   UNL     1       8.756  42.219   7.362  0.00  0.00    +0.000 A 
ATOM      9  C   UNL     1       6.502  42.787   5.763  0.00  0.00    +0.000 A 
ATOM     10  C   UNL     1       8.347  45.703   6.520  0.00  0.00    +0.000 A 
ATOM     11  C   UNL     1      10.227  44.957   7.943  0.00  0.00    +0.000 C 
ENDROOT
BRANCH   7  14
ATOM     12  O   UNL     1       7.360  39.033   7.761  0.00  0.00    +0.000 OA
ATOM     13  N   UNL     1       9.578  39.444   7.290  0.00  0.00    +0.000 N 
ATOM     14  C   UNL     1       8.244  39.792   7.372  0.00  0.00    +0.000 C 
ATOM     15  H   UNL     1      10.314  40.139   7.323  0.00  0.00    +0.000 HD
BRANCH  13  16
ATOM     16  O   UNL     1       9.894  38.239   7.953  0.00  0.00    +0.000 OA
BRANCH  16  17
ATOM     17  C   UNL     1      10.557  38.582   9.056  0.00  0.00    +0.000 C 
ATOM     18  C   UNL     1      11.311  38.988  10.327  0.00  0.00    +0.000 C 
BRANCH  18  19
ATOM     19  O   UNL     1      11.959  39.346  11.430  0.00  0.00    +0.000 OA
ATOM     20  H   UNL     1      11.329  39.497  12.154  0.00  0.00    +0.000 HD
ENDBRANCH  18  19
ENDBRANCH  16  17
ENDBRANCH  13  16
ENDBRANCH   7  14
BRANCH   6  21
ATOM     21  N   UNL     1       5.864  40.398   5.798  0.00  0.00    +0.000 N 
ATOM     22  H   UNL     1       4.982  40.406   6.333  0.00  0.00    +0.000 HD
BRANCH  21  25
ATOM     23 BR   UNL     1       5.115  37.130   0.704  0.00  0.00    +0.000 Br
ATOM     24  F   UNL     1       3.875  40.960   3.972  0.00  0.00    +0.000 F 
ATOM     25  C   UNL     1       5.745  39.646   4.610  0.00  0.00    +0.000 A 
ATOM     26  C   UNL     1       4.705  39.937   3.711  0.00  0.00    +0.000 A 
ATOM     27  C   UNL     1       6.570  38.561   4.308  0.00  0.00    +0.000 A 
ATOM     28  C   UNL     1       4.508  39.200   2.547  0.00  0.00    +0.000 A 
ATOM     29  C   UNL     1       6.390  37.811   3.146  0.00  0.00    +0.000 A 
ATOM     30  C   UNL     1       5.359  38.139   2.274  0.00  0.00    +0.000 A 
ENDBRANCH  21  25
ENDBRANCH   6  21
TORSDOF 6
ENDMDL
MODEL 7
REMARK VINA RESULT:      -5.1     15.554     17.979
REMARK  Name = 10288191_Binimetinib.pdbqt.pdb
REMARK  6 active torsions:
REMARK  status: ('A' for Active; 'I' for Inactive)
REMARK    1  A    between atoms: C_6  and  N_21
REMARK    2  A    between atoms: C_7  and  C_14
REMARK    3  A    between atoms: N_13  and  O_16
REMARK    4  A    between atoms: O_16  and  C_17
REMARK    5  A    between atoms: C_18  and  O_19
REMARK    6  A    between atoms: N_21  and  C_25
REMARK                            x       y       z     vdW  Elec       q    Type
REMARK                         _______ _______ _______ _____ _____    ______ ____
ROOT
ATOM      1  F   UNL     1     -20.378  29.602  20.888  0.00  0.00    +0.000 F 
ATOM      2  N   UNL     1     -18.943  26.418  23.757  0.00  0.00    +0.000 N 
ATOM      3  N   UNL     1     -20.446  27.981  23.346  0.00  0.00    +0.000 NA
ATOM      4  C   UNL     1     -18.595  26.913  22.534  0.00  0.00    +0.000 A 
ATOM      5  C   UNL     1     -19.555  27.891  22.292  0.00  0.00    +0.000 A 
ATOM      6  C   UNL     1     -18.479  28.356  20.132  0.00  0.00    +0.000 A 
ATOM      7  C   UNL     1     -17.515  27.358  20.434  0.00  0.00    +0.000 A 
ATOM      8  C   UNL     1     -17.565  26.628  21.636  0.00  0.00    +0.000 A 
ATOM      9  C   UNL     1     -19.491  28.615  21.086  0.00  0.00    +0.000 A 
ATOM     10  C   UNL     1     -20.047  27.073  24.215  0.00  0.00    +0.000 A 
ATOM     11  C   UNL     1     -18.273  25.365  24.447  0.00  0.00    +0.000 C 
ENDROOT
BRANCH   7  14
ATOM     12  O   UNL     1     -16.619  26.530  18.413  0.00  0.00    +0.000 OA
ATOM     13  N   UNL     1     -15.120  27.406  19.928  0.00  0.00    +0.000 N 
ATOM     14  C   UNL     1     -16.385  27.059  19.497  0.00  0.00    +0.000 C 
ATOM     15  H   UNL     1     -14.896  27.494  20.911  0.00  0.00    +0.000 HD
BRANCH  13  16
ATOM     16  O   UNL     1     -14.081  26.853  19.148  0.00  0.00    +0.000 OA
BRANCH  16  17
ATOM     17  C   UNL     1     -13.536  25.887  19.885  0.00  0.00    +0.000 C 
ATOM     18  C   UNL     1     -12.919  24.777  20.742  0.00  0.00    +0.000 C 
BRANCH  18  19
ATOM     19  O   UNL     1     -12.390  23.815  21.491  0.00  0.00    +0.000 OA
ATOM     20  H   UNL     1     -11.425  23.927  21.548  0.00  0.00    +0.000 HD
ENDBRANCH  18  19
ENDBRANCH  16  17
ENDBRANCH  13  16
ENDBRANCH   7  14
BRANCH   6  21
ATOM     21  N   UNL     1     -18.433  29.046  18.893  0.00  0.00    +0.000 N 
ATOM     22  H   UNL     1     -17.507  29.452  18.688  0.00  0.00    +0.000 HD
BRANCH  21  25
ATOM     23 BR   UNL     1     -21.912  28.714  13.895  0.00  0.00    +0.000 Br
ATOM     24  F   UNL     1     -18.639  31.137  17.106  0.00  0.00    +0.000 F 
ATOM     25  C   UNL     1     -19.216  28.921  17.726  0.00  0.00    +0.000 A 
ATOM     26  C   UNL     1     -19.325  30.011  16.847  0.00  0.00    +0.000 A 
ATOM     27  C   UNL     1     -19.962  27.779  17.428  0.00  0.00    +0.000 A 
ATOM     28  C   UNL     1     -20.119  29.963  15.706  0.00  0.00    +0.000 A 
ATOM     29  C   UNL     1     -20.763  27.710  16.289  0.00  0.00    +0.000 A 
ATOM     30  C   UNL     1     -20.833  28.805  15.435  0.00  0.00    +0.000 A 
ENDBRANCH  21  25
ENDBRANCH   6  21
TORSDOF 6
ENDMDL
MODEL 8
REMARK VINA RESULT:      -5.0      4.422      7.312
REMARK  Name = 10288191_Binimetinib.pdbqt.pdb
REMARK  6 active torsions:
REMARK  status: ('A' for Active; 'I' for Inactive)
REMARK    1  A    between atoms: C_6  and  N_21
REMARK    2  A    between atoms: C_7  and  C_14
REMARK    3  A    between atoms: N_13  and  O_16
REMARK    4  A    between atoms: O_16  and  C_17
REMARK    5  A    between atoms: C_18  and  O_19
REMARK    6  A    between atoms: N_21  and  C_25
REMARK                            x       y       z     vdW  Elec       q    Type
REMARK                         _______ _______ _______ _____ _____    ______ ____
ROOT
ATOM      1  F   UNL     1     -21.965  35.129   7.204  0.00  0.00    +0.000 F 
ATOM      2  N   UNL     1     -22.744  39.140   5.271  0.00  0.00    +0.000 N 
ATOM      3  N   UNL     1     -23.610  37.230   5.959  0.00  0.00    +0.000 NA
ATOM      4  C   UNL     1     -21.688  38.459   5.806  0.00  0.00    +0.000 A 
ATOM      5  C   UNL     1     -22.256  37.263   6.236  0.00  0.00    +0.000 A 
ATOM      6  C   UNL     1     -20.045  36.549   7.037  0.00  0.00    +0.000 A 
ATOM      7  C   UNL     1     -19.513  37.779   6.567  0.00  0.00    +0.000 A 
ATOM      8  C   UNL     1     -20.329  38.743   5.948  0.00  0.00    +0.000 A 
ATOM      9  C   UNL     1     -21.426  36.306   6.851  0.00  0.00    +0.000 A 
ATOM     10  C   UNL     1     -23.873  38.385   5.376  0.00  0.00    +0.000 A 
ATOM     11  C   UNL     1     -22.686  40.448   4.707  0.00  0.00    +0.000 C 
ENDROOT
BRANCH   7  14
ATOM     12  O   UNL     1     -17.320  37.335   7.318  0.00  0.00    +0.000 OA
ATOM     13  N   UNL     1     -17.615  39.237   6.052  0.00  0.00    +0.000 N 
ATOM     14  C   UNL     1     -18.052  38.090   6.683  0.00  0.00    +0.000 C 
ATOM     15  H   UNL     1     -18.239  40.010   5.855  0.00  0.00    +0.000 HD
BRANCH  13  16
ATOM     16  O   UNL     1     -16.311  39.631   6.425  0.00  0.00    +0.000 OA
BRANCH  16  17
ATOM     17  C   UNL     1     -16.185  40.902   6.051  0.00  0.00    +0.000 C 
ATOM     18  C   UNL     1     -16.047  42.370   5.632  0.00  0.00    +0.000 C 
BRANCH  18  19
ATOM     19  O   UNL     1     -15.931  43.645   5.276  0.00  0.00    +0.000 OA
ATOM     20  H   UNL     1     -16.754  44.123   5.471  0.00  0.00    +0.000 HD
ENDBRANCH  18  19
ENDBRANCH  16  17
ENDBRANCH  13  16
ENDBRANCH   7  14
BRANCH   6  21
ATOM     21  N   UNL     1     -19.210  35.612   7.699  0.00  0.00    +0.000 N 
ATOM     22  H   UNL     1     -19.037  35.850   8.688  0.00  0.00    +0.000 HD
BRANCH  21  25
ATOM     23 BR   UNL     1     -18.115  29.769   6.340  0.00  0.00    +0.000 Br
ATOM     24  F   UNL     1     -17.713  34.871   5.505  0.00  0.00    +0.000 F 
ATOM     25  C   UNL     1     -18.942  34.252   7.437  0.00  0.00    +0.000 A 
ATOM     26  C   UNL     1     -18.200  33.902   6.297  0.00  0.00    +0.000 A 
ATOM     27  C   UNL     1     -19.447  33.212   8.220  0.00  0.00    +0.000 A 
ATOM     28  C   UNL     1     -17.945  32.576   5.961  0.00  0.00    +0.000 A 
ATOM     29  C   UNL     1     -19.201  31.877   7.900  0.00  0.00    +0.000 A 
ATOM     30  C   UNL     1     -18.450  31.570   6.772  0.00  0.00    +0.000 A 
ENDBRANCH  21  25
ENDBRANCH   6  21
TORSDOF 6
ENDMDL
MODEL 9
REMARK VINA RESULT:      -5.0     31.380     32.633
REMARK  Name = 10288191_Binimetinib.pdbqt.pdb
REMARK  6 active torsions:
REMARK  status: ('A' for Active; 'I' for Inactive)
REMARK    1  A    between atoms: C_6  and  N_21
REMARK    2  A    between atoms: C_7  and  C_14
REMARK    3  A    between atoms: N_13  and  O_16
REMARK    4  A    between atoms: O_16  and  C_17
REMARK    5  A    between atoms: C_18  and  O_19
REMARK    6  A    between atoms: N_21  and  C_25
REMARK                            x       y       z     vdW  Elec       q    Type
REMARK                         _______ _______ _______ _____ _____    ______ ____
ROOT
ATOM      1  F   UNL     1       9.145  30.089  22.565  0.00  0.00    +0.000 F 
ATOM      2  N   UNL     1       9.385  34.490  23.567  0.00  0.00    +0.000 N 
ATOM      3  N   UNL     1       8.378  32.566  23.961  0.00  0.00    +0.000 NA
ATOM      4  C   UNL     1      10.031  33.595  22.763  0.00  0.00    +0.000 A 
ATOM      5  C   UNL     1       9.385  32.392  23.030  0.00  0.00    +0.000 A 
ATOM      6  C   UNL     1      10.881  31.281  21.427  0.00  0.00    +0.000 A 
ATOM      7  C   UNL     1      11.496  32.536  21.180  0.00  0.00    +0.000 A 
ATOM      8  C   UNL     1      11.078  33.703  21.845  0.00  0.00    +0.000 A 
ATOM      9  C   UNL     1       9.814  31.233  22.354  0.00  0.00    +0.000 A 
ATOM     10  C   UNL     1       8.408  33.850  24.266  0.00  0.00    +0.000 A 
ATOM     11  C   UNL     1       9.693  35.877  23.677  0.00  0.00    +0.000 C 
ENDROOT
BRANCH   7  14
ATOM     12  O   UNL     1      13.611  31.991  20.287  0.00  0.00    +0.000 OA
ATOM     13  N   UNL     1      12.400  33.600  19.168  0.00  0.00    +0.000 N 
ATOM     14  C   UNL     1      12.600  32.678  20.176  0.00  0.00    +0.000 C 
ATOM     15  H   UNL     1      11.771  34.385  19.279  0.00  0.00    +0.000 HD
BRANCH  13  16
ATOM     16  O   UNL     1      13.566  33.897  18.429  0.00  0.00    +0.000 OA
BRANCH  16  17
ATOM     17  C   UNL     1      13.173  34.078  17.170  0.00  0.00    +0.000 C 
ATOM     18  C   UNL     1      12.732  34.281  15.716  0.00  0.00    +0.000 C 
BRANCH  18  19
ATOM     19  O   UNL     1      12.357  34.453  14.454  0.00  0.00    +0.000 OA
ATOM     20  H   UNL     1      12.074  33.606  14.070  0.00  0.00    +0.000 HD
ENDBRANCH  18  19
ENDBRANCH  16  17
ENDBRANCH  13  16
ENDBRANCH   7  14
BRANCH   6  21
ATOM     21  N   UNL     1      11.352  30.111  20.777  0.00  0.00    +0.000 N 
ATOM     22  H   UNL     1      12.139  29.661  21.270  0.00  0.00    +0.000 HD
BRANCH  21  25
ATOM     23 BR   UNL     1       8.470  26.429  16.862  0.00  0.00    +0.000 Br
ATOM     24  F   UNL     1      10.880  30.834  18.157  0.00  0.00    +0.000 F 
ATOM     25  C   UNL     1      10.718  29.218  19.887  0.00  0.00    +0.000 A 
ATOM     26  C   UNL     1      10.465  29.623  18.566  0.00  0.00    +0.000 A 
ATOM     27  C   UNL     1      10.251  27.961  20.274  0.00  0.00    +0.000 A 
ATOM     28  C   UNL     1       9.802  28.805  17.657  0.00  0.00    +0.000 A 
ATOM     29  C   UNL     1       9.585  27.125  19.377  0.00  0.00    +0.000 A 
ATOM     30  C   UNL     1       9.366  27.556  18.074  0.00  0.00    +0.000 A 
ENDBRANCH  21  25
ENDBRANCH   6  21
TORSDOF 6
ENDMDL
