MODEL 1
REMARK VINA RESULT:      -5.1      0.000      0.000
REMARK  Name = 10281_Thymoquinone.pdbqt.pdb
REMARK  1 active torsions:
REMARK  status: ('A' for Active; 'I' for Inactive)
REMARK    1  A    between atoms: C_3  and  C_10
REMARK                            x       y       z     vdW  Elec       q    Type
REMARK                         _______ _______ _______ _____ _____    ______ ____
ROOT
ATOM      1  O   UNL     1      -5.932  45.083  27.980  0.00  0.00    +0.000 OA
ATOM      2  O   UNL     1      -7.836  48.524  24.309  0.00  0.00    +0.000 OA
ATOM      3  C   UNL     1      -5.553  46.194  25.865  0.00  0.00    +0.000 C 
ATOM      4  C   UNL     1      -6.308  45.851  27.116  0.00  0.00    +0.000 C 
ATOM      5  C   UNL     1      -6.220  47.050  25.131  0.00  0.00    +0.000 C 
ATOM      6  C   UNL     1      -8.253  47.405  26.477  0.00  0.00    +0.000 C 
ATOM      7  C   UNL     1      -7.497  47.764  25.196  0.00  0.00    +0.000 C 
ATOM      8  C   UNL     1      -7.584  46.551  27.203  0.00  0.00    +0.000 C 
ATOM      9  C   UNL     1      -9.587  47.933  26.895  0.00  0.00    +0.000 C 
ENDROOT
BRANCH   3  10
ATOM     10  C   UNL     1      -4.283  45.606  25.598  0.00  0.00    +0.000 C 
ATOM     11  C   UNL     1      -3.020  46.225  26.146  0.00  0.00    +0.000 C 
ATOM     12  C   UNL     1      -4.182  44.169  25.146  0.00  0.00    +0.000 C 
ENDBRANCH   3  10
TORSDOF 1
ENDMDL
MODEL 2
REMARK VINA RESULT:      -4.9      1.636      4.611
REMARK  Name = 10281_Thymoquinone.pdbqt.pdb
REMARK  1 active torsions:
REMARK  status: ('A' for Active; 'I' for Inactive)
REMARK    1  A    between atoms: C_3  and  C_10
REMARK                            x       y       z     vdW  Elec       q    Type
REMARK                         _______ _______ _______ _____ _____    ______ ____
ROOT
ATOM      1  O   UNL     1      -5.956  49.220  26.595  0.00  0.00    +0.000 OA
ATOM      2  O   UNL     1      -3.992  44.398  25.241  0.00  0.00    +0.000 OA
ATOM      3  C   UNL     1      -6.427  47.033  25.674  0.00  0.00    +0.000 C 
ATOM      4  C   UNL     1      -5.572  48.114  26.270  0.00  0.00    +0.000 C 
ATOM      5  C   UNL     1      -5.724  45.955  25.430  0.00  0.00    +0.000 C 
ATOM      6  C   UNL     1      -3.477  46.626  26.189  0.00  0.00    +0.000 C 
ATOM      7  C   UNL     1      -4.336  45.514  25.579  0.00  0.00    +0.000 C 
ATOM      8  C   UNL     1      -4.184  47.697  26.429  0.00  0.00    +0.000 C 
ATOM      9  C   UNL     1      -2.016  46.549  26.493  0.00  0.00    +0.000 C 
ENDROOT
BRANCH   3  10
ATOM     10  C   UNL     1      -7.815  47.253  25.437  0.00  0.00    +0.000 C 
ATOM     11  C   UNL     1      -8.822  47.060  26.545  0.00  0.00    +0.000 C 
ATOM     12  C   UNL     1      -8.272  48.067  24.252  0.00  0.00    +0.000 C 
ENDBRANCH   3  10
TORSDOF 1
ENDMDL
MODEL 3
REMARK VINA RESULT:      -4.8      2.943      4.779
REMARK  Name = 10281_Thymoquinone.pdbqt.pdb
REMARK  1 active torsions:
REMARK  status: ('A' for Active; 'I' for Inactive)
REMARK    1  A    between atoms: C_3  and  C_10
REMARK                            x       y       z     vdW  Elec       q    Type
REMARK                         _______ _______ _______ _____ _____    ______ ____
ROOT
ATOM      1  O   UNL     1      -5.859  48.584  25.644  0.00  0.00    +0.000 OA
ATOM      2  O   UNL     1      -0.924  48.013  27.708  0.00  0.00    +0.000 OA
ATOM      3  C   UNL     1      -4.103  47.049  26.286  0.00  0.00    +0.000 C 
ATOM      4  C   UNL     1      -4.751  48.391  26.104  0.00  0.00    +0.000 C 
ATOM      5  C   UNL     1      -2.907  47.169  26.804  0.00  0.00    +0.000 C 
ATOM      6  C   UNL     1      -2.702  49.611  27.063  0.00  0.00    +0.000 C 
ATOM      7  C   UNL     1      -2.027  48.249  27.254  0.00  0.00    +0.000 C 
ATOM      8  C   UNL     1      -3.894  49.484  26.547  0.00  0.00    +0.000 C 
ATOM      9  C   UNL     1      -2.119  50.943  27.408  0.00  0.00    +0.000 C 
ENDROOT
BRANCH   3  10
ATOM     10  C   UNL     1      -4.785  45.856  25.907  0.00  0.00    +0.000 C 
ATOM     11  C   UNL     1      -4.128  44.856  24.987  0.00  0.00    +0.000 C 
ATOM     12  C   UNL     1      -5.959  45.354  26.712  0.00  0.00    +0.000 C 
ENDBRANCH   3  10
TORSDOF 1
ENDMDL
MODEL 4
REMARK VINA RESULT:      -4.7     20.992     22.454
REMARK  Name = 10281_Thymoquinone.pdbqt.pdb
REMARK  1 active torsions:
REMARK  status: ('A' for Active; 'I' for Inactive)
REMARK    1  A    between atoms: C_3  and  C_10
REMARK                            x       y       z     vdW  Elec       q    Type
REMARK                         _______ _______ _______ _____ _____    ______ ____
ROOT
ATOM      1  O   UNL     1     -27.093  35.811  20.032  0.00  0.00    +0.000 OA
ATOM      2  O   UNL     1     -22.083  37.445  18.946  0.00  0.00    +0.000 OA
ATOM      3  C   UNL     1     -24.943  35.240  19.081  0.00  0.00    +0.000 C 
ATOM      4  C   UNL     1     -25.950  36.122  19.761  0.00  0.00    +0.000 C 
ATOM      5  C   UNL     1     -23.800  35.860  18.927  0.00  0.00    +0.000 C 
ATOM      6  C   UNL     1     -24.271  38.061  19.928  0.00  0.00    +0.000 C 
ATOM      7  C   UNL     1     -23.233  37.174  19.235  0.00  0.00    +0.000 C 
ATOM      8  C   UNL     1     -25.407  37.438  20.079  0.00  0.00    +0.000 C 
ATOM      9  C   UNL     1     -24.063  39.465  20.396  0.00  0.00    +0.000 C 
ENDROOT
BRANCH   3  10
ATOM     10  C   UNL     1     -25.288  33.914  18.688  0.00  0.00    +0.000 C 
ATOM     11  C   UNL     1     -25.346  32.802  19.707  0.00  0.00    +0.000 C 
ATOM     12  C   UNL     1     -25.998  33.661  17.381  0.00  0.00    +0.000 C 
ENDBRANCH   3  10
TORSDOF 1
ENDMDL
MODEL 5
REMARK VINA RESULT:      -4.5      1.697      1.992
REMARK  Name = 10281_Thymoquinone.pdbqt.pdb
REMARK  1 active torsions:
REMARK  status: ('A' for Active; 'I' for Inactive)
REMARK    1  A    between atoms: C_3  and  C_10
REMARK                            x       y       z     vdW  Elec       q    Type
REMARK                         _______ _______ _______ _____ _____    ______ ____
ROOT
ATOM      1  O   UNL     1      -4.976  47.605  28.344  0.00  0.00    +0.000 OA
ATOM      2  O   UNL     1      -7.324  48.645  23.617  0.00  0.00    +0.000 OA
ATOM      3  C   UNL     1      -5.115  47.053  25.993  0.00  0.00    +0.000 C 
ATOM      4  C   UNL     1      -5.469  47.794  27.250  0.00  0.00    +0.000 C 
ATOM      5  C   UNL     1      -5.819  47.484  24.977  0.00  0.00    +0.000 C 
ATOM      6  C   UNL     1      -7.205  49.235  26.018  0.00  0.00    +0.000 C 
ATOM      7  C   UNL     1      -6.856  48.488  24.728  0.00  0.00    +0.000 C 
ATOM      8  C   UNL     1      -6.499  48.801  27.027  0.00  0.00    +0.000 C 
ATOM      9  C   UNL     1      -8.213  50.329  26.161  0.00  0.00    +0.000 C 
ENDROOT
BRANCH   3  10
ATOM     10  C   UNL     1      -4.128  46.025  26.010  0.00  0.00    +0.000 C 
ATOM     11  C   UNL     1      -4.469  44.626  25.559  0.00  0.00    +0.000 C 
ATOM     12  C   UNL     1      -2.660  46.371  26.062  0.00  0.00    +0.000 C 
ENDBRANCH   3  10
TORSDOF 1
ENDMDL
MODEL 6
REMARK VINA RESULT:      -4.3     19.848     21.323
REMARK  Name = 10281_Thymoquinone.pdbqt.pdb
REMARK  1 active torsions:
REMARK  status: ('A' for Active; 'I' for Inactive)
REMARK    1  A    between atoms: C_3  and  C_10
REMARK                            x       y       z     vdW  Elec       q    Type
REMARK                         _______ _______ _______ _____ _____    ______ ____
ROOT
ATOM      1  O   UNL     1     -26.139  37.417  17.642  0.00  0.00    +0.000 OA
ATOM      2  O   UNL     1     -24.218  40.923  21.241  0.00  0.00    +0.000 OA
ATOM      3  C   UNL     1     -24.351  37.959  19.178  0.00  0.00    +0.000 C 
ATOM      4  C   UNL     1     -25.654  38.170  18.463  0.00  0.00    +0.000 C 
ATOM      5  C   UNL     1     -24.099  38.946  20.001  0.00  0.00    +0.000 C 
ATOM      6  C   UNL     1     -26.064  40.398  19.679  0.00  0.00    +0.000 C 
ATOM      7  C   UNL     1     -24.737  40.197  20.416  0.00  0.00    +0.000 C 
ATOM      8  C   UNL     1     -26.309  39.411  18.860  0.00  0.00    +0.000 C 
ATOM      9  C   UNL     1     -26.999  41.553  19.838  0.00  0.00    +0.000 C 
ENDROOT
BRANCH   3  10
ATOM     10  C   UNL     1     -23.560  36.802  18.921  0.00  0.00    +0.000 C 
ATOM     11  C   UNL     1     -22.065  36.916  18.752  0.00  0.00    +0.000 C 
ATOM     12  C   UNL     1     -24.096  35.424  19.222  0.00  0.00    +0.000 C 
ENDBRANCH   3  10
TORSDOF 1
ENDMDL
MODEL 7
REMARK VINA RESULT:      -4.1     19.922     21.102
REMARK  Name = 10281_Thymoquinone.pdbqt.pdb
REMARK  1 active torsions:
REMARK  status: ('A' for Active; 'I' for Inactive)
REMARK    1  A    between atoms: C_3  and  C_10
REMARK                            x       y       z     vdW  Elec       q    Type
REMARK                         _______ _______ _______ _____ _____    ______ ____
ROOT
ATOM      1  O   UNL     1      -3.138  27.204  17.735  0.00  0.00    +0.000 OA
ATOM      2  O   UNL     1       1.335  28.685  20.331  0.00  0.00    +0.000 OA
ATOM      3  C   UNL     1      -0.828  27.895  17.546  0.00  0.00    +0.000 C 
ATOM      4  C   UNL     1      -2.099  27.544  18.264  0.00  0.00    +0.000 C 
ATOM      5  C   UNL     1       0.117  28.223  18.391  0.00  0.00    +0.000 C 
ATOM      6  C   UNL     1      -1.026  27.979  20.560  0.00  0.00    +0.000 C 
ATOM      7  C   UNL     1       0.277  28.341  19.842  0.00  0.00    +0.000 C 
ATOM      8  C   UNL     1      -1.964  27.654  19.712  0.00  0.00    +0.000 C 
ATOM      9  C   UNL     1      -1.251  27.979  22.037  0.00  0.00    +0.000 C 
ENDROOT
BRANCH   3  10
ATOM     10  C   UNL     1      -0.763  27.852  16.122  0.00  0.00    +0.000 C 
ATOM     11  C   UNL     1      -0.459  29.099  15.329  0.00  0.00    +0.000 C 
ATOM     12  C   UNL     1      -0.572  26.539  15.403  0.00  0.00    +0.000 C 
ENDBRANCH   3  10
TORSDOF 1
ENDMDL
MODEL 8
REMARK VINA RESULT:      -4.1      3.615      5.408
REMARK  Name = 10281_Thymoquinone.pdbqt.pdb
REMARK  1 active torsions:
REMARK  status: ('A' for Active; 'I' for Inactive)
REMARK    1  A    between atoms: C_3  and  C_10
REMARK                            x       y       z     vdW  Elec       q    Type
REMARK                         _______ _______ _______ _____ _____    ______ ____
ROOT
ATOM      1  O   UNL     1     -11.534  46.841  26.760  0.00  0.00    +0.000 OA
ATOM      2  O   UNL     1     -11.299  51.340  23.819  0.00  0.00    +0.000 OA
ATOM      3  C   UNL     1     -10.460  48.006  24.932  0.00  0.00    +0.000 C 
ATOM      4  C   UNL     1     -11.433  47.830  26.062  0.00  0.00    +0.000 C 
ATOM      5  C   UNL     1     -10.595  49.181  24.371  0.00  0.00    +0.000 C 
ATOM      6  C   UNL     1     -12.419  50.176  25.695  0.00  0.00    +0.000 C 
ATOM      7  C   UNL     1     -11.433  50.370  24.540  0.00  0.00    +0.000 C 
ATOM      8  C   UNL     1     -12.279  49.003  26.251  0.00  0.00    +0.000 C 
ATOM      9  C   UNL     1     -13.431  51.168  26.170  0.00  0.00    +0.000 C 
ENDROOT
BRANCH   3  10
ATOM     10  C   UNL     1      -9.549  46.964  24.590  0.00  0.00    +0.000 C 
ATOM     11  C   UNL     1      -9.826  46.056  23.418  0.00  0.00    +0.000 C 
ATOM     12  C   UNL     1      -8.125  46.996  25.089  0.00  0.00    +0.000 C 
ENDBRANCH   3  10
TORSDOF 1
ENDMDL
MODEL 9
REMARK VINA RESULT:      -4.0     11.081     12.072
REMARK  Name = 10281_Thymoquinone.pdbqt.pdb
REMARK  1 active torsions:
REMARK  status: ('A' for Active; 'I' for Inactive)
REMARK    1  A    between atoms: C_3  and  C_10
REMARK                            x       y       z     vdW  Elec       q    Type
REMARK                         _______ _______ _______ _____ _____    ______ ____
ROOT
ATOM      1  O   UNL     1      -3.100  41.477  35.537  0.00  0.00    +0.000 OA
ATOM      2  O   UNL     1      -0.015  38.490  32.297  0.00  0.00    +0.000 OA
ATOM      3  C   UNL     1      -2.802  39.346  34.433  0.00  0.00    +0.000 C 
ATOM      4  C   UNL     1      -2.446  40.754  34.812  0.00  0.00    +0.000 C 
ATOM      5  C   UNL     1      -1.899  38.829  33.637  0.00  0.00    +0.000 C 
ATOM      6  C   UNL     1      -0.290  40.682  33.414  0.00  0.00    +0.000 C 
ATOM      7  C   UNL     1      -0.639  39.245  33.017  0.00  0.00    +0.000 C 
ATOM      8  C   UNL     1      -1.194  41.191  34.206  0.00  0.00    +0.000 C 
ATOM      9  C   UNL     1       0.916  41.450  32.982  0.00  0.00    +0.000 C 
ENDROOT
BRANCH   3  10
ATOM     10  C   UNL     1      -3.995  38.741  34.924  0.00  0.00    +0.000 C 
ATOM     11  C   UNL     1      -5.347  39.204  34.439  0.00  0.00    +0.000 C 
ATOM     12  C   UNL     1      -3.951  37.386  35.589  0.00  0.00    +0.000 C 
ENDBRANCH   3  10
TORSDOF 1
ENDMDL
