MODEL 1
REMARK VINA RESULT:      -6.7      0.000      0.000
REMARK  Name = 10639_Physcion.pdbqt.pdb
REMARK  3 active torsions:
REMARK  status: ('A' for Active; 'I' for Inactive)
REMARK    1  A    between atoms: C_10  and  O_18
REMARK    2  A    between atoms: C_12  and  O_20
REMARK    3  A    between atoms: C_15  and  O_22
REMARK                            x       y       z     vdW  Elec       q    Type
REMARK                         _______ _______ _______ _____ _____    ______ ____
ROOT
ATOM      1  O   UNL     1     -20.168  39.822   6.083  0.00  0.00    +0.000 OA
ATOM      2  O   UNL     1     -15.389  37.532   6.626  0.00  0.00    +0.000 OA
ATOM      3  C   UNL     1     -16.619  39.431   6.039  0.00  0.00    +0.000 A 
ATOM      4  C   UNL     1     -17.872  40.022   5.899  0.00  0.00    +0.000 A 
ATOM      5  C   UNL     1     -18.976  37.849   6.697  0.00  0.00    +0.000 A 
ATOM      6  C   UNL     1     -17.707  37.283   6.827  0.00  0.00    +0.000 A 
ATOM      7  C   UNL     1     -19.093  39.252   6.223  0.00  0.00    +0.000 C 
ATOM      8  C   UNL     1     -16.492  38.046   6.506  0.00  0.00    +0.000 C 
ATOM      9  C   UNL     1     -15.456  40.143   5.737  0.00  0.00    +0.000 A 
ATOM     10  C   UNL     1     -17.946  41.348   5.450  0.00  0.00    +0.000 A 
ATOM     11  C   UNL     1     -15.546  41.458   5.292  0.00  0.00    +0.000 A 
ATOM     12  C   UNL     1     -20.088  37.062   7.022  0.00  0.00    +0.000 A 
ATOM     13  C   UNL     1     -17.547  35.965   7.270  0.00  0.00    +0.000 A 
ATOM     14  C   UNL     1     -16.788  42.065   5.147  0.00  0.00    +0.000 A 
ATOM     15  C   UNL     1     -18.657  35.189   7.590  0.00  0.00    +0.000 A 
ATOM     16  C   UNL     1     -19.927  35.747   7.463  0.00  0.00    +0.000 A 
ATOM     17  C   UNL     1     -14.296  42.220   4.969  0.00  0.00    +0.000 C 
ENDROOT
BRANCH  10  18
ATOM     18  O   UNL     1     -19.131  42.013   5.281  0.00  0.00    +0.000 OA
ATOM     19  H   UNL     1     -19.873  41.407   5.514  0.00  0.00    +0.000 HD
ENDBRANCH  10  18
BRANCH  12  20
ATOM     20  O   UNL     1     -21.360  37.547   6.919  0.00  0.00    +0.000 OA
ATOM     21  H   UNL     1     -21.448  38.363   7.444  0.00  0.00    +0.000 HD
ENDBRANCH  12  20
BRANCH  15  22
ATOM     22  O   UNL     1     -18.394  33.911   8.014  0.00  0.00    +0.000 OA
ATOM     23  C   UNL     1     -19.524  33.105   8.208  0.00  0.00    +0.000 C 
ENDBRANCH  15  22
TORSDOF 3
ENDMDL
MODEL 2
REMARK VINA RESULT:      -6.3      1.181      5.872
REMARK  Name = 10639_Physcion.pdbqt.pdb
REMARK  3 active torsions:
REMARK  status: ('A' for Active; 'I' for Inactive)
REMARK    1  A    between atoms: C_10  and  O_18
REMARK    2  A    between atoms: C_12  and  O_20
REMARK    3  A    between atoms: C_15  and  O_22
REMARK                            x       y       z     vdW  Elec       q    Type
REMARK                         _______ _______ _______ _____ _____    ______ ____
ROOT
ATOM      1  O   UNL     1     -20.661  39.415   6.500  0.00  0.00    +0.000 OA
ATOM      2  O   UNL     1     -15.670  37.557   6.624  0.00  0.00    +0.000 OA
ATOM      3  C   UNL     1     -17.949  37.129   6.916  0.00  0.00    +0.000 A 
ATOM      4  C   UNL     1     -19.250  37.623   6.881  0.00  0.00    +0.000 A 
ATOM      5  C   UNL     1     -18.350  39.922   6.186  0.00  0.00    +0.000 A 
ATOM      6  C   UNL     1     -17.057  39.399   6.229  0.00  0.00    +0.000 A 
ATOM      7  C   UNL     1     -19.496  39.035   6.515  0.00  0.00    +0.000 C 
ATOM      8  C   UNL     1     -16.811  37.996   6.592  0.00  0.00    +0.000 C 
ATOM      9  C   UNL     1     -17.699  35.798   7.259  0.00  0.00    +0.000 A 
ATOM     10  C   UNL     1     -20.308  36.759   7.198  0.00  0.00    +0.000 A 
ATOM     11  C   UNL     1     -18.759  34.954   7.570  0.00  0.00    +0.000 A 
ATOM     12  C   UNL     1     -18.509  41.267   5.832  0.00  0.00    +0.000 A 
ATOM     13  C   UNL     1     -15.947  40.196   5.927  0.00  0.00    +0.000 A 
ATOM     14  C   UNL     1     -20.066  35.429   7.541  0.00  0.00    +0.000 A 
ATOM     15  C   UNL     1     -16.113  41.532   5.576  0.00  0.00    +0.000 A 
ATOM     16  C   UNL     1     -17.400  42.061   5.530  0.00  0.00    +0.000 A 
ATOM     17  C   UNL     1     -18.487  33.526   7.938  0.00  0.00    +0.000 C 
ENDROOT
BRANCH  10  18
ATOM     18  O   UNL     1     -21.620  37.152   7.191  0.00  0.00    +0.000 OA
ATOM     19  H   UNL     1     -21.979  37.078   8.107  0.00  0.00    +0.000 HD
ENDBRANCH  10  18
BRANCH  12  20
ATOM     20  O   UNL     1     -19.743  41.848   5.768  0.00  0.00    +0.000 OA
ATOM     21  H   UNL     1     -20.313  41.352   5.154  0.00  0.00    +0.000 HD
ENDBRANCH  12  20
BRANCH  15  22
ATOM     22  O   UNL     1     -14.962  42.227   5.298  0.00  0.00    +0.000 OA
ATOM     23  C   UNL     1     -14.839  42.667   3.972  0.00  0.00    +0.000 C 
ENDBRANCH  15  22
TORSDOF 3
ENDMDL
MODEL 3
REMARK VINA RESULT:      -6.3      1.873      6.721
REMARK  Name = 10639_Physcion.pdbqt.pdb
REMARK  3 active torsions:
REMARK  status: ('A' for Active; 'I' for Inactive)
REMARK    1  A    between atoms: C_10  and  O_18
REMARK    2  A    between atoms: C_12  and  O_20
REMARK    3  A    between atoms: C_15  and  O_22
REMARK                            x       y       z     vdW  Elec       q    Type
REMARK                         _______ _______ _______ _____ _____    ______ ____
ROOT
ATOM      1  O   UNL     1     -14.591  40.184   5.596  0.00  0.00    +0.000 OA
ATOM      2  O   UNL     1     -19.916  40.019   5.545  0.00  0.00    +0.000 OA
ATOM      3  C   UNL     1     -17.905  38.908   5.977  0.00  0.00    +0.000 A 
ATOM      4  C   UNL     1     -16.513  38.960   5.987  0.00  0.00    +0.000 A 
ATOM      5  C   UNL     1     -16.605  41.377   5.134  0.00  0.00    +0.000 A 
ATOM      6  C   UNL     1     -17.998  41.296   5.134  0.00  0.00    +0.000 A 
ATOM      7  C   UNL     1     -15.816  40.194   5.566  0.00  0.00    +0.000 C 
ATOM      8  C   UNL     1     -18.694  40.070   5.552  0.00  0.00    +0.000 C 
ATOM      9  C   UNL     1     -18.580  37.750   6.371  0.00  0.00    +0.000 A 
ATOM     10  C   UNL     1     -15.799  37.827   6.400  0.00  0.00    +0.000 A 
ATOM     11  C   UNL     1     -17.857  36.635   6.778  0.00  0.00    +0.000 A 
ATOM     12  C   UNL     1     -16.012  42.577   4.723  0.00  0.00    +0.000 A 
ATOM     13  C   UNL     1     -18.784  42.383   4.735  0.00  0.00    +0.000 A 
ATOM     14  C   UNL     1     -16.467  36.667   6.795  0.00  0.00    +0.000 A 
ATOM     15  C   UNL     1     -18.187  43.573   4.328  0.00  0.00    +0.000 A 
ATOM     16  C   UNL     1     -16.797  43.661   4.325  0.00  0.00    +0.000 A 
ATOM     17  C   UNL     1     -18.584  35.393   7.201  0.00  0.00    +0.000 C 
ENDROOT
BRANCH  10  18
ATOM     18  O   UNL     1     -14.432  37.781   6.444  0.00  0.00    +0.000 OA
ATOM     19  H   UNL     1     -14.073  38.627   6.085  0.00  0.00    +0.000 HD
ENDBRANCH  10  18
BRANCH  12  20
ATOM     20  O   UNL     1     -14.656  42.730   4.697  0.00  0.00    +0.000 OA
ATOM     21  H   UNL     1     -14.286  42.580   5.585  0.00  0.00    +0.000 HD
ENDBRANCH  12  20
BRANCH  15  22
ATOM     22  O   UNL     1     -19.044  44.578   3.957  0.00  0.00    +0.000 OA
ATOM     23  C   UNL     1     -20.404  44.305   4.161  0.00  0.00    +0.000 C 
ENDBRANCH  15  22
TORSDOF 3
ENDMDL
MODEL 4
REMARK VINA RESULT:      -6.1     24.517     26.164
REMARK  Name = 10639_Physcion.pdbqt.pdb
REMARK  3 active torsions:
REMARK  status: ('A' for Active; 'I' for Inactive)
REMARK    1  A    between atoms: C_10  and  O_18
REMARK    2  A    between atoms: C_12  and  O_20
REMARK    3  A    between atoms: C_15  and  O_22
REMARK                            x       y       z     vdW  Elec       q    Type
REMARK                         _______ _______ _______ _____ _____    ______ ____
ROOT
ATOM      1  O   UNL     1      -5.242  50.329  27.352  0.00  0.00    +0.000 OA
ATOM      2  O   UNL     1      -4.877  45.481  25.172  0.00  0.00    +0.000 OA
ATOM      3  C   UNL     1      -6.201  47.354  25.624  0.00  0.00    +0.000 A 
ATOM      4  C   UNL     1      -6.287  48.620  26.197  0.00  0.00    +0.000 A 
ATOM      5  C   UNL     1      -3.835  48.449  26.925  0.00  0.00    +0.000 A 
ATOM      6  C   UNL     1      -3.777  47.182  26.343  0.00  0.00    +0.000 A 
ATOM      7  C   UNL     1      -5.109  49.211  26.866  0.00  0.00    +0.000 C 
ATOM      8  C   UNL     1      -4.948  46.593  25.676  0.00  0.00    +0.000 C 
ATOM      9  C   UNL     1      -7.304  46.781  24.987  0.00  0.00    +0.000 A 
ATOM     10  C   UNL     1      -7.505  49.312  26.123  0.00  0.00    +0.000 A 
ATOM     11  C   UNL     1      -8.505  47.479  24.923  0.00  0.00    +0.000 A 
ATOM     12  C   UNL     1      -2.680  48.947  27.543  0.00  0.00    +0.000 A 
ATOM     13  C   UNL     1      -2.599  46.428  26.373  0.00  0.00    +0.000 A 
ATOM     14  C   UNL     1      -8.611  48.745  25.489  0.00  0.00    +0.000 A 
ATOM     15  C   UNL     1      -1.457  46.929  26.989  0.00  0.00    +0.000 A 
ATOM     16  C   UNL     1      -1.506  48.193  27.573  0.00  0.00    +0.000 A 
ATOM     17  C   UNL     1      -9.687  46.862  24.239  0.00  0.00    +0.000 C 
ENDROOT
BRANCH  10  18
ATOM     18  O   UNL     1      -7.688  50.560  26.655  0.00  0.00    +0.000 OA
ATOM     19  H   UNL     1      -7.248  51.222  26.072  0.00  0.00    +0.000 HD
ENDBRANCH  10  18
BRANCH  12  20
ATOM     20  O   UNL     1      -2.661  50.177  28.134  0.00  0.00    +0.000 OA
ATOM     21  H   UNL     1      -2.077  50.777  27.635  0.00  0.00    +0.000 HD
ENDBRANCH  12  20
BRANCH  15  22
ATOM     22  O   UNL     1      -0.354  46.111  26.965  0.00  0.00    +0.000 OA
ATOM     23  C   UNL     1       0.392  46.086  28.151  0.00  0.00    +0.000 C 
ENDBRANCH  15  22
TORSDOF 3
ENDMDL
MODEL 5
REMARK VINA RESULT:      -6.1      1.840      3.758
REMARK  Name = 10639_Physcion.pdbqt.pdb
REMARK  3 active torsions:
REMARK  status: ('A' for Active; 'I' for Inactive)
REMARK    1  A    between atoms: C_10  and  O_18
REMARK    2  A    between atoms: C_12  and  O_20
REMARK    3  A    between atoms: C_15  and  O_22
REMARK                            x       y       z     vdW  Elec       q    Type
REMARK                         _______ _______ _______ _____ _____    ______ ____
ROOT
ATOM      1  O   UNL     1     -14.619  40.360   5.550  0.00  0.00    +0.000 OA
ATOM      2  O   UNL     1     -19.910  39.924   5.102  0.00  0.00    +0.000 OA
ATOM      3  C   UNL     1     -18.001  41.240   4.809  0.00  0.00    +0.000 A 
ATOM      4  C   UNL     1     -16.617  41.345   4.930  0.00  0.00    +0.000 A 
ATOM      5  C   UNL     1     -16.527  38.964   5.876  0.00  0.00    +0.000 A 
ATOM      6  C   UNL     1     -17.914  38.886   5.744  0.00  0.00    +0.000 A 
ATOM      7  C   UNL     1     -15.833  40.212   5.467  0.00  0.00    +0.000 C 
ATOM      8  C   UNL     1     -18.695  40.012   5.210  0.00  0.00    +0.000 C 
ATOM      9  C   UNL     1     -18.757  42.300   4.303  0.00  0.00    +0.000 A 
ATOM     10  C   UNL     1     -15.995  42.538   4.534  0.00  0.00    +0.000 A 
ATOM     11  C   UNL     1     -18.124  43.476   3.915  0.00  0.00    +0.000 A 
ATOM     12  C   UNL     1     -15.848  37.853   6.393  0.00  0.00    +0.000 A 
ATOM     13  C   UNL     1     -18.610  37.731   6.116  0.00  0.00    +0.000 A 
ATOM     14  C   UNL     1     -16.744  43.601   4.028  0.00  0.00    +0.000 A 
ATOM     15  C   UNL     1     -17.929  36.631   6.629  0.00  0.00    +0.000 A 
ATOM     16  C   UNL     1     -16.544  36.701   6.764  0.00  0.00    +0.000 A 
ATOM     17  C   UNL     1     -18.938  44.612   3.373  0.00  0.00    +0.000 C 
ENDROOT
BRANCH  10  18
ATOM     18  O   UNL     1     -14.643  42.736   4.615  0.00  0.00    +0.000 OA
ATOM     19  H   UNL     1     -14.220  42.393   3.792  0.00  0.00    +0.000 HD
ENDBRANCH  10  18
BRANCH  12  20
ATOM     20  O   UNL     1     -14.492  37.855   6.551  0.00  0.00    +0.000 OA
ATOM     21  H   UNL     1     -14.099  38.591   6.049  0.00  0.00    +0.000 HD
ENDBRANCH  12  20
BRANCH  15  22
ATOM     22  O   UNL     1     -18.703  35.549   6.963  0.00  0.00    +0.000 OA
ATOM     23  C   UNL     1     -20.012  35.854   7.361  0.00  0.00    +0.000 C 
ENDBRANCH  15  22
TORSDOF 3
ENDMDL
MODEL 6
REMARK VINA RESULT:      -5.7     31.802     32.659
REMARK  Name = 10639_Physcion.pdbqt.pdb
REMARK  3 active torsions:
REMARK  status: ('A' for Active; 'I' for Inactive)
REMARK    1  A    between atoms: C_10  and  O_18
REMARK    2  A    between atoms: C_12  and  O_20
REMARK    3  A    between atoms: C_15  and  O_22
REMARK                            x       y       z     vdW  Elec       q    Type
REMARK                         _______ _______ _______ _____ _____    ______ ____
ROOT
ATOM      1  O   UNL     1      -2.628  40.495  33.882  0.00  0.00    +0.000 OA
ATOM      2  O   UNL     1      -2.212  35.435  35.497  0.00  0.00    +0.000 OA
ATOM      3  C   UNL     1      -3.494  37.388  35.415  0.00  0.00    +0.000 A 
ATOM      4  C   UNL     1      -3.594  38.710  34.989  0.00  0.00    +0.000 A 
ATOM      5  C   UNL     1      -1.266  38.536  33.929  0.00  0.00    +0.000 A 
ATOM      6  C   UNL     1      -1.193  37.214  34.369  0.00  0.00    +0.000 A 
ATOM      7  C   UNL     1      -2.485  39.329  34.232  0.00  0.00    +0.000 C 
ATOM      8  C   UNL     1      -2.295  36.596  35.121  0.00  0.00    +0.000 C 
ATOM      9  C   UNL     1      -4.533  36.787  36.130  0.00  0.00    +0.000 A 
ATOM     10  C   UNL     1      -4.759  39.429  35.291  0.00  0.00    +0.000 A 
ATOM     11  C   UNL     1      -5.681  37.514  36.422  0.00  0.00    +0.000 A 
ATOM     12  C   UNL     1      -0.178  39.059  33.218  0.00  0.00    +0.000 A 
ATOM     13  C   UNL     1      -0.065  36.428  34.107  0.00  0.00    +0.000 A 
ATOM     14  C   UNL     1      -5.800  38.835  36.006  0.00  0.00    +0.000 A 
ATOM     15  C   UNL     1       1.012  36.954  33.400  0.00  0.00    +0.000 A 
ATOM     16  C   UNL     1       0.947  38.273  32.958  0.00  0.00    +0.000 A 
ATOM     17  C   UNL     1      -6.794  36.866  37.190  0.00  0.00    +0.000 C 
ENDROOT
BRANCH  10  18
ATOM     18  O   UNL     1      -4.950  40.732  34.916  0.00  0.00    +0.000 OA
ATOM     19  H   UNL     1      -4.156  41.257  35.173  0.00  0.00    +0.000 HD
ENDBRANCH  10  18
BRANCH  12  20
ATOM     20  O   UNL     1      -0.177  40.343  32.757  0.00  0.00    +0.000 OA
ATOM     21  H   UNL     1       0.501  40.449  32.066  0.00  0.00    +0.000 HD
ENDBRANCH  12  20
BRANCH  15  22
ATOM     22  O   UNL     1       2.069  36.103  33.196  0.00  0.00    +0.000 OA
ATOM     23  C   UNL     1       3.112  36.627  32.420  0.00  0.00    +0.000 C 
ENDBRANCH  15  22
TORSDOF 3
ENDMDL
MODEL 7
REMARK VINA RESULT:      -5.7     22.988     24.186
REMARK  Name = 10639_Physcion.pdbqt.pdb
REMARK  3 active torsions:
REMARK  status: ('A' for Active; 'I' for Inactive)
REMARK    1  A    between atoms: C_10  and  O_18
REMARK    2  A    between atoms: C_12  and  O_20
REMARK    3  A    between atoms: C_15  and  O_22
REMARK                            x       y       z     vdW  Elec       q    Type
REMARK                         _______ _______ _______ _____ _____    ______ ____
ROOT
ATOM      1  O   UNL     1      -9.481  48.746  28.855  0.00  0.00    +0.000 OA
ATOM      2  O   UNL     1      -9.011  47.249  23.763  0.00  0.00    +0.000 OA
ATOM      3  C   UNL     1      -8.163  47.158  25.940  0.00  0.00    +0.000 A 
ATOM      4  C   UNL     1      -8.293  47.554  27.268  0.00  0.00    +0.000 A 
ATOM      5  C   UNL     1     -10.399  48.883  26.657  0.00  0.00    +0.000 A 
ATOM      6  C   UNL     1     -10.244  48.471  25.333  0.00  0.00    +0.000 A 
ATOM      7  C   UNL     1      -9.415  48.430  27.673  0.00  0.00    +0.000 C 
ATOM      8  C   UNL     1      -9.130  47.600  24.929  0.00  0.00    +0.000 C 
ATOM      9  C   UNL     1      -7.110  46.331  25.541  0.00  0.00    +0.000 A 
ATOM     10  C   UNL     1      -7.347  47.108  28.201  0.00  0.00    +0.000 A 
ATOM     11  C   UNL     1      -6.179  45.897  26.478  0.00  0.00    +0.000 A 
ATOM     12  C   UNL     1     -11.485  49.713  26.969  0.00  0.00    +0.000 A 
ATOM     13  C   UNL     1     -11.146  48.872  24.342  0.00  0.00    +0.000 A 
ATOM     14  C   UNL     1      -6.292  46.282  27.809  0.00  0.00    +0.000 A 
ATOM     15  C   UNL     1     -12.222  49.696  24.659  0.00  0.00    +0.000 A 
ATOM     16  C   UNL     1     -12.384  50.113  25.978  0.00  0.00    +0.000 A 
ATOM     17  C   UNL     1      -5.050  45.010  26.046  0.00  0.00    +0.000 C 
ENDROOT
BRANCH  10  18
ATOM     18  O   UNL     1      -7.390  47.443  29.527  0.00  0.00    +0.000 OA
ATOM     19  H   UNL     1      -7.449  48.424  29.606  0.00  0.00    +0.000 HD
ENDBRANCH  10  18
BRANCH  12  20
ATOM     20  O   UNL     1     -11.701  50.156  28.241  0.00  0.00    +0.000 OA
ATOM     21  H   UNL     1     -11.005  49.820  28.834  0.00  0.00    +0.000 HD
ENDBRANCH  12  20
BRANCH  15  22
ATOM     22  O   UNL     1     -13.048  50.033  23.616  0.00  0.00    +0.000 OA
ATOM     23  C   UNL     1     -13.989  51.032  23.903  0.00  0.00    +0.000 C 
ENDBRANCH  15  22
TORSDOF 3
ENDMDL
MODEL 8
REMARK VINA RESULT:      -5.6     21.048     23.756
REMARK  Name = 10639_Physcion.pdbqt.pdb
REMARK  3 active torsions:
REMARK  status: ('A' for Active; 'I' for Inactive)
REMARK    1  A    between atoms: C_10  and  O_18
REMARK    2  A    between atoms: C_12  and  O_20
REMARK    3  A    between atoms: C_15  and  O_22
REMARK                            x       y       z     vdW  Elec       q    Type
REMARK                         _______ _______ _______ _____ _____    ______ ____
ROOT
ATOM      1  O   UNL     1      -3.928  26.351  22.703  0.00  0.00    +0.000 OA
ATOM      2  O   UNL     1      -3.124  27.584  17.583  0.00  0.00    +0.000 OA
ATOM      3  C   UNL     1      -4.548  26.681  19.201  0.00  0.00    +0.000 A 
ATOM      4  C   UNL     1      -4.750  26.362  20.541  0.00  0.00    +0.000 A 
ATOM      5  C   UNL     1      -2.424  27.285  21.102  0.00  0.00    +0.000 A 
ATOM      6  C   UNL     1      -2.249  27.593  19.753  0.00  0.00    +0.000 A 
ATOM      7  C   UNL     1      -3.696  26.652  21.537  0.00  0.00    +0.000 C 
ATOM      8  C   UNL     1      -3.296  27.305  18.761  0.00  0.00    +0.000 C 
ATOM      9  C   UNL     1      -5.533  26.413  18.247  0.00  0.00    +0.000 A 
ATOM     10  C   UNL     1      -5.962  25.766  20.918  0.00  0.00    +0.000 A 
ATOM     11  C   UNL     1      -6.729  25.822  18.636  0.00  0.00    +0.000 A 
ATOM     12  C   UNL     1      -1.384  27.587  21.991  0.00  0.00    +0.000 A 
ATOM     13  C   UNL     1      -1.069  28.190  19.296  0.00  0.00    +0.000 A 
ATOM     14  C   UNL     1      -6.950  25.496  19.970  0.00  0.00    +0.000 A 
ATOM     15  C   UNL     1      -0.040  28.488  20.184  0.00  0.00    +0.000 A 
ATOM     16  C   UNL     1      -0.206  28.182  21.533  0.00  0.00    +0.000 A 
ATOM     17  C   UNL     1      -7.784  25.536  17.610  0.00  0.00    +0.000 C 
ENDROOT
BRANCH  10  18
ATOM     18  O   UNL     1      -6.252  25.416  22.209  0.00  0.00    +0.000 OA
ATOM     19  H   UNL     1      -5.851  26.081  22.817  0.00  0.00    +0.000 HD
ENDBRANCH  10  18
BRANCH  12  20
ATOM     20  O   UNL     1      -1.482  27.315  23.324  0.00  0.00    +0.000 OA
ATOM     21  H   UNL     1      -2.285  27.727  23.691  0.00  0.00    +0.000 HD
ENDBRANCH  12  20
BRANCH  15  22
ATOM     22  O   UNL     1       1.075  29.071  19.637  0.00  0.00    +0.000 OA
ATOM     23  C   UNL     1       0.906  29.578  18.342  0.00  0.00    +0.000 C 
ENDBRANCH  15  22
TORSDOF 3
ENDMDL
MODEL 9
REMARK VINA RESULT:      -5.5     22.083     23.042
REMARK  Name = 10639_Physcion.pdbqt.pdb
REMARK  3 active torsions:
REMARK  status: ('A' for Active; 'I' for Inactive)
REMARK    1  A    between atoms: C_10  and  O_18
REMARK    2  A    between atoms: C_12  and  O_20
REMARK    3  A    between atoms: C_15  and  O_22
REMARK                            x       y       z     vdW  Elec       q    Type
REMARK                         _______ _______ _______ _____ _____    ______ ____
ROOT
ATOM      1  O   UNL     1      -3.062  26.524  16.661  0.00  0.00    +0.000 OA
ATOM      2  O   UNL     1      -1.741  28.335  21.494  0.00  0.00    +0.000 OA
ATOM      3  C   UNL     1      -1.229  28.217  19.216  0.00  0.00    +0.000 A 
ATOM      4  C   UNL     1      -1.582  27.739  17.957  0.00  0.00    +0.000 A 
ATOM      5  C   UNL     1      -3.643  26.603  18.974  0.00  0.00    +0.000 A 
ATOM      6  C   UNL     1      -3.265  27.095  20.224  0.00  0.00    +0.000 A 
ATOM      7  C   UNL     1      -2.800  26.916  17.792  0.00  0.00    +0.000 C 
ATOM      8  C   UNL     1      -2.055  27.913  20.390  0.00  0.00    +0.000 C 
ATOM      9  C   UNL     1      -0.082  28.995  19.390  0.00  0.00    +0.000 A 
ATOM     10  C   UNL     1      -0.763  28.054  16.862  0.00  0.00    +0.000 A 
ATOM     11  C   UNL     1       0.719  29.298  18.294  0.00  0.00    +0.000 A 
ATOM     12  C   UNL     1      -4.809  25.830  18.891  0.00  0.00    +0.000 A 
ATOM     13  C   UNL     1      -4.028  26.826  21.366  0.00  0.00    +0.000 A 
ATOM     14  C   UNL     1       0.384  28.831  17.029  0.00  0.00    +0.000 A 
ATOM     15  C   UNL     1      -5.185  26.058  21.276  0.00  0.00    +0.000 A 
ATOM     16  C   UNL     1      -5.569  25.562  20.032  0.00  0.00    +0.000 A 
ATOM     17  C   UNL     1       1.950  30.134  18.484  0.00  0.00    +0.000 C 
ENDROOT
BRANCH  10  18
ATOM     18  O   UNL     1      -1.027  27.631  15.587  0.00  0.00    +0.000 OA
ATOM     19  H   UNL     1      -0.982  26.646  15.562  0.00  0.00    +0.000 HD
ENDBRANCH  10  18
BRANCH  12  20
ATOM     20  O   UNL     1      -5.241  25.315  17.703  0.00  0.00    +0.000 OA
ATOM     21  H   UNL     1      -4.745  24.504  17.492  0.00  0.00    +0.000 HD
ENDBRANCH  12  20
BRANCH  15  22
ATOM     22  O   UNL     1      -5.861  25.851  22.452  0.00  0.00    +0.000 OA
ATOM     23  C   UNL     1      -5.055  25.530  23.552  0.00  0.00    +0.000 C 
ENDBRANCH  15  22
TORSDOF 3
ENDMDL
