MODEL 1
REMARK VINA RESULT:      -7.1      0.000      0.000
REMARK  Name = 10940649_MilnamideD.pdbqt.pdb
REMARK  7 active torsions:
REMARK  status: ('A' for Active; 'I' for Inactive)
REMARK    1  A    between atoms: C_3  and  C_8
REMARK    2  A    between atoms: C_22  and  C_25
REMARK    3  A    between atoms: C_22  and  C_38
REMARK    4  A    between atoms: N_24  and  C_27
REMARK    5  A    between atoms: C_27  and  C_28
REMARK    6  A    between atoms: C_32  and  C_35
REMARK    7  A    between atoms: C_35  and  O_36
REMARK                            x       y       z     vdW  Elec       q    Type
REMARK                         _______ _______ _______ _____ _____    ______ ____
ROOT
ATOM      1  O   UNL     1      -4.761  48.665  29.365  0.00  0.00    +0.000 OA
ATOM      2  N   UNL     1      -4.507  47.985  27.214  0.00  0.00    +0.000 N 
ATOM      3  C   UNL     1      -4.009  48.388  28.438  0.00  0.00    +0.000 C 
ATOM      4  H   UNL     1      -3.850  47.862  26.435  0.00  0.00    +0.000 HD
ATOM      5  C   UNL     1      -5.878  47.796  26.915  0.00  0.00    +0.000 C 
ENDROOT
BRANCH   3   9
ATOM      6  N   UNL     1      -1.835  49.765  28.466  0.00  0.00    +0.000 NA
ATOM      7  N   UNL     1       1.759  48.240  28.843  0.00  0.00    +0.000 N 
ATOM      8  C   UNL     1      -1.775  47.096  28.485  0.00  0.00    +0.000 C 
ATOM      9  C   UNL     1      -2.517  48.464  28.558  0.00  0.00    +0.000 C 
ATOM     10  C   UNL     1      -0.227  47.207  28.658  0.00  0.00    +0.000 A 
ATOM     11  C   UNL     1       0.427  48.421  28.704  0.00  0.00    +0.000 A 
ATOM     12  C   UNL     1      -1.953  46.475  27.067  0.00  0.00    +0.000 C 
ATOM     13  C   UNL     1      -2.239  46.186  29.659  0.00  0.00    +0.000 C 
ATOM     14  C   UNL     1       0.814  46.216  28.766  0.00  0.00    +0.000 A 
ATOM     15  C   UNL     1      -0.421  49.527  28.599  0.00  0.00    +0.000 C 
ATOM     16  C   UNL     1       2.043  46.895  28.884  0.00  0.00    +0.000 A 
ATOM     17  C   UNL     1      -2.232  50.645  29.554  0.00  0.00    +0.000 C 
ATOM     18  C   UNL     1       0.823  44.807  28.769  0.00  0.00    +0.000 A 
ATOM     19  C   UNL     1       2.711  49.295  28.914  0.00  0.00    +0.000 C 
ATOM     20  C   UNL     1       3.264  46.213  29.009  0.00  0.00    +0.000 A 
ATOM     21  C   UNL     1       2.033  44.124  28.892  0.00  0.00    +0.000 A 
ATOM     22  C   UNL     1       3.230  44.818  29.011  0.00  0.00    +0.000 A 
ENDBRANCH   3   9
BRANCH   5  25
ATOM     23  O   UNL     1      -7.054  46.840  28.683  0.00  0.00    +0.000 OA
ATOM     24  N   UNL     1      -7.519  49.102  28.179  0.00  0.00    +0.000 N 
ATOM     25  C   UNL     1      -6.890  47.846  27.998  0.00  0.00    +0.000 C 
ATOM     26  C   UNL     1      -7.319  50.261  27.303  0.00  0.00    +0.000 C 
BRANCH  24  27
ATOM     27  C   UNL     1      -8.383  49.315  29.268  0.00  0.00    +0.000 C 
ATOM     28  C   UNL     1      -7.904  49.256  30.621  0.00  0.00    +0.000 C 
ATOM     29  C   UNL     1      -7.478  49.204  31.849  0.00  0.00    +0.000 C 
ATOM     30  C   UNL     1      -7.483  50.521  32.596  0.00  0.00    +0.000 C 
BRANCH  27  31
ATOM     31  C   UNL     1      -9.791  49.629  29.075  0.00  0.00    +0.000 C 
ATOM     32  C   UNL     1     -10.668  48.738  28.217  0.00  0.00    +0.000 C 
ATOM     33  C   UNL     1     -10.534  50.414  30.140  0.00  0.00    +0.000 C 
ENDBRANCH  27  31
BRANCH  29  35
ATOM     34  O   UNL     1      -6.449  47.767  33.490  0.00  0.00    +0.000 OA
ATOM     35  C   UNL     1      -7.031  47.906  32.424  0.00  0.00    +0.000 C 
BRANCH  35  36
ATOM     36  O   UNL     1      -7.314  46.828  31.663  0.00  0.00    +0.000 OA
ATOM     37  H   UNL     1      -6.789  46.096  32.048  0.00  0.00    +0.000 HD
ENDBRANCH  35  36
ENDBRANCH  29  35
ENDBRANCH  24  27
ENDBRANCH   5  25
BRANCH   5  38
ATOM     38  C   UNL     1      -6.392  47.277  25.582  0.00  0.00    +0.000 C 
ATOM     39  C   UNL     1      -6.287  48.461  24.568  0.00  0.00    +0.000 C 
ATOM     40  C   UNL     1      -5.435  46.145  25.110  0.00  0.00    +0.000 C 
ATOM     41  C   UNL     1      -7.859  46.784  25.632  0.00  0.00    +0.000 C 
ENDBRANCH   5  38
TORSDOF 7
ENDMDL
MODEL 2
REMARK VINA RESULT:      -6.8      2.450      3.589
REMARK  Name = 10940649_MilnamideD.pdbqt.pdb
REMARK  7 active torsions:
REMARK  status: ('A' for Active; 'I' for Inactive)
REMARK    1  A    between atoms: C_3  and  C_8
REMARK    2  A    between atoms: C_22  and  C_25
REMARK    3  A    between atoms: C_22  and  C_38
REMARK    4  A    between atoms: N_24  and  C_27
REMARK    5  A    between atoms: C_27  and  C_28
REMARK    6  A    between atoms: C_32  and  C_35
REMARK    7  A    between atoms: C_35  and  O_36
REMARK                            x       y       z     vdW  Elec       q    Type
REMARK                         _______ _______ _______ _____ _____    ______ ____
ROOT
ATOM      1  O   UNL     1      -3.796  49.623  26.687  0.00  0.00    +0.000 OA
ATOM      2  N   UNL     1      -3.805  47.359  26.856  0.00  0.00    +0.000 N 
ATOM      3  C   UNL     1      -3.215  48.598  27.021  0.00  0.00    +0.000 C 
ATOM      4  H   UNL     1      -3.246  46.521  27.053  0.00  0.00    +0.000 HD
ATOM      5  C   UNL     1      -5.113  47.141  26.360  0.00  0.00    +0.000 C 
ENDROOT
BRANCH   3   9
ATOM      6  N   UNL     1      -1.185  49.887  27.940  0.00  0.00    +0.000 NA
ATOM      7  N   UNL     1       2.116  48.207  29.231  0.00  0.00    +0.000 N 
ATOM      8  C   UNL     1      -1.098  47.240  27.599  0.00  0.00    +0.000 C 
ATOM      9  C   UNL     1      -1.843  48.608  27.623  0.00  0.00    +0.000 C 
ATOM     10  C   UNL     1       0.310  47.274  28.274  0.00  0.00    +0.000 A 
ATOM     11  C   UNL     1       0.898  48.448  28.699  0.00  0.00    +0.000 A 
ATOM     12  C   UNL     1      -0.800  46.827  26.127  0.00  0.00    +0.000 C 
ATOM     13  C   UNL     1      -1.903  46.192  28.421  0.00  0.00    +0.000 C 
ATOM     14  C   UNL     1       1.274  46.245  28.569  0.00  0.00    +0.000 A 
ATOM     15  C   UNL     1       0.113  49.586  28.484  0.00  0.00    +0.000 C 
ATOM     16  C   UNL     1       2.390  46.861  29.170  0.00  0.00    +0.000 A 
ATOM     17  C   UNL     1      -1.923  50.619  28.956  0.00  0.00    +0.000 C 
ATOM     18  C   UNL     1       1.300  44.849  28.375  0.00  0.00    +0.000 A 
ATOM     19  C   UNL     1       2.980  49.210  29.752  0.00  0.00    +0.000 C 
ATOM     20  C   UNL     1       3.515  46.128  29.582  0.00  0.00    +0.000 A 
ATOM     21  C   UNL     1       2.416  44.117  28.782  0.00  0.00    +0.000 A 
ATOM     22  C   UNL     1       3.501  44.748  29.376  0.00  0.00    +0.000 A 
ENDBRANCH   3   9
BRANCH   5  25
ATOM     23  O   UNL     1      -6.120  48.756  25.019  0.00  0.00    +0.000 OA
ATOM     24  N   UNL     1      -6.783  48.673  27.286  0.00  0.00    +0.000 N 
ATOM     25  C   UNL     1      -6.032  48.286  26.150  0.00  0.00    +0.000 C 
ATOM     26  C   UNL     1      -6.608  48.105  28.627  0.00  0.00    +0.000 C 
BRANCH  24  27
ATOM     27  C   UNL     1      -7.795  49.643  27.174  0.00  0.00    +0.000 C 
ATOM     28  C   UNL     1      -9.064  49.331  26.577  0.00  0.00    +0.000 C 
ATOM     29  C   UNL     1     -10.215  49.055  26.037  0.00  0.00    +0.000 C 
ATOM     30  C   UNL     1     -11.397  49.066  26.984  0.00  0.00    +0.000 C 
BRANCH  27  31
ATOM     31  C   UNL     1      -7.614  50.997  27.678  0.00  0.00    +0.000 C 
ATOM     32  C   UNL     1      -6.302  51.411  28.315  0.00  0.00    +0.000 C 
ATOM     33  C   UNL     1      -8.409  52.135  27.064  0.00  0.00    +0.000 C 
ENDBRANCH  27  31
BRANCH  29  35
ATOM     34  O   UNL     1     -11.330  48.534  23.962  0.00  0.00    +0.000 OA
ATOM     35  C   UNL     1     -10.300  48.760  24.581  0.00  0.00    +0.000 C 
BRANCH  35  36
ATOM     36  O   UNL     1      -9.112  48.751  23.940  0.00  0.00    +0.000 OA
ATOM     37  H   UNL     1      -8.852  49.693  23.865  0.00  0.00    +0.000 HD
ENDBRANCH  35  36
ENDBRANCH  29  35
ENDBRANCH  24  27
ENDBRANCH   5  25
BRANCH   5  38
ATOM     38  C   UNL     1      -5.765  45.771  26.263  0.00  0.00    +0.000 C 
ATOM     39  C   UNL     1      -4.898  44.930  25.272  0.00  0.00    +0.000 C 
ATOM     40  C   UNL     1      -5.686  45.105  27.667  0.00  0.00    +0.000 C 
ATOM     41  C   UNL     1      -7.224  45.814  25.747  0.00  0.00    +0.000 C 
ENDBRANCH   5  38
TORSDOF 7
ENDMDL
MODEL 3
REMARK VINA RESULT:      -6.7      2.576      4.816
REMARK  Name = 10940649_MilnamideD.pdbqt.pdb
REMARK  7 active torsions:
REMARK  status: ('A' for Active; 'I' for Inactive)
REMARK    1  A    between atoms: C_3  and  C_8
REMARK    2  A    between atoms: C_22  and  C_25
REMARK    3  A    between atoms: C_22  and  C_38
REMARK    4  A    between atoms: N_24  and  C_27
REMARK    5  A    between atoms: C_27  and  C_28
REMARK    6  A    between atoms: C_32  and  C_35
REMARK    7  A    between atoms: C_35  and  O_36
REMARK                            x       y       z     vdW  Elec       q    Type
REMARK                         _______ _______ _______ _____ _____    ______ ____
ROOT
ATOM      1  O   UNL     1      -4.973  49.514  28.517  0.00  0.00    +0.000 OA
ATOM      2  N   UNL     1      -4.138  47.628  27.567  0.00  0.00    +0.000 N 
ATOM      3  C   UNL     1      -3.999  48.815  28.262  0.00  0.00    +0.000 C 
ATOM      4  H   UNL     1      -3.289  47.125  27.285  0.00  0.00    +0.000 HD
ATOM      5  C   UNL     1      -5.369  47.074  27.140  0.00  0.00    +0.000 C 
ENDROOT
BRANCH   3   9
ATOM      6  N   UNL     1      -2.049  48.669  29.935  0.00  0.00    +0.000 NA
ATOM      7  N   UNL     1       1.360  50.571  29.547  0.00  0.00    +0.000 N 
ATOM      8  C   UNL     1      -1.960  50.344  27.858  0.00  0.00    +0.000 C 
ATOM      9  C   UNL     1      -2.608  49.187  28.675  0.00  0.00    +0.000 C 
ATOM     10  C   UNL     1      -0.495  50.676  28.284  0.00  0.00    +0.000 A 
ATOM     11  C   UNL     1       0.101  50.106  29.390  0.00  0.00    +0.000 A 
ATOM     12  C   UNL     1      -2.737  51.670  28.113  0.00  0.00    +0.000 C 
ATOM     13  C   UNL     1      -1.851  49.930  26.362  0.00  0.00    +0.000 C 
ATOM     14  C   UNL     1       0.497  51.571  27.744  0.00  0.00    +0.000 A 
ATOM     15  C   UNL     1      -0.719  49.202  30.073  0.00  0.00    +0.000 C 
ATOM     16  C   UNL     1       1.646  51.479  28.555  0.00  0.00    +0.000 A 
ATOM     17  C   UNL     1      -1.935  47.219  29.902  0.00  0.00    +0.000 C 
ATOM     18  C   UNL     1       0.520  52.452  26.645  0.00  0.00    +0.000 A 
ATOM     19  C   UNL     1       2.235  50.184  30.600  0.00  0.00    +0.000 C 
ATOM     20  C   UNL     1       2.803  52.230  28.298  0.00  0.00    +0.000 A 
ATOM     21  C   UNL     1       1.668  53.202  26.385  0.00  0.00    +0.000 A 
ATOM     22  C   UNL     1       2.789  53.089  27.197  0.00  0.00    +0.000 A 
ENDBRANCH   3   9
BRANCH   5  25
ATOM     23  O   UNL     1      -7.097  47.323  28.680  0.00  0.00    +0.000 OA
ATOM     24  N   UNL     1      -7.194  48.654  26.730  0.00  0.00    +0.000 N 
ATOM     25  C   UNL     1      -6.651  47.670  27.590  0.00  0.00    +0.000 C 
ATOM     26  C   UNL     1      -6.642  49.001  25.415  0.00  0.00    +0.000 C 
BRANCH  24  27
ATOM     27  C   UNL     1      -8.322  49.398  27.120  0.00  0.00    +0.000 C 
ATOM     28  C   UNL     1      -9.605  49.178  26.512  0.00  0.00    +0.000 C 
ATOM     29  C   UNL     1     -10.770  48.986  25.965  0.00  0.00    +0.000 C 
ATOM     30  C   UNL     1     -11.823  48.388  26.873  0.00  0.00    +0.000 C 
BRANCH  27  31
ATOM     31  C   UNL     1      -8.249  50.402  28.171  0.00  0.00    +0.000 C 
ATOM     32  C   UNL     1      -7.750  51.800  27.865  0.00  0.00    +0.000 C 
ATOM     33  C   UNL     1      -9.187  50.308  29.360  0.00  0.00    +0.000 C 
ENDBRANCH  27  31
BRANCH  29  35
ATOM     34  O   UNL     1     -10.463  50.290  23.959  0.00  0.00    +0.000 OA
ATOM     35  C   UNL     1     -10.989  49.351  24.539  0.00  0.00    +0.000 C 
BRANCH  35  36
ATOM     36  O   UNL     1     -11.850  48.547  23.880  0.00  0.00    +0.000 OA
ATOM     37  H   UNL     1     -12.608  48.428  24.488  0.00  0.00    +0.000 HD
ENDBRANCH  35  36
ENDBRANCH  29  35
ENDBRANCH  24  27
ENDBRANCH   5  25
BRANCH   5  38
ATOM     38  C   UNL     1      -5.498  45.727  26.446  0.00  0.00    +0.000 C 
ATOM     39  C   UNL     1      -5.411  44.637  27.562  0.00  0.00    +0.000 C 
ATOM     40  C   UNL     1      -6.913  45.656  25.804  0.00  0.00    +0.000 C 
ATOM     41  C   UNL     1      -4.393  45.464  25.395  0.00  0.00    +0.000 C 
ENDBRANCH   5  38
TORSDOF 7
ENDMDL
MODEL 4
REMARK VINA RESULT:      -6.5      3.300      6.643
REMARK  Name = 10940649_MilnamideD.pdbqt.pdb
REMARK  7 active torsions:
REMARK  status: ('A' for Active; 'I' for Inactive)
REMARK    1  A    between atoms: C_3  and  C_8
REMARK    2  A    between atoms: C_22  and  C_25
REMARK    3  A    between atoms: C_22  and  C_38
REMARK    4  A    between atoms: N_24  and  C_27
REMARK    5  A    between atoms: C_27  and  C_28
REMARK    6  A    between atoms: C_32  and  C_35
REMARK    7  A    between atoms: C_35  and  O_36
REMARK                            x       y       z     vdW  Elec       q    Type
REMARK                         _______ _______ _______ _____ _____    ______ ____
ROOT
ATOM      1  O   UNL     1      -2.540  49.640  28.279  0.00  0.00    +0.000 OA
ATOM      2  N   UNL     1      -0.577  48.801  29.052  0.00  0.00    +0.000 N 
ATOM      3  C   UNL     1      -1.409  49.848  28.702  0.00  0.00    +0.000 C 
ATOM      4  H   UNL     1       0.395  49.012  29.303  0.00  0.00    +0.000 HD
ATOM      5  C   UNL     1      -0.936  47.431  29.022  0.00  0.00    +0.000 C 
ENDROOT
BRANCH   3   9
ATOM      6  N   UNL     1      -1.576  52.227  29.669  0.00  0.00    +0.000 NA
ATOM      7  N   UNL     1       1.028  55.085  29.007  0.00  0.00    +0.000 N 
ATOM      8  C   UNL     1       0.337  51.581  27.922  0.00  0.00    +0.000 C 
ATOM      9  C   UNL     1      -0.850  51.228  28.868  0.00  0.00    +0.000 C 
ATOM     10  C   UNL     1       0.924  53.009  28.152  0.00  0.00    +0.000 A 
ATOM     11  C   UNL     1       0.334  53.925  28.999  0.00  0.00    +0.000 A 
ATOM     12  C   UNL     1      -0.156  51.609  26.445  0.00  0.00    +0.000 C 
ATOM     13  C   UNL     1       1.527  50.617  28.195  0.00  0.00    +0.000 C 
ATOM     14  C   UNL     1       2.064  53.695  27.597  0.00  0.00    +0.000 A 
ATOM     15  C   UNL     1      -0.816  53.449  29.636  0.00  0.00    +0.000 C 
ATOM     16  C   UNL     1       2.102  54.988  28.155  0.00  0.00    +0.000 A 
ATOM     17  C   UNL     1      -1.674  51.814  31.060  0.00  0.00    +0.000 C 
ATOM     18  C   UNL     1       3.062  53.334  26.669  0.00  0.00    +0.000 A 
ATOM     19  C   UNL     1       0.672  56.230  29.773  0.00  0.00    +0.000 C 
ATOM     20  C   UNL     1       3.100  55.917  27.819  0.00  0.00    +0.000 A 
ATOM     21  C   UNL     1       4.055  54.253  26.331  0.00  0.00    +0.000 A 
ATOM     22  C   UNL     1       4.072  55.521  26.899  0.00  0.00    +0.000 A 
ENDBRANCH   3   9
BRANCH   5  25
ATOM     23  O   UNL     1      -3.115  47.024  29.731  0.00  0.00    +0.000 OA
ATOM     24  N   UNL     1      -2.671  46.780  27.423  0.00  0.00    +0.000 N 
ATOM     25  C   UNL     1      -2.343  47.035  28.777  0.00  0.00    +0.000 C 
ATOM     26  C   UNL     1      -1.698  46.764  26.324  0.00  0.00    +0.000 C 
BRANCH  24  27
ATOM     27  C   UNL     1      -4.005  46.544  27.045  0.00  0.00    +0.000 C 
ATOM     28  C   UNL     1      -4.871  47.623  26.658  0.00  0.00    +0.000 C 
ATOM     29  C   UNL     1      -5.662  48.595  26.308  0.00  0.00    +0.000 C 
ATOM     30  C   UNL     1      -6.075  48.604  24.851  0.00  0.00    +0.000 C 
BRANCH  27  31
ATOM     31  C   UNL     1      -4.560  45.199  27.005  0.00  0.00    +0.000 C 
ATOM     32  C   UNL     1      -5.628  44.778  27.995  0.00  0.00    +0.000 C 
ATOM     33  C   UNL     1      -4.576  44.437  25.692  0.00  0.00    +0.000 C 
ENDBRANCH  27  31
BRANCH  29  35
ATOM     34  O   UNL     1      -6.980  50.428  27.156  0.00  0.00    +0.000 OA
ATOM     35  C   UNL     1      -6.097  49.598  27.317  0.00  0.00    +0.000 C 
BRANCH  35  36
ATOM     36  O   UNL     1      -5.426  49.544  28.487  0.00  0.00    +0.000 OA
ATOM     37  H   UNL     1      -4.641  48.986  28.309  0.00  0.00    +0.000 HD
ENDBRANCH  35  36
ENDBRANCH  29  35
ENDBRANCH  24  27
ENDBRANCH   5  25
BRANCH   5  38
ATOM     38  C   UNL     1      -0.025  46.306  29.488  0.00  0.00    +0.000 C 
ATOM     39  C   UNL     1       1.181  46.266  28.496  0.00  0.00    +0.000 C 
ATOM     40  C   UNL     1       0.516  46.683  30.897  0.00  0.00    +0.000 C 
ATOM     41  C   UNL     1      -0.713  44.919  29.505  0.00  0.00    +0.000 C 
ENDBRANCH   5  38
TORSDOF 7
ENDMDL
MODEL 5
REMARK VINA RESULT:      -6.4      4.175      9.148
REMARK  Name = 10940649_MilnamideD.pdbqt.pdb
REMARK  7 active torsions:
REMARK  status: ('A' for Active; 'I' for Inactive)
REMARK    1  A    between atoms: C_3  and  C_8
REMARK    2  A    between atoms: C_22  and  C_25
REMARK    3  A    between atoms: C_22  and  C_38
REMARK    4  A    between atoms: N_24  and  C_27
REMARK    5  A    between atoms: C_27  and  C_28
REMARK    6  A    between atoms: C_32  and  C_35
REMARK    7  A    between atoms: C_35  and  O_36
REMARK                            x       y       z     vdW  Elec       q    Type
REMARK                         _______ _______ _______ _____ _____    ______ ____
ROOT
ATOM      1  O   UNL     1      -0.600  51.829  28.361  0.00  0.00    +0.000 OA
ATOM      2  N   UNL     1       0.575  50.167  29.366  0.00  0.00    +0.000 N 
ATOM      3  C   UNL     1      -0.588  50.706  28.850  0.00  0.00    +0.000 C 
ATOM      4  H   UNL     1       0.521  49.267  29.858  0.00  0.00    +0.000 HD
ATOM      5  C   UNL     1       1.845  50.794  29.340  0.00  0.00    +0.000 C 
ENDROOT
BRANCH   3   9
ATOM      6  N   UNL     1      -2.705  49.931  30.093  0.00  0.00    +0.000 NA
ATOM      7  N   UNL     1      -5.143  47.141  28.806  0.00  0.00    +0.000 N 
ATOM      8  C   UNL     1      -1.885  48.701  27.869  0.00  0.00    +0.000 C 
ATOM      9  C   UNL     1      -1.812  49.845  28.925  0.00  0.00    +0.000 C 
ATOM     10  C   UNL     1      -3.193  47.852  27.946  0.00  0.00    +0.000 A 
ATOM     11  C   UNL     1      -4.114  48.003  28.963  0.00  0.00    +0.000 A 
ATOM     12  C   UNL     1      -0.748  47.669  28.131  0.00  0.00    +0.000 C 
ATOM     13  C   UNL     1      -1.895  49.312  26.438  0.00  0.00    +0.000 C 
ATOM     14  C   UNL     1      -3.718  46.796  27.119  0.00  0.00    +0.000 A 
ATOM     15  C   UNL     1      -3.774  48.988  29.895  0.00  0.00    +0.000 C 
ATOM     16  C   UNL     1      -4.940  46.376  27.682  0.00  0.00    +0.000 A 
ATOM     17  C   UNL     1      -3.305  51.252  30.198  0.00  0.00    +0.000 C 
ATOM     18  C   UNL     1      -3.264  46.157  25.948  0.00  0.00    +0.000 A 
ATOM     19  C   UNL     1      -6.252  47.042  29.693  0.00  0.00    +0.000 C 
ATOM     20  C   UNL     1      -5.712  45.352  27.111  0.00  0.00    +0.000 A 
ATOM     21  C   UNL     1      -4.027  45.139  25.377  0.00  0.00    +0.000 A 
ATOM     22  C   UNL     1      -5.231  44.747  25.949  0.00  0.00    +0.000 A 
ENDBRANCH   3   9
BRANCH   5  25
ATOM     23  O   UNL     1       2.288  51.940  27.363  0.00  0.00    +0.000 OA
ATOM     24  N   UNL     1       1.850  53.242  29.287  0.00  0.00    +0.000 N 
ATOM     25  C   UNL     1       2.044  52.040  28.562  0.00  0.00    +0.000 C 
ATOM     26  C   UNL     1       1.601  53.306  30.731  0.00  0.00    +0.000 C 
BRANCH  24  27
ATOM     27  C   UNL     1       1.862  54.482  28.625  0.00  0.00    +0.000 C 
ATOM     28  C   UNL     1       1.013  54.731  27.493  0.00  0.00    +0.000 C 
ATOM     29  C   UNL     1       0.247  54.963  26.466  0.00  0.00    +0.000 C 
ATOM     30  C   UNL     1      -0.852  55.979  26.692  0.00  0.00    +0.000 C 
BRANCH  27  31
ATOM     31  C   UNL     1       2.713  55.577  29.069  0.00  0.00    +0.000 C 
ATOM     32  C   UNL     1       4.218  55.408  29.121  0.00  0.00    +0.000 C 
ATOM     33  C   UNL     1       2.240  57.008  28.895  0.00  0.00    +0.000 C 
ENDBRANCH  27  31
BRANCH  29  35
ATOM     34  O   UNL     1       0.434  54.748  24.071  0.00  0.00    +0.000 OA
ATOM     35  C   UNL     1       0.489  54.246  25.184  0.00  0.00    +0.000 C 
BRANCH  35  36
ATOM     36  O   UNL     1       0.786  52.937  25.321  0.00  0.00    +0.000 OA
ATOM     37  H   UNL     1      -0.044  52.514  25.624  0.00  0.00    +0.000 HD
ENDBRANCH  35  36
ENDBRANCH  29  35
ENDBRANCH  24  27
ENDBRANCH   5  25
BRANCH   5  38
ATOM     38  C   UNL     1       3.122  50.143  29.846  0.00  0.00    +0.000 C 
ATOM     39  C   UNL     1       2.883  49.794  31.350  0.00  0.00    +0.000 C 
ATOM     40  C   UNL     1       3.323  48.815  29.063  0.00  0.00    +0.000 C 
ATOM     41  C   UNL     1       4.369  51.054  29.731  0.00  0.00    +0.000 C 
ENDBRANCH   5  38
TORSDOF 7
ENDMDL
MODEL 6
REMARK VINA RESULT:      -6.3     27.336     30.705
REMARK  Name = 10940649_MilnamideD.pdbqt.pdb
REMARK  7 active torsions:
REMARK  status: ('A' for Active; 'I' for Inactive)
REMARK    1  A    between atoms: C_3  and  C_8
REMARK    2  A    between atoms: C_22  and  C_25
REMARK    3  A    between atoms: C_22  and  C_38
REMARK    4  A    between atoms: N_24  and  C_27
REMARK    5  A    between atoms: C_27  and  C_28
REMARK    6  A    between atoms: C_32  and  C_35
REMARK    7  A    between atoms: C_35  and  O_36
REMARK                            x       y       z     vdW  Elec       q    Type
REMARK                         _______ _______ _______ _____ _____    ______ ____
ROOT
ATOM      1  O   UNL     1     -18.141  43.364   3.636  0.00  0.00    +0.000 OA
ATOM      2  N   UNL     1     -19.322  42.357   1.978  0.00  0.00    +0.000 N 
ATOM      3  C   UNL     1     -18.472  43.336   2.456  0.00  0.00    +0.000 C 
ATOM      4  H   UNL     1     -19.655  42.429   1.010  0.00  0.00    +0.000 HD
ATOM      5  C   UNL     1     -19.842  41.286   2.744  0.00  0.00    +0.000 C 
ENDROOT
BRANCH   3   9
ATOM      6  N   UNL     1     -18.946  45.237   0.787  0.00  0.00    +0.000 NA
ATOM      7  N   UNL     1     -16.216  47.005  -1.404  0.00  0.00    +0.000 N 
ATOM      8  C   UNL     1     -16.511  44.162   0.995  0.00  0.00    +0.000 C 
ATOM      9  C   UNL     1     -17.987  44.344   1.458  0.00  0.00    +0.000 C 
ATOM     10  C   UNL     1     -16.025  45.254  -0.010  0.00  0.00    +0.000 A 
ATOM     11  C   UNL     1     -16.880  46.189  -0.557  0.00  0.00    +0.000 A 
ATOM     12  C   UNL     1     -16.367  42.829   0.203  0.00  0.00    +0.000 C 
ATOM     13  C   UNL     1     -15.559  44.301   2.218  0.00  0.00    +0.000 C 
ATOM     14  C   UNL     1     -14.739  45.535  -0.597  0.00  0.00    +0.000 A 
ATOM     15  C   UNL     1     -18.203  46.074  -0.117  0.00  0.00    +0.000 C 
ATOM     16  C   UNL     1     -14.892  46.637  -1.460  0.00  0.00    +0.000 A 
ATOM     17  C   UNL     1     -19.608  46.111   1.744  0.00  0.00    +0.000 C 
ATOM     18  C   UNL     1     -13.464  44.949  -0.475  0.00  0.00    +0.000 A 
ATOM     19  C   UNL     1     -16.817  48.068  -2.135  0.00  0.00    +0.000 C 
ATOM     20  C   UNL     1     -13.818  47.166  -2.193  0.00  0.00    +0.000 A 
ATOM     21  C   UNL     1     -12.392  45.470  -1.201  0.00  0.00    +0.000 A 
ATOM     22  C   UNL     1     -12.569  46.561  -2.042  0.00  0.00    +0.000 A 
ENDBRANCH   3   9
BRANCH   5  25
ATOM     23  O   UNL     1     -20.020  41.427   5.061  0.00  0.00    +0.000 OA
ATOM     24  N   UNL     1     -18.137  40.293   4.194  0.00  0.00    +0.000 N 
ATOM     25  C   UNL     1     -19.339  41.038   4.117  0.00  0.00    +0.000 C 
ATOM     26  C   UNL     1     -17.339  39.888   3.031  0.00  0.00    +0.000 C 
BRANCH  24  27
ATOM     27  C   UNL     1     -17.643  39.865   5.438  0.00  0.00    +0.000 C 
ATOM     28  C   UNL     1     -18.335  38.872   6.213  0.00  0.00    +0.000 C 
ATOM     29  C   UNL     1     -18.956  37.975   6.922  0.00  0.00    +0.000 C 
ATOM     30  C   UNL     1     -18.240  36.649   7.064  0.00  0.00    +0.000 C 
BRANCH  27  31
ATOM     31  C   UNL     1     -16.399  40.386   5.986  0.00  0.00    +0.000 C 
ATOM     32  C   UNL     1     -15.096  39.639   5.783  0.00  0.00    +0.000 C 
ATOM     33  C   UNL     1     -16.246  41.881   6.201  0.00  0.00    +0.000 C 
ENDBRANCH  27  31
BRANCH  29  35
ATOM     34  O   UNL     1     -21.009  37.493   8.094  0.00  0.00    +0.000 OA
ATOM     35  C   UNL     1     -20.279  38.293   7.526  0.00  0.00    +0.000 C 
BRANCH  35  36
ATOM     36  O   UNL     1     -20.655  39.583   7.405  0.00  0.00    +0.000 OA
ATOM     37  H   UNL     1     -20.188  39.915   6.612  0.00  0.00    +0.000 HD
ENDBRANCH  35  36
ENDBRANCH  29  35
ENDBRANCH  24  27
ENDBRANCH   5  25
BRANCH   5  38
ATOM     38  C   UNL     1     -20.714  40.179   2.172  0.00  0.00    +0.000 C 
ATOM     39  C   UNL     1     -22.137  40.790   1.965  0.00  0.00    +0.000 C 
ATOM     40  C   UNL     1     -20.141  39.794   0.778  0.00  0.00    +0.000 C 
ATOM     41  C   UNL     1     -20.825  38.939   3.093  0.00  0.00    +0.000 C 
ENDBRANCH   5  38
TORSDOF 7
ENDMDL
MODEL 7
REMARK VINA RESULT:      -6.1      2.832      9.338
REMARK  Name = 10940649_MilnamideD.pdbqt.pdb
REMARK  7 active torsions:
REMARK  status: ('A' for Active; 'I' for Inactive)
REMARK    1  A    between atoms: C_3  and  C_8
REMARK    2  A    between atoms: C_22  and  C_25
REMARK    3  A    between atoms: C_22  and  C_38
REMARK    4  A    between atoms: N_24  and  C_27
REMARK    5  A    between atoms: C_27  and  C_28
REMARK    6  A    between atoms: C_32  and  C_35
REMARK    7  A    between atoms: C_35  and  O_36
REMARK                            x       y       z     vdW  Elec       q    Type
REMARK                         _______ _______ _______ _____ _____    ______ ____
ROOT
ATOM      1  O   UNL     1      -5.351  49.588  26.676  0.00  0.00    +0.000 OA
ATOM      2  N   UNL     1      -6.183  47.483  26.853  0.00  0.00    +0.000 N 
ATOM      3  C   UNL     1      -6.305  48.828  26.562  0.00  0.00    +0.000 C 
ATOM      4  H   UNL     1      -7.029  46.902  26.844  0.00  0.00    +0.000 HD
ATOM      5  C   UNL     1      -4.982  46.840  27.242  0.00  0.00    +0.000 C 
ENDROOT
BRANCH   3   9
ATOM      6  N   UNL     1      -7.893  49.594  24.686  0.00  0.00    +0.000 NA
ATOM      7  N   UNL     1     -11.618  50.692  25.236  0.00  0.00    +0.000 N 
ATOM      8  C   UNL     1      -8.637  49.697  27.249  0.00  0.00    +0.000 C 
ATOM      9  C   UNL     1      -7.656  49.292  26.108  0.00  0.00    +0.000 C 
ATOM     10  C   UNL     1     -10.049  50.132  26.744  0.00  0.00    +0.000 A 
ATOM     11  C   UNL     1     -10.337  50.298  25.404  0.00  0.00    +0.000 A 
ATOM     12  C   UNL     1      -8.095  50.957  27.987  0.00  0.00    +0.000 C 
ATOM     13  C   UNL     1      -8.908  48.469  28.165  0.00  0.00    +0.000 C 
ATOM     14  C   UNL     1     -11.268  50.472  27.433  0.00  0.00    +0.000 A 
ATOM     15  C   UNL     1      -9.260  50.027  24.554  0.00  0.00    +0.000 C 
ATOM     16  C   UNL     1     -12.230  50.814  26.462  0.00  0.00    +0.000 A 
ATOM     17  C   UNL     1      -7.733  48.405  23.864  0.00  0.00    +0.000 C 
ATOM     18  C   UNL     1     -11.637  50.524  28.792  0.00  0.00    +0.000 A 
ATOM     19  C   UNL     1     -12.220  50.957  23.974  0.00  0.00    +0.000 C 
ATOM     20  C   UNL     1     -13.536  51.196  26.807  0.00  0.00    +0.000 A 
ATOM     21  C   UNL     1     -12.933  50.904  29.141  0.00  0.00    +0.000 A 
ATOM     22  C   UNL     1     -13.864  51.232  28.163  0.00  0.00    +0.000 A 
ENDBRANCH   3   9
BRANCH   5  25
ATOM     23  O   UNL     1      -3.077  47.565  26.118  0.00  0.00    +0.000 OA
ATOM     24  N   UNL     1      -3.342  48.274  28.357  0.00  0.00    +0.000 N 
ATOM     25  C   UNL     1      -3.693  47.570  27.180  0.00  0.00    +0.000 C 
ATOM     26  C   UNL     1      -4.093  48.211  29.616  0.00  0.00    +0.000 C 
BRANCH  24  27
ATOM     27  C   UNL     1      -2.221  49.124  28.371  0.00  0.00    +0.000 C 
ATOM     28  C   UNL     1      -1.001  48.737  29.023  0.00  0.00    +0.000 C 
ATOM     29  C   UNL     1       0.107  48.394  29.613  0.00  0.00    +0.000 C 
ATOM     30  C   UNL     1       1.284  48.150  28.692  0.00  0.00    +0.000 C 
BRANCH  27  31
ATOM     31  C   UNL     1      -2.237  50.419  27.707  0.00  0.00    +0.000 C 
ATOM     32  C   UNL     1      -3.000  51.583  28.308  0.00  0.00    +0.000 C 
ATOM     33  C   UNL     1      -1.074  50.816  26.815  0.00  0.00    +0.000 C 
ENDBRANCH  27  31
BRANCH  29  35
ATOM     34  O   UNL     1      -0.731  47.784  31.791  0.00  0.00    +0.000 OA
ATOM     35  C   UNL     1       0.150  48.268  31.095  0.00  0.00    +0.000 C 
BRANCH  35  36
ATOM     36  O   UNL     1       1.276  48.746  31.666  0.00  0.00    +0.000 OA
ATOM     37  H   UNL     1       1.378  48.240  32.498  0.00  0.00    +0.000 HD
ENDBRANCH  35  36
ENDBRANCH  29  35
ENDBRANCH  24  27
ENDBRANCH   5  25
BRANCH   5  38
ATOM     38  C   UNL     1      -4.860  45.343  27.480  0.00  0.00    +0.000 C 
ATOM     39  C   UNL     1      -6.116  44.917  28.306  0.00  0.00    +0.000 C 
ATOM     40  C   UNL     1      -4.924  44.634  26.097  0.00  0.00    +0.000 C 
ATOM     41  C   UNL     1      -3.583  44.942  28.256  0.00  0.00    +0.000 C 
ENDBRANCH   5  38
TORSDOF 7
ENDMDL
MODEL 8
REMARK VINA RESULT:      -5.8      3.282      9.446
REMARK  Name = 10940649_MilnamideD.pdbqt.pdb
REMARK  7 active torsions:
REMARK  status: ('A' for Active; 'I' for Inactive)
REMARK    1  A    between atoms: C_3  and  C_8
REMARK    2  A    between atoms: C_22  and  C_25
REMARK    3  A    between atoms: C_22  and  C_38
REMARK    4  A    between atoms: N_24  and  C_27
REMARK    5  A    between atoms: C_27  and  C_28
REMARK    6  A    between atoms: C_32  and  C_35
REMARK    7  A    between atoms: C_35  and  O_36
REMARK                            x       y       z     vdW  Elec       q    Type
REMARK                         _______ _______ _______ _____ _____    ______ ____
ROOT
ATOM      1  O   UNL     1      -6.390  49.955  26.926  0.00  0.00    +0.000 OA
ATOM      2  N   UNL     1      -6.585  47.735  26.493  0.00  0.00    +0.000 N 
ATOM      3  C   UNL     1      -7.079  49.025  26.523  0.00  0.00    +0.000 C 
ATOM      4  H   UNL     1      -7.226  46.972  26.247  0.00  0.00    +0.000 HD
ATOM      5  C   UNL     1      -5.267  47.359  26.851  0.00  0.00    +0.000 C 
ENDROOT
BRANCH   3   9
ATOM      6  N   UNL     1      -8.746  49.938  24.787  0.00  0.00    +0.000 NA
ATOM      7  N   UNL     1     -12.645  49.626  25.070  0.00  0.00    +0.000 N 
ATOM      8  C   UNL     1      -9.594  48.863  27.079  0.00  0.00    +0.000 C 
ATOM      9  C   UNL     1      -8.486  49.212  26.042  0.00  0.00    +0.000 C 
ATOM     10  C   UNL     1     -11.047  49.026  26.531  0.00  0.00    +0.000 A 
ATOM     11  C   UNL     1     -11.314  49.586  25.298  0.00  0.00    +0.000 A 
ATOM     12  C   UNL     1      -9.528  49.857  28.276  0.00  0.00    +0.000 C 
ATOM     13  C   UNL     1      -9.487  47.361  27.471  0.00  0.00    +0.000 C 
ATOM     14  C   UNL     1     -12.339  48.717  27.089  0.00  0.00    +0.000 A 
ATOM     15  C   UNL     1     -10.171  49.973  24.591  0.00  0.00    +0.000 C 
ATOM     16  C   UNL     1     -13.316  49.101  26.149  0.00  0.00    +0.000 A 
ATOM     17  C   UNL     1      -8.168  49.240  23.648  0.00  0.00    +0.000 C 
ATOM     18  C   UNL     1     -12.764  48.152  28.308  0.00  0.00    +0.000 A 
ATOM     19  C   UNL     1     -13.245  50.153  23.892  0.00  0.00    +0.000 C 
ATOM     20  C   UNL     1     -14.689  48.933  26.390  0.00  0.00    +0.000 A 
ATOM     21  C   UNL     1     -14.128  47.983  28.552  0.00  0.00    +0.000 A 
ATOM     22  C   UNL     1     -15.070  48.366  27.607  0.00  0.00    +0.000 A 
ENDBRANCH   3   9
BRANCH   5  25
ATOM     23  O   UNL     1      -3.666  48.899  26.156  0.00  0.00    +0.000 OA
ATOM     24  N   UNL     1      -4.091  48.761  28.476  0.00  0.00    +0.000 N 
ATOM     25  C   UNL     1      -4.243  48.397  27.117  0.00  0.00    +0.000 C 
ATOM     26  C   UNL     1      -4.775  48.098  29.592  0.00  0.00    +0.000 C 
BRANCH  24  27
ATOM     27  C   UNL     1      -3.262  49.838  28.837  0.00  0.00    +0.000 C 
ATOM     28  C   UNL     1      -3.787  50.984  29.527  0.00  0.00    +0.000 C 
ATOM     29  C   UNL     1      -4.255  52.025  30.151  0.00  0.00    +0.000 C 
ATOM     30  C   UNL     1      -3.776  52.199  31.577  0.00  0.00    +0.000 C 
BRANCH  27  31
ATOM     31  C   UNL     1      -1.834  49.831  28.552  0.00  0.00    +0.000 C 
ATOM     32  C   UNL     1      -1.201  50.964  27.768  0.00  0.00    +0.000 C 
ATOM     33  C   UNL     1      -0.889  49.102  29.490  0.00  0.00    +0.000 C 
ENDBRANCH  27  31
BRANCH  29  35
ATOM     34  O   UNL     1      -6.079  52.605  28.683  0.00  0.00    +0.000 OA
ATOM     35  C   UNL     1      -5.194  52.946  29.455  0.00  0.00    +0.000 C 
BRANCH  35  36
ATOM     36  O   UNL     1      -5.007  54.254  29.732  0.00  0.00    +0.000 OA
ATOM     37  H   UNL     1      -5.881  54.674  29.598  0.00  0.00    +0.000 HD
ENDBRANCH  35  36
ENDBRANCH  29  35
ENDBRANCH  24  27
ENDBRANCH   5  25
BRANCH   5  38
ATOM     38  C   UNL     1      -4.728  45.942  26.733  0.00  0.00    +0.000 C 
ATOM     39  C   UNL     1      -5.665  45.033  27.591  0.00  0.00    +0.000 C 
ATOM     40  C   UNL     1      -4.856  45.506  25.245  0.00  0.00    +0.000 C 
ATOM     41  C   UNL     1      -3.273  45.789  27.238  0.00  0.00    +0.000 C 
ENDBRANCH   5  38
TORSDOF 7
ENDMDL
MODEL 9
REMARK VINA RESULT:      -5.4      3.192      9.996
REMARK  Name = 10940649_MilnamideD.pdbqt.pdb
REMARK  7 active torsions:
REMARK  status: ('A' for Active; 'I' for Inactive)
REMARK    1  A    between atoms: C_3  and  C_8
REMARK    2  A    between atoms: C_22  and  C_25
REMARK    3  A    between atoms: C_22  and  C_38
REMARK    4  A    between atoms: N_24  and  C_27
REMARK    5  A    between atoms: C_27  and  C_28
REMARK    6  A    between atoms: C_32  and  C_35
REMARK    7  A    between atoms: C_35  and  O_36
REMARK                            x       y       z     vdW  Elec       q    Type
REMARK                         _______ _______ _______ _____ _____    ______ ____
ROOT
ATOM      1  O   UNL     1      -7.636  49.871  28.249  0.00  0.00    +0.000 OA
ATOM      2  N   UNL     1      -7.684  47.684  27.641  0.00  0.00    +0.000 N 
ATOM      3  C   UNL     1      -8.297  48.878  27.967  0.00  0.00    +0.000 C 
ATOM      4  H   UNL     1      -8.271  46.852  27.512  0.00  0.00    +0.000 HD
ATOM      5  C   UNL     1      -6.285  47.488  27.539  0.00  0.00    +0.000 C 
ENDROOT
BRANCH   3   9
ATOM      6  N   UNL     1     -10.544  48.394  29.126  0.00  0.00    +0.000 NA
ATOM      7  N   UNL     1     -14.061  48.963  27.484  0.00  0.00    +0.000 N 
ATOM      8  C   UNL     1     -10.448  49.147  26.566  0.00  0.00    +0.000 C 
ATOM      9  C   UNL     1      -9.796  48.884  27.956  0.00  0.00    +0.000 C 
ATOM     10  C   UNL     1     -12.008  49.190  26.598  0.00  0.00    +0.000 A 
ATOM     11  C   UNL     1     -12.735  48.859  27.724  0.00  0.00    +0.000 A 
ATOM     12  C   UNL     1     -10.122  47.969  25.599  0.00  0.00    +0.000 C 
ATOM     13  C   UNL     1     -10.025  50.552  26.049  0.00  0.00    +0.000 C 
ATOM     14  C   UNL     1     -12.995  49.505  25.596  0.00  0.00    +0.000 A 
ATOM     15  C   UNL     1     -11.947  48.503  28.823  0.00  0.00    +0.000 C 
ATOM     16  C   UNL     1     -14.267  49.357  26.183  0.00  0.00    +0.000 A 
ATOM     17  C   UNL     1     -10.287  49.219  30.296  0.00  0.00    +0.000 C 
ATOM     18  C   UNL     1     -12.920  49.897  24.244  0.00  0.00    +0.000 A 
ATOM     19  C   UNL     1     -15.076  48.682  28.441  0.00  0.00    +0.000 C 
ATOM     20  C   UNL     1     -15.451  49.592  25.467  0.00  0.00    +0.000 A 
ATOM     21  C   UNL     1     -14.094  50.131  23.528  0.00  0.00    +0.000 A 
ATOM     22  C   UNL     1     -15.336  49.982  24.132  0.00  0.00    +0.000 A 
ENDBRANCH   3   9
BRANCH   5  25
ATOM     23  O   UNL     1      -5.190  49.304  26.580  0.00  0.00    +0.000 OA
ATOM     24  N   UNL     1      -4.831  48.926  28.885  0.00  0.00    +0.000 N 
ATOM     25  C   UNL     1      -5.364  48.648  27.603  0.00  0.00    +0.000 C 
ATOM     26  C   UNL     1      -5.037  48.083  30.068  0.00  0.00    +0.000 C 
BRANCH  24  27
ATOM     27  C   UNL     1      -4.068  50.087  29.102  0.00  0.00    +0.000 C 
ATOM     28  C   UNL     1      -2.703  50.174  28.662  0.00  0.00    +0.000 C 
ATOM     29  C   UNL     1      -1.466  50.260  28.267  0.00  0.00    +0.000 C 
ATOM     30  C   UNL     1      -1.208  51.246  27.148  0.00  0.00    +0.000 C 
BRANCH  27  31
ATOM     31  C   UNL     1      -4.630  51.259  29.758  0.00  0.00    +0.000 C 
ATOM     32  C   UNL     1      -4.162  51.664  31.142  0.00  0.00    +0.000 C 
ATOM     33  C   UNL     1      -5.178  52.396  28.916  0.00  0.00    +0.000 C 
ENDBRANCH  27  31
BRANCH  29  35
ATOM     34  O   UNL     1       0.689  49.804  29.250  0.00  0.00    +0.000 OA
ATOM     35  C   UNL     1      -0.422  49.419  28.913  0.00  0.00    +0.000 C 
BRANCH  35  36
ATOM     36  O   UNL     1      -0.782  48.134  29.117  0.00  0.00    +0.000 OA
ATOM     37  H   UNL     1      -1.202  47.848  28.279  0.00  0.00    +0.000 HD
ENDBRANCH  35  36
ENDBRANCH  29  35
ENDBRANCH  24  27
ENDBRANCH   5  25
BRANCH   5  38
ATOM     38  C   UNL     1      -5.641  46.182  27.102  0.00  0.00    +0.000 C 
ATOM     39  C   UNL     1      -6.108  45.089  28.117  0.00  0.00    +0.000 C 
ATOM     40  C   UNL     1      -6.208  45.818  25.700  0.00  0.00    +0.000 C 
ATOM     41  C   UNL     1      -4.094  46.229  27.085  0.00  0.00    +0.000 C 
ENDBRANCH   5  38
TORSDOF 7
ENDMDL
