REMARK  Name = 10940649_MilnamideD.pdbqt.pdb
REMARK  7 active torsions:
REMARK  status: ('A' for Active; 'I' for Inactive)
REMARK    1  A    between atoms: C_3  and  C_8
REMARK    2  A    between atoms: C_22  and  C_25
REMARK    3  A    between atoms: C_22  and  C_38
REMARK    4  A    between atoms: N_24  and  C_27
REMARK    5  A    between atoms: C_27  and  C_28
REMARK    6  A    between atoms: C_32  and  C_35
REMARK    7  A    between atoms: C_35  and  O_36
REMARK                            x       y       z     vdW  Elec       q    Type
REMARK                         _______ _______ _______ _____ _____    ______ ____
ROOT
ATOM      1  O   UNL     1       0.599  -0.025  -0.697  0.00  0.00    +0.000 OA
ATOM      2  N   UNL     1       0.900  -2.080   0.220  0.00  0.00    +0.000 N 
ATOM      3  C   UNL     1       0.105  -1.063  -0.273  0.00  0.00    +0.000 C 
ATOM      4  H   UNL     1       0.444  -2.888   0.659  0.00  0.00    +0.000 HD
ATOM      5  C   UNL     1       2.316  -2.070   0.239  0.00  0.00    +0.000 C 
ENDROOT
BRANCH   3   9
ATOM      6  N   UNL     1      -1.896  -2.673  -0.099  0.00  0.00    +0.000 NA
ATOM      7  N   UNL     1      -5.655  -1.585  -0.368  0.00  0.00    +0.000 N 
ATOM      8  C   UNL     1      -2.249  -0.096  -0.702  0.00  0.00    +0.000 C 
ATOM      9  C   UNL     1      -1.374  -1.305  -0.256  0.00  0.00    +0.000 C 
ATOM     10  C   UNL     1      -3.785  -0.367  -0.630  0.00  0.00    +0.000 A 
ATOM     11  C   UNL     1      -4.304  -1.616  -0.356  0.00  0.00    +0.000 A 
ATOM     12  C   UNL     1      -1.991   0.216  -2.206  0.00  0.00    +0.000 C 
ATOM     13  C   UNL     1      -2.015   1.102   0.263  0.00  0.00    +0.000 C 
ATOM     14  C   UNL     1      -4.934   0.478  -0.836  0.00  0.00    +0.000 A 
ATOM     15  C   UNL     1      -3.333  -2.598  -0.136  0.00  0.00    +0.000 C 
ATOM     16  C   UNL     1      -6.087  -0.313  -0.661  0.00  0.00    +0.000 A 
ATOM     17  C   UNL     1      -1.523  -3.232   1.191  0.00  0.00    +0.000 C 
ATOM     18  C   UNL     1      -5.097   1.840  -1.159  0.00  0.00    +0.000 A 
ATOM     19  C   UNL     1      -6.488  -2.714  -0.130  0.00  0.00    +0.000 C 
ATOM     20  C   UNL     1      -7.381   0.214  -0.794  0.00  0.00    +0.000 A 
ATOM     21  C   UNL     1      -6.381   2.369  -1.293  0.00  0.00    +0.000 A 
ATOM     22  C   UNL     1      -7.501   1.568  -1.111  0.00  0.00    +0.000 A 
ENDBRANCH   3   9
BRANCH   5  25
ATOM     23  O   UNL     1       3.319  -1.161  -1.655  0.00  0.00    +0.000 OA
ATOM     24  N   UNL     1       3.339   0.153   0.309  0.00  0.00    +0.000 N 
ATOM     25  C   UNL     1       3.063  -1.000  -0.465  0.00  0.00    +0.000 C 
ATOM     26  C   UNL     1       3.049   0.277   1.742  0.00  0.00    +0.000 C 
BRANCH  24  27
ATOM     27  C   UNL     1       3.906   1.293  -0.288  0.00  0.00    +0.000 C 
ATOM     28  C   UNL     1       4.090   2.509   0.455  0.00  0.00    +0.000 C 
ATOM     29  C   UNL     1       4.259   3.614   1.121  0.00  0.00    +0.000 C 
ATOM     30  C   UNL     1       5.699   4.000   1.385  0.00  0.00    +0.000 C 
BRANCH  27  31
ATOM     31  C   UNL     1       4.354   1.287  -1.673  0.00  0.00    +0.000 C 
ATOM     32  C   UNL     1       3.734   2.229  -2.686  0.00  0.00    +0.000 C 
ATOM     33  C   UNL     1       5.770   0.848  -1.998  0.00  0.00    +0.000 C 
ENDBRANCH  27  31
BRANCH  29  35
ATOM     34  O   UNL     1       1.909   4.110   1.344  0.00  0.00    +0.000 OA
ATOM     35  C   UNL     1       3.076   4.401   1.564  0.00  0.00    +0.000 C 
BRANCH  35  36
ATOM     36  O   UNL     1       3.374   5.519   2.259  0.00  0.00    +0.000 OA
ATOM     37  H   UNL     1       2.510   5.927   2.474  0.00  0.00    +0.000 HD
ENDBRANCH  35  36
ENDBRANCH  29  35
ENDBRANCH  24  27
ENDBRANCH   5  25
BRANCH   5  38
ATOM     38  C   UNL     1       3.166  -3.237   0.716  0.00  0.00    +0.000 C 
ATOM     39  C   UNL     1       2.543  -3.725   2.063  0.00  0.00    +0.000 C 
ATOM     40  C   UNL     1       3.030  -4.383  -0.327  0.00  0.00    +0.000 C 
ATOM     41  C   UNL     1       4.651  -2.867   0.950  0.00  0.00    +0.000 C 
ENDBRANCH   5  38
TORSDOF 7
