MODEL 1
REMARK VINA RESULT:      -6.8      0.000      0.000
REMARK  Name = 11167602_Regorafenib.pdbqt.pdb
REMARK  6 active torsions:
REMARK  status: ('A' for Active; 'I' for Inactive)
REMARK    1  A    between atoms: C_2  and  N_10
REMARK    2  A    between atoms: C_3  and  O_25
REMARK    3  A    between atoms: N_9  and  C_15
REMARK    4  A    between atoms: C_16  and  C_24
REMARK    5  A    between atoms: O_25  and  C_27
REMARK    6  A    between atoms: C_29  and  C_34
REMARK                            x       y       z     vdW  Elec       q    Type
REMARK                         _______ _______ _______ _____ _____    ______ ____
ROOT
ATOM      1  F   UNL     1       2.908  28.492  13.248  0.00  0.00    +0.000 F 
ATOM      2  C   UNL     1       0.839  28.757  12.130  0.00  0.00    +0.000 A 
ATOM      3  C   UNL     1       2.069  27.882   9.777  0.00  0.00    +0.000 A 
ATOM      4  C   UNL     1       2.193  28.410  12.115  0.00  0.00    +0.000 A 
ATOM      5  C   UNL     1       0.114  28.680  10.942  0.00  0.00    +0.000 A 
ATOM      6  C   UNL     1       2.820  27.986  10.948  0.00  0.00    +0.000 A 
ATOM      7  C   UNL     1       0.727  28.256   9.764  0.00  0.00    +0.000 A 
ENDROOT
BRANCH   2  10
ATOM      8  O   UNL     1       0.160  27.137  14.442  0.00  0.00    +0.000 OA
ATOM      9  N   UNL     1      -0.552  29.077  15.480  0.00  0.00    +0.000 N 
ATOM     10  N   UNL     1       0.267  29.170  13.352  0.00  0.00    +0.000 N 
ATOM     11  C   UNL     1      -0.024  28.347  14.427  0.00  0.00    +0.000 C 
ATOM     12  H   UNL     1      -0.632  30.077  15.368  0.00  0.00    +0.000 HD
ATOM     13  H   UNL     1       0.046  30.153  13.421  0.00  0.00    +0.000 HD
BRANCH   9  15
ATOM     14 CL   UNL     1      -2.158  26.881  20.739  0.00  0.00    +0.000 Cl
ATOM     15  C   UNL     1      -0.963  28.546  16.717  0.00  0.00    +0.000 A 
ATOM     16  C   UNL     1      -0.394  28.115  19.049  0.00  0.00    +0.000 A 
ATOM     17  C   UNL     1      -0.068  28.617  17.784  0.00  0.00    +0.000 A 
ATOM     18  C   UNL     1      -2.209  27.961  16.917  0.00  0.00    +0.000 A 
ATOM     19  C   UNL     1      -1.650  27.531  19.229  0.00  0.00    +0.000 A 
ATOM     20  C   UNL     1      -2.551  27.455  18.167  0.00  0.00    +0.000 A 
BRANCH  16  24
ATOM     21  F   UNL     1       1.177  27.026  20.476  0.00  0.00    +0.000 F 
ATOM     22  F   UNL     1       1.654  29.042  19.839  0.00  0.00    +0.000 F 
ATOM     23  F   UNL     1       0.081  28.700  21.311  0.00  0.00    +0.000 F 
ATOM     24  C   UNL     1       0.612  28.225  20.151  0.00  0.00    +0.000 C 
ENDBRANCH  16  24
ENDBRANCH   9  15
ENDBRANCH   2  10
BRANCH   3  25
ATOM     25  O   UNL     1       2.639  27.543   8.572  0.00  0.00    +0.000 OA
BRANCH  25  27
ATOM     26  N   UNL     1       3.639  30.507   5.811  0.00  0.00    +0.000 NA
ATOM     27  C   UNL     1       2.998  28.564   7.721  0.00  0.00    +0.000 A 
ATOM     28  C   UNL     1       4.195  29.264   7.828  0.00  0.00    +0.000 A 
ATOM     29  C   UNL     1       4.459  30.222   6.863  0.00  0.00    +0.000 A 
ATOM     30  C   UNL     1       2.140  28.803   6.652  0.00  0.00    +0.000 A 
ATOM     31  C   UNL     1       2.501  29.779   5.738  0.00  0.00    +0.000 A 
BRANCH  29  34
ATOM     32  O   UNL     1       5.709  32.210   6.658  0.00  0.00    +0.000 OA
ATOM     33  N   UNL     1       6.788  30.267   7.386  0.00  0.00    +0.000 N 
ATOM     34  C   UNL     1       5.709  31.019   6.954  0.00  0.00    +0.000 C 
ATOM     35  C   UNL     1       8.164  30.617   7.611  0.00  0.00    +0.000 C 
ATOM     36  H   UNL     1       6.569  29.290   7.574  0.00  0.00    +0.000 HD
ENDBRANCH  29  34
ENDBRANCH  25  27
ENDBRANCH   3  25
TORSDOF 6
ENDMDL
MODEL 2
REMARK VINA RESULT:      -6.7     23.430     25.499
REMARK  Name = 11167602_Regorafenib.pdbqt.pdb
REMARK  6 active torsions:
REMARK  status: ('A' for Active; 'I' for Inactive)
REMARK    1  A    between atoms: C_2  and  N_10
REMARK    2  A    between atoms: C_3  and  O_25
REMARK    3  A    between atoms: N_9  and  C_15
REMARK    4  A    between atoms: C_16  and  C_24
REMARK    5  A    between atoms: O_25  and  C_27
REMARK    6  A    between atoms: C_29  and  C_34
REMARK                            x       y       z     vdW  Elec       q    Type
REMARK                         _______ _______ _______ _____ _____    ______ ____
ROOT
ATOM      1  F   UNL     1      -5.299  46.823  29.462  0.00  0.00    +0.000 F 
ATOM      2  C   UNL     1      -4.226  45.738  27.653  0.00  0.00    +0.000 A 
ATOM      3  C   UNL     1      -6.551  46.095  26.142  0.00  0.00    +0.000 A 
ATOM      4  C   UNL     1      -5.346  46.374  28.199  0.00  0.00    +0.000 A 
ATOM      5  C   UNL     1      -4.296  45.264  26.344  0.00  0.00    +0.000 A 
ATOM      6  C   UNL     1      -6.513  46.545  27.462  0.00  0.00    +0.000 A 
ATOM      7  C   UNL     1      -5.458  45.429  25.592  0.00  0.00    +0.000 A 
ENDROOT
BRANCH   2  10
ATOM      8  O   UNL     1      -1.454  46.196  26.918  0.00  0.00    +0.000 OA
ATOM      9  N   UNL     1      -0.882  45.655  29.092  0.00  0.00    +0.000 N 
ATOM     10  N   UNL     1      -3.073  45.607  28.456  0.00  0.00    +0.000 N 
ATOM     11  C   UNL     1      -1.773  45.853  28.048  0.00  0.00    +0.000 C 
ATOM     12  H   UNL     1      -1.259  45.400  29.993  0.00  0.00    +0.000 HD
ATOM     13  H   UNL     1      -3.233  45.291  29.402  0.00  0.00    +0.000 HD
BRANCH   9  15
ATOM     14 CL   UNL     1       4.980  46.439  28.799  0.00  0.00    +0.000 Cl
ATOM     15  C   UNL     1       0.515  45.809  29.013  0.00  0.00    +0.000 A 
ATOM     16  C   UNL     1       2.423  47.313  29.234  0.00  0.00    +0.000 A 
ATOM     17  C   UNL     1       1.045  47.070  29.287  0.00  0.00    +0.000 A 
ATOM     18  C   UNL     1       1.378  44.771  28.680  0.00  0.00    +0.000 A 
ATOM     19  C   UNL     1       3.271  46.257  28.896  0.00  0.00    +0.000 A 
ATOM     20  C   UNL     1       2.750  44.993  28.620  0.00  0.00    +0.000 A 
BRANCH  16  24
ATOM     21  F   UNL     1       3.800  48.712  30.587  0.00  0.00    +0.000 F 
ATOM     22  F   UNL     1       3.594  49.254  28.499  0.00  0.00    +0.000 F 
ATOM     23  F   UNL     1       1.933  49.555  29.881  0.00  0.00    +0.000 F 
ATOM     24  C   UNL     1       2.926  48.688  29.540  0.00  0.00    +0.000 C 
ENDBRANCH  16  24
ENDBRANCH   9  15
ENDBRANCH   2  10
BRANCH   3  25
ATOM     25  O   UNL     1      -7.694  46.164  25.381  0.00  0.00    +0.000 OA
BRANCH  25  27
ATOM     26  N   UNL     1      -8.747  50.016  24.171  0.00  0.00    +0.000 NA
ATOM     27  C   UNL     1      -8.112  47.406  24.959  0.00  0.00    +0.000 A 
ATOM     28  C   UNL     1      -9.394  47.899  25.181  0.00  0.00    +0.000 A 
ATOM     29  C   UNL     1      -9.658  49.192  24.763  0.00  0.00    +0.000 A 
ATOM     30  C   UNL     1      -7.141  48.217  24.380  0.00  0.00    +0.000 A 
ATOM     31  C   UNL     1      -7.508  49.498  24.002  0.00  0.00    +0.000 A 
BRANCH  29  34
ATOM     32  O   UNL     1     -11.792  49.252  25.763  0.00  0.00    +0.000 OA
ATOM     33  N   UNL     1     -11.269  50.832  24.121  0.00  0.00    +0.000 N 
ATOM     34  C   UNL     1     -11.022  49.750  24.948  0.00  0.00    +0.000 C 
ATOM     35  C   UNL     1     -12.432  51.663  23.960  0.00  0.00    +0.000 C 
ATOM     36  H   UNL     1     -10.490  51.083  23.513  0.00  0.00    +0.000 HD
ENDBRANCH  29  34
ENDBRANCH  25  27
ENDBRANCH   3  25
TORSDOF 6
ENDMDL
MODEL 3
REMARK VINA RESULT:      -6.6      1.702      2.158
REMARK  Name = 11167602_Regorafenib.pdbqt.pdb
REMARK  6 active torsions:
REMARK  status: ('A' for Active; 'I' for Inactive)
REMARK    1  A    between atoms: C_2  and  N_10
REMARK    2  A    between atoms: C_3  and  O_25
REMARK    3  A    between atoms: N_9  and  C_15
REMARK    4  A    between atoms: C_16  and  C_24
REMARK    5  A    between atoms: O_25  and  C_27
REMARK    6  A    between atoms: C_29  and  C_34
REMARK                            x       y       z     vdW  Elec       q    Type
REMARK                         _______ _______ _______ _____ _____    ______ ____
ROOT
ATOM      1  F   UNL     1       2.851  28.499  13.304  0.00  0.00    +0.000 F 
ATOM      2  C   UNL     1       0.772  28.861  12.233  0.00  0.00    +0.000 A 
ATOM      3  C   UNL     1       1.916  27.964   9.845  0.00  0.00    +0.000 A 
ATOM      4  C   UNL     1       2.110  28.459  12.186  0.00  0.00    +0.000 A 
ATOM      5  C   UNL     1       0.019  28.827  11.060  0.00  0.00    +0.000 A 
ATOM      6  C   UNL     1       2.694  28.024  11.001  0.00  0.00    +0.000 A 
ATOM      7  C   UNL     1       0.590  28.393   9.864  0.00  0.00    +0.000 A 
ENDROOT
BRANCH   2  10
ATOM      8  O   UNL     1       0.370  27.300  14.649  0.00  0.00    +0.000 OA
ATOM      9  N   UNL     1      -0.435  29.223  15.650  0.00  0.00    +0.000 N 
ATOM     10  N   UNL     1       0.243  29.283  13.471  0.00  0.00    +0.000 N 
ATOM     11  C   UNL     1       0.087  28.489  14.596  0.00  0.00    +0.000 C 
ATOM     12  H   UNL     1      -0.604  30.207  15.502  0.00  0.00    +0.000 HD
ATOM     13  H   UNL     1      -0.054  30.247  13.514  0.00  0.00    +0.000 HD
BRANCH   9  15
ATOM     14 CL   UNL     1      -1.781  27.050  20.991  0.00  0.00    +0.000 Cl
ATOM     15  C   UNL     1      -0.725  28.718  16.931  0.00  0.00    +0.000 A 
ATOM     16  C   UNL     1      -2.320  27.542  18.354  0.00  0.00    +0.000 A 
ATOM     17  C   UNL     1      -1.950  28.075  17.113  0.00  0.00    +0.000 A 
ATOM     18  C   UNL     1       0.147  28.830  18.009  0.00  0.00    +0.000 A 
ATOM     19  C   UNL     1      -1.431  27.667  19.422  0.00  0.00    +0.000 A 
ATOM     20  C   UNL     1      -0.205  28.308  19.250  0.00  0.00    +0.000 A 
BRANCH  16  24
ATOM     21  F   UNL     1      -3.540  25.528  18.733  0.00  0.00    +0.000 F 
ATOM     22  F   UNL     1      -4.405  27.363  19.495  0.00  0.00    +0.000 F 
ATOM     23  F   UNL     1      -4.403  26.957  17.352  0.00  0.00    +0.000 F 
ATOM     24  C   UNL     1      -3.648  26.864  18.480  0.00  0.00    +0.000 C 
ENDBRANCH  16  24
ENDBRANCH   9  15
ENDBRANCH   2  10
BRANCH   3  25
ATOM     25  O   UNL     1       2.446  27.616   8.625  0.00  0.00    +0.000 OA
BRANCH  25  27
ATOM     26  N   UNL     1       3.498  30.567   5.869  0.00  0.00    +0.000 NA
ATOM     27  C   UNL     1       2.824  28.632   7.775  0.00  0.00    +0.000 A 
ATOM     28  C   UNL     1       4.043  29.295   7.871  0.00  0.00    +0.000 A 
ATOM     29  C   UNL     1       4.322  30.251   6.907  0.00  0.00    +0.000 A 
ATOM     30  C   UNL     1       1.959  28.903   6.720  0.00  0.00    +0.000 A 
ATOM     31  C   UNL     1       2.337  29.875   5.806  0.00  0.00    +0.000 A 
BRANCH  29  34
ATOM     32  O   UNL     1       5.622  32.210   6.731  0.00  0.00    +0.000 OA
ATOM     33  N   UNL     1       6.666  30.214   7.359  0.00  0.00    +0.000 N 
ATOM     34  C   UNL     1       5.596  31.010   6.986  0.00  0.00    +0.000 C 
ATOM     35  C   UNL     1       8.058  30.517   7.552  0.00  0.00    +0.000 C 
ATOM     36  H   UNL     1       6.425  29.237   7.521  0.00  0.00    +0.000 HD
ENDBRANCH  29  34
ENDBRANCH  25  27
ENDBRANCH   3  25
TORSDOF 6
ENDMDL
MODEL 4
REMARK VINA RESULT:      -6.5     22.274     24.898
REMARK  Name = 11167602_Regorafenib.pdbqt.pdb
REMARK  6 active torsions:
REMARK  status: ('A' for Active; 'I' for Inactive)
REMARK    1  A    between atoms: C_2  and  N_10
REMARK    2  A    between atoms: C_3  and  O_25
REMARK    3  A    between atoms: N_9  and  C_15
REMARK    4  A    between atoms: C_16  and  C_24
REMARK    5  A    between atoms: O_25  and  C_27
REMARK    6  A    between atoms: C_29  and  C_34
REMARK                            x       y       z     vdW  Elec       q    Type
REMARK                         _______ _______ _______ _____ _____    ______ ____
ROOT
ATOM      1  F   UNL     1     -20.967  35.976   7.301  0.00  0.00    +0.000 F 
ATOM      2  C   UNL     1     -18.982  34.767   7.746  0.00  0.00    +0.000 A 
ATOM      3  C   UNL     1     -20.417  32.397   7.374  0.00  0.00    +0.000 A 
ATOM      4  C   UNL     1     -20.344  34.795   7.432  0.00  0.00    +0.000 A 
ATOM      5  C   UNL     1     -18.353  33.532   7.893  0.00  0.00    +0.000 A 
ATOM      6  C   UNL     1     -21.071  33.623   7.258  0.00  0.00    +0.000 A 
ATOM      7  C   UNL     1     -19.068  32.347   7.721  0.00  0.00    +0.000 A 
ENDROOT
BRANCH   2  10
ATOM      8  O   UNL     1     -17.997  36.555   5.680  0.00  0.00    +0.000 OA
ATOM      9  N   UNL     1     -17.267  37.957   7.367  0.00  0.00    +0.000 N 
ATOM     10  N   UNL     1     -18.304  35.995   7.899  0.00  0.00    +0.000 N 
ATOM     11  C   UNL     1     -17.869  36.812   6.869  0.00  0.00    +0.000 C 
ATOM     12  H   UNL     1     -17.242  38.080   8.369  0.00  0.00    +0.000 HD
ATOM     13  H   UNL     1     -18.120  36.276   8.852  0.00  0.00    +0.000 HD
BRANCH   9  15
ATOM     14 CL   UNL     1     -15.037  42.363   4.099  0.00  0.00    +0.000 Cl
ATOM     15  C   UNL     1     -16.707  38.988   6.590  0.00  0.00    +0.000 A 
ATOM     16  C   UNL     1     -17.069  41.105   5.433  0.00  0.00    +0.000 A 
ATOM     17  C   UNL     1     -17.542  40.037   6.205  0.00  0.00    +0.000 A 
ATOM     18  C   UNL     1     -15.373  39.007   6.197  0.00  0.00    +0.000 A 
ATOM     19  C   UNL     1     -15.727  41.103   5.048  0.00  0.00    +0.000 A 
ATOM     20  C   UNL     1     -14.885  40.059   5.428  0.00  0.00    +0.000 A 
BRANCH  16  24
ATOM     21  F   UNL     1     -19.274  42.006   5.552  0.00  0.00    +0.000 F 
ATOM     22  F   UNL     1     -17.632  43.419   5.515  0.00  0.00    +0.000 F 
ATOM     23  F   UNL     1     -18.178  42.323   3.710  0.00  0.00    +0.000 F 
ATOM     24  C   UNL     1     -18.018  42.198   5.055  0.00  0.00    +0.000 C 
ENDBRANCH  16  24
ENDBRANCH   9  15
ENDBRANCH   2  10
BRANCH   3  25
ATOM     25  O   UNL     1     -21.088  31.200   7.290  0.00  0.00    +0.000 OA
BRANCH  25  27
ATOM     26  N   UNL     1     -23.391  30.147  10.606  0.00  0.00    +0.000 NA
ATOM     27  C   UNL     1     -21.805  30.786   8.390  0.00  0.00    +0.000 A 
ATOM     28  C   UNL     1     -21.222  30.191   9.504  0.00  0.00    +0.000 A 
ATOM     29  C   UNL     1     -22.054  29.886  10.569  0.00  0.00    +0.000 A 
ATOM     30  C   UNL     1     -23.162  31.093   8.390  0.00  0.00    +0.000 A 
ATOM     31  C   UNL     1     -23.904  30.750   9.509  0.00  0.00    +0.000 A 
BRANCH  29  34
ATOM     32  O   UNL     1     -20.532  28.453  11.659  0.00  0.00    +0.000 OA
ATOM     33  N   UNL     1     -22.144  29.569  12.933  0.00  0.00    +0.000 N 
ATOM     34  C   UNL     1     -21.483  29.220  11.768  0.00  0.00    +0.000 C 
ATOM     35  C   UNL     1     -21.940  29.170  14.300  0.00  0.00    +0.000 C 
ATOM     36  H   UNL     1     -22.915  30.222  12.800  0.00  0.00    +0.000 HD
ENDBRANCH  29  34
ENDBRANCH  25  27
ENDBRANCH   3  25
TORSDOF 6
ENDMDL
MODEL 5
REMARK VINA RESULT:      -6.5     23.649     26.295
REMARK  Name = 11167602_Regorafenib.pdbqt.pdb
REMARK  6 active torsions:
REMARK  status: ('A' for Active; 'I' for Inactive)
REMARK    1  A    between atoms: C_2  and  N_10
REMARK    2  A    between atoms: C_3  and  O_25
REMARK    3  A    between atoms: N_9  and  C_15
REMARK    4  A    between atoms: C_16  and  C_24
REMARK    5  A    between atoms: O_25  and  C_27
REMARK    6  A    between atoms: C_29  and  C_34
REMARK                            x       y       z     vdW  Elec       q    Type
REMARK                         _______ _______ _______ _____ _____    ______ ____
ROOT
ATOM      1  F   UNL     1      -4.471  47.133  29.256  0.00  0.00    +0.000 F 
ATOM      2  C   UNL     1      -3.468  46.323  27.271  0.00  0.00    +0.000 A 
ATOM      3  C   UNL     1      -6.009  46.193  26.114  0.00  0.00    +0.000 A 
ATOM      4  C   UNL     1      -4.604  46.699  27.993  0.00  0.00    +0.000 A 
ATOM      5  C   UNL     1      -3.625  45.861  25.965  0.00  0.00    +0.000 A 
ATOM      6  C   UNL     1      -5.875  46.625  27.433  0.00  0.00    +0.000 A 
ATOM      7  C   UNL     1      -4.892  45.782  25.389  0.00  0.00    +0.000 A 
ENDROOT
BRANCH   2  10
ATOM      8  O   UNL     1      -1.540  48.488  27.087  0.00  0.00    +0.000 OA
ATOM      9  N   UNL     1      -0.202  47.301  28.551  0.00  0.00    +0.000 N 
ATOM     10  N   UNL     1      -2.209  46.432  27.899  0.00  0.00    +0.000 N 
ATOM     11  C   UNL     1      -1.337  47.501  27.781  0.00  0.00    +0.000 C 
ATOM     12  H   UNL     1      -0.152  46.461  29.109  0.00  0.00    +0.000 HD
ATOM     13  H   UNL     1      -1.935  45.644  28.469  0.00  0.00    +0.000 HD
BRANCH   9  15
ATOM     14 CL   UNL     1       4.289  51.142  28.924  0.00  0.00    +0.000 Cl
ATOM     15  C   UNL     1       0.886  48.189  28.649  0.00  0.00    +0.000 A 
ATOM     16  C   UNL     1       1.681  50.483  28.419  0.00  0.00    +0.000 A 
ATOM     17  C   UNL     1       0.657  49.531  28.348  0.00  0.00    +0.000 A 
ATOM     18  C   UNL     1       2.163  47.789  29.029  0.00  0.00    +0.000 A 
ATOM     19  C   UNL     1       2.956  50.060  28.802  0.00  0.00    +0.000 A 
ATOM     20  C   UNL     1       3.194  48.720  29.105  0.00  0.00    +0.000 A 
BRANCH  16  24
ATOM     21  F   UNL     1       0.111  52.069  27.578  0.00  0.00    +0.000 F 
ATOM     22  F   UNL     1       1.431  52.733  29.164  0.00  0.00    +0.000 F 
ATOM     23  F   UNL     1       2.204  52.430  27.147  0.00  0.00    +0.000 F 
ATOM     24  C   UNL     1       1.368  51.907  28.084  0.00  0.00    +0.000 C 
ENDBRANCH  16  24
ENDBRANCH   9  15
ENDBRANCH   2  10
BRANCH   3  25
ATOM     25  O   UNL     1      -7.239  46.024  25.522  0.00  0.00    +0.000 OA
BRANCH  25  27
ATOM     26  N   UNL     1      -9.032  49.559  24.217  0.00  0.00    +0.000 NA
ATOM     27  C   UNL     1      -7.893  47.148  25.068  0.00  0.00    +0.000 A 
ATOM     28  C   UNL     1      -9.255  47.365  25.247  0.00  0.00    +0.000 A 
ATOM     29  C   UNL     1      -9.769  48.571  24.798  0.00  0.00    +0.000 A 
ATOM     30  C   UNL     1      -7.095  48.135  24.500  0.00  0.00    +0.000 A 
ATOM     31  C   UNL     1      -7.708  49.308  24.089  0.00  0.00    +0.000 A 
BRANCH  29  34
ATOM     32  O   UNL     1     -11.919  48.125  25.656  0.00  0.00    +0.000 OA
ATOM     33  N   UNL     1     -11.641  49.920  24.185  0.00  0.00    +0.000 N 
ATOM     34  C   UNL     1     -11.224  48.835  24.938  0.00  0.00    +0.000 C 
ATOM     35  C   UNL     1     -12.935  50.522  24.016  0.00  0.00    +0.000 C 
ATOM     36  H   UNL     1     -10.898  50.371  23.653  0.00  0.00    +0.000 HD
ENDBRANCH  29  34
ENDBRANCH  25  27
ENDBRANCH   3  25
TORSDOF 6
ENDMDL
MODEL 6
REMARK VINA RESULT:      -6.4     16.790     18.600
REMARK  Name = 11167602_Regorafenib.pdbqt.pdb
REMARK  6 active torsions:
REMARK  status: ('A' for Active; 'I' for Inactive)
REMARK    1  A    between atoms: C_2  and  N_10
REMARK    2  A    between atoms: C_3  and  O_25
REMARK    3  A    between atoms: N_9  and  C_15
REMARK    4  A    between atoms: C_16  and  C_24
REMARK    5  A    between atoms: O_25  and  C_27
REMARK    6  A    between atoms: C_29  and  C_34
REMARK                            x       y       z     vdW  Elec       q    Type
REMARK                         _______ _______ _______ _____ _____    ______ ____
ROOT
ATOM      1  F   UNL     1     -11.483  33.433   7.414  0.00  0.00    +0.000 F 
ATOM      2  C   UNL     1     -11.805  34.251   5.216  0.00  0.00    +0.000 A 
ATOM      3  C   UNL     1     -10.748  31.855   4.237  0.00  0.00    +0.000 A 
ATOM      4  C   UNL     1     -11.378  33.246   6.089  0.00  0.00    +0.000 A 
ATOM      5  C   UNL     1     -11.676  34.047   3.843  0.00  0.00    +0.000 A 
ATOM      6  C   UNL     1     -10.837  32.055   5.614  0.00  0.00    +0.000 A 
ATOM      7  C   UNL     1     -11.137  32.858   3.351  0.00  0.00    +0.000 A 
ENDROOT
BRANCH   2  10
ATOM      8  O   UNL     1     -14.394  35.458   4.690  0.00  0.00    +0.000 OA
ATOM      9  N   UNL     1     -13.839  37.100   6.219  0.00  0.00    +0.000 N 
ATOM     10  N   UNL     1     -12.352  35.429   5.767  0.00  0.00    +0.000 N 
ATOM     11  C   UNL     1     -13.603  35.949   5.484  0.00  0.00    +0.000 C 
ATOM     12  H   UNL     1     -13.126  37.400   6.868  0.00  0.00    +0.000 HD
ATOM     13  H   UNL     1     -11.755  35.927   6.413  0.00  0.00    +0.000 HD
BRANCH   9  15
ATOM     14 CL   UNL     1     -18.678  40.501   5.943  0.00  0.00    +0.000 Cl
ATOM     15  C   UNL     1     -15.008  37.882   6.161  0.00  0.00    +0.000 A 
ATOM     16  C   UNL     1     -15.976  40.092   5.803  0.00  0.00    +0.000 A 
ATOM     17  C   UNL     1     -14.867  39.241   5.881  0.00  0.00    +0.000 A 
ATOM     18  C   UNL     1     -16.282  37.362   6.366  0.00  0.00    +0.000 A 
ATOM     19  C   UNL     1     -17.245  39.550   6.014  0.00  0.00    +0.000 A 
ATOM     20  C   UNL     1     -17.396  38.192   6.295  0.00  0.00    +0.000 A 
BRANCH  16  24
ATOM     21  F   UNL     1     -16.128  42.361   6.522  0.00  0.00    +0.000 F 
ATOM     22  F   UNL     1     -14.449  41.838   5.255  0.00  0.00    +0.000 F 
ATOM     23  F   UNL     1     -16.459  41.970   4.416  0.00  0.00    +0.000 F 
ATOM     24  C   UNL     1     -15.754  41.540   5.498  0.00  0.00    +0.000 C 
ENDBRANCH  16  24
ENDBRANCH   9  15
ENDBRANCH   2  10
BRANCH   3  25
ATOM     25  O   UNL     1     -10.156  30.737   3.699  0.00  0.00    +0.000 OA
BRANCH  25  27
ATOM     26  N   UNL     1     -10.498  27.243   5.955  0.00  0.00    +0.000 NA
ATOM     27  C   UNL     1     -10.191  29.574   4.436  0.00  0.00    +0.000 A 
ATOM     28  C   UNL     1      -9.232  29.243   5.388  0.00  0.00    +0.000 A 
ATOM     29  C   UNL     1      -9.427  28.074   6.104  0.00  0.00    +0.000 A 
ATOM     30  C   UNL     1     -11.313  28.770   4.263  0.00  0.00    +0.000 A 
ATOM     31  C   UNL     1     -11.414  27.624   5.035  0.00  0.00    +0.000 A 
BRANCH  29  34
ATOM     32  O   UNL     1      -8.646  26.739   7.884  0.00  0.00    +0.000 OA
ATOM     33  N   UNL     1      -7.258  28.421   7.040  0.00  0.00    +0.000 N 
ATOM     34  C   UNL     1      -8.413  27.661   7.108  0.00  0.00    +0.000 C 
ATOM     35  C   UNL     1      -6.042  28.378   7.806  0.00  0.00    +0.000 C 
ATOM     36  H   UNL     1      -7.273  29.144   6.322  0.00  0.00    +0.000 HD
ENDBRANCH  29  34
ENDBRANCH  25  27
ENDBRANCH   3  25
TORSDOF 6
ENDMDL
MODEL 7
REMARK VINA RESULT:      -6.4     28.347     30.551
REMARK  Name = 11167602_Regorafenib.pdbqt.pdb
REMARK  6 active torsions:
REMARK  status: ('A' for Active; 'I' for Inactive)
REMARK    1  A    between atoms: C_2  and  N_10
REMARK    2  A    between atoms: C_3  and  O_25
REMARK    3  A    between atoms: N_9  and  C_15
REMARK    4  A    between atoms: C_16  and  C_24
REMARK    5  A    between atoms: O_25  and  C_27
REMARK    6  A    between atoms: C_29  and  C_34
REMARK                            x       y       z     vdW  Elec       q    Type
REMARK                         _______ _______ _______ _____ _____    ______ ____
ROOT
ATOM      1  F   UNL     1     -26.312  38.144  21.177  0.00  0.00    +0.000 F 
ATOM      2  C   UNL     1     -24.206  38.255  20.102  0.00  0.00    +0.000 A 
ATOM      3  C   UNL     1     -24.544  35.599  19.300  0.00  0.00    +0.000 A 
ATOM      4  C   UNL     1     -25.356  37.542  20.452  0.00  0.00    +0.000 A 
ATOM      5  C   UNL     1     -23.216  37.612  19.361  0.00  0.00    +0.000 A 
ATOM      6  C   UNL     1     -25.529  36.215  20.071  0.00  0.00    +0.000 A 
ATOM      7  C   UNL     1     -23.376  36.283  18.970  0.00  0.00    +0.000 A 
ENDROOT
BRANCH   2  10
ATOM      8  O   UNL     1     -25.129  40.642  18.728  0.00  0.00    +0.000 OA
ATOM      9  N   UNL     1     -24.333  41.871  20.517  0.00  0.00    +0.000 N 
ATOM     10  N   UNL     1     -24.102  39.601  20.514  0.00  0.00    +0.000 N 
ATOM     11  C   UNL     1     -24.575  40.699  19.817  0.00  0.00    +0.000 C 
ATOM     12  H   UNL     1     -23.894  41.798  21.423  0.00  0.00    +0.000 HD
ATOM     13  H   UNL     1     -23.624  39.753  21.392  0.00  0.00    +0.000 HD
BRANCH   9  15
ATOM     14 CL   UNL     1     -25.661  47.322  18.624  0.00  0.00    +0.000 Cl
ATOM     15  C   UNL     1     -24.677  43.166  20.086  0.00  0.00    +0.000 A 
ATOM     16  C   UNL     1     -24.058  45.108  18.745  0.00  0.00    +0.000 A 
ATOM     17  C   UNL     1     -23.796  43.819  19.224  0.00  0.00    +0.000 A 
ATOM     18  C   UNL     1     -25.845  43.813  20.475  0.00  0.00    +0.000 A 
ATOM     19  C   UNL     1     -25.235  45.739  19.150  0.00  0.00    +0.000 A 
ATOM     20  C   UNL     1     -26.123  45.095  20.011  0.00  0.00    +0.000 A 
BRANCH  16  24
ATOM     21  F   UNL     1     -23.636  46.188  16.661  0.00  0.00    +0.000 F 
ATOM     22  F   UNL     1     -22.470  46.844  18.367  0.00  0.00    +0.000 F 
ATOM     23  F   UNL     1     -22.072  44.908  17.443  0.00  0.00    +0.000 F 
ATOM     24  C   UNL     1     -23.071  45.750  17.823  0.00  0.00    +0.000 C 
ENDBRANCH  16  24
ENDBRANCH   9  15
ENDBRANCH   2  10
BRANCH   3  25
ATOM     25  O   UNL     1     -24.614  34.270  18.953  0.00  0.00    +0.000 OA
BRANCH  25  27
ATOM     26  N   UNL     1     -27.981  32.735  17.025  0.00  0.00    +0.000 NA
ATOM     27  C   UNL     1     -25.741  33.837  18.292  0.00  0.00    +0.000 A 
ATOM     28  C   UNL     1     -26.116  34.299  17.034  0.00  0.00    +0.000 A 
ATOM     29  C   UNL     1     -27.238  33.727  16.457  0.00  0.00    +0.000 A 
ATOM     30  C   UNL     1     -26.455  32.810  18.902  0.00  0.00    +0.000 A 
ATOM     31  C   UNL     1     -27.559  32.303  18.236  0.00  0.00    +0.000 A 
BRANCH  29  34
ATOM     32  O   UNL     1     -28.252  33.445  14.347  0.00  0.00    +0.000 OA
ATOM     33  N   UNL     1     -27.418  35.551  14.927  0.00  0.00    +0.000 N 
ATOM     34  C   UNL     1     -27.697  34.210  15.129  0.00  0.00    +0.000 C 
ATOM     35  C   UNL     1     -27.672  36.419  13.810  0.00  0.00    +0.000 C 
ATOM     36  H   UNL     1     -26.944  36.003  15.708  0.00  0.00    +0.000 HD
ENDBRANCH  29  34
ENDBRANCH  25  27
ENDBRANCH   3  25
TORSDOF 6
ENDMDL
MODEL 8
REMARK VINA RESULT:      -6.4     22.654     25.473
REMARK  Name = 11167602_Regorafenib.pdbqt.pdb
REMARK  6 active torsions:
REMARK  status: ('A' for Active; 'I' for Inactive)
REMARK    1  A    between atoms: C_2  and  N_10
REMARK    2  A    between atoms: C_3  and  O_25
REMARK    3  A    between atoms: N_9  and  C_15
REMARK    4  A    between atoms: C_16  and  C_24
REMARK    5  A    between atoms: O_25  and  C_27
REMARK    6  A    between atoms: C_29  and  C_34
REMARK                            x       y       z     vdW  Elec       q    Type
REMARK                         _______ _______ _______ _____ _____    ______ ____
ROOT
ATOM      1  F   UNL     1     -20.698  36.617   7.255  0.00  0.00    +0.000 F 
ATOM      2  C   UNL     1     -18.707  35.374   7.556  0.00  0.00    +0.000 A 
ATOM      3  C   UNL     1     -20.197  33.030   7.248  0.00  0.00    +0.000 A 
ATOM      4  C   UNL     1     -20.086  35.426   7.331  0.00  0.00    +0.000 A 
ATOM      5  C   UNL     1     -18.088  34.129   7.646  0.00  0.00    +0.000 A 
ATOM      6  C   UNL     1     -20.840  34.266   7.190  0.00  0.00    +0.000 A 
ATOM      7  C   UNL     1     -18.830  32.957   7.506  0.00  0.00    +0.000 A 
ENDROOT
BRANCH   2  10
ATOM      8  O   UNL     1     -17.909  37.220   5.460  0.00  0.00    +0.000 OA
ATOM      9  N   UNL     1     -16.999  38.560   7.110  0.00  0.00    +0.000 N 
ATOM     10  N   UNL     1     -18.003  36.591   7.680  0.00  0.00    +0.000 N 
ATOM     11  C   UNL     1     -17.661  37.437   6.639  0.00  0.00    +0.000 C 
ATOM     12  H   UNL     1     -16.874  38.650   8.108  0.00  0.00    +0.000 HD
ATOM     13  H   UNL     1     -17.722  36.839   8.619  0.00  0.00    +0.000 HD
BRANCH   9  15
ATOM     14 CL   UNL     1     -15.058  43.035   3.754  0.00  0.00    +0.000 Cl
ATOM     15  C   UNL     1     -16.506  39.611   6.316  0.00  0.00    +0.000 A 
ATOM     16  C   UNL     1     -17.023  41.616   5.025  0.00  0.00    +0.000 A 
ATOM     17  C   UNL     1     -17.425  40.538   5.823  0.00  0.00    +0.000 A 
ATOM     18  C   UNL     1     -15.159  39.764   6.006  0.00  0.00    +0.000 A 
ATOM     19  C   UNL     1     -15.666  41.750   4.725  0.00  0.00    +0.000 A 
ATOM     20  C   UNL     1     -14.740  40.828   5.213  0.00  0.00    +0.000 A 
BRANCH  16  24
ATOM     21  F   UNL     1     -18.191  42.560   3.172  0.00  0.00    +0.000 F 
ATOM     22  F   UNL     1     -19.303  42.309   5.016  0.00  0.00    +0.000 F 
ATOM     23  F   UNL     1     -17.785  43.868   4.852  0.00  0.00    +0.000 F 
ATOM     24  C   UNL     1     -18.059  42.574   4.530  0.00  0.00    +0.000 C 
ENDBRANCH  16  24
ENDBRANCH   9  15
ENDBRANCH   2  10
BRANCH   3  25
ATOM     25  O   UNL     1     -20.891  31.843   7.192  0.00  0.00    +0.000 OA
BRANCH  25  27
ATOM     26  N   UNL     1     -22.682  30.295  10.628  0.00  0.00    +0.000 NA
ATOM     27  C   UNL     1     -21.509  31.405   8.342  0.00  0.00    +0.000 A 
ATOM     28  C   UNL     1     -22.775  31.825   8.738  0.00  0.00    +0.000 A 
ATOM     29  C   UNL     1     -23.304  31.252   9.882  0.00  0.00    +0.000 A 
ATOM     30  C   UNL     1     -20.844  30.415   9.058  0.00  0.00    +0.000 A 
ATOM     31  C   UNL     1     -21.465  29.903  10.186  0.00  0.00    +0.000 A 
BRANCH  29  34
ATOM     32  O   UNL     1     -25.400  32.298   9.616  0.00  0.00    +0.000 OA
ATOM     33  N   UNL     1     -24.869  31.344  11.683  0.00  0.00    +0.000 N 
ATOM     34  C   UNL     1     -24.639  31.692  10.363  0.00  0.00    +0.000 C 
ATOM     35  C   UNL     1     -25.998  31.566  12.545  0.00  0.00    +0.000 C 
ATOM     36  H   UNL     1     -24.098  30.845  12.125  0.00  0.00    +0.000 HD
ENDBRANCH  29  34
ENDBRANCH  25  27
ENDBRANCH   3  25
TORSDOF 6
ENDMDL
MODEL 9
REMARK VINA RESULT:      -6.2     23.127     25.048
REMARK  Name = 11167602_Regorafenib.pdbqt.pdb
REMARK  6 active torsions:
REMARK  status: ('A' for Active; 'I' for Inactive)
REMARK    1  A    between atoms: C_2  and  N_10
REMARK    2  A    between atoms: C_3  and  O_25
REMARK    3  A    between atoms: N_9  and  C_15
REMARK    4  A    between atoms: C_16  and  C_24
REMARK    5  A    between atoms: O_25  and  C_27
REMARK    6  A    between atoms: C_29  and  C_34
REMARK                            x       y       z     vdW  Elec       q    Type
REMARK                         _______ _______ _______ _____ _____    ______ ____
ROOT
ATOM      1  F   UNL     1      -4.042  47.209  29.393  0.00  0.00    +0.000 F 
ATOM      2  C   UNL     1      -2.968  46.375  27.456  0.00  0.00    +0.000 A 
ATOM      3  C   UNL     1      -5.479  46.099  26.259  0.00  0.00    +0.000 A 
ATOM      4  C   UNL     1      -4.133  46.726  28.144  0.00  0.00    +0.000 A 
ATOM      5  C   UNL     1      -3.080  45.862  26.164  0.00  0.00    +0.000 A 
ATOM      6  C   UNL     1      -5.389  46.581  27.564  0.00  0.00    +0.000 A 
ATOM      7  C   UNL     1      -4.332  45.711  25.569  0.00  0.00    +0.000 A 
ENDROOT
BRANCH   2  10
ATOM      8  O   UNL     1      -1.877  44.913  29.716  0.00  0.00    +0.000 OA
ATOM      9  N   UNL     1       0.010  46.238  29.548  0.00  0.00    +0.000 N 
ATOM     10  N   UNL     1      -1.727  46.558  28.102  0.00  0.00    +0.000 N 
ATOM     11  C   UNL     1      -1.256  45.817  29.173  0.00  0.00    +0.000 C 
ATOM     12  H   UNL     1       0.441  46.975  29.009  0.00  0.00    +0.000 HD
ATOM     13  H   UNL     1      -1.155  47.310  27.744  0.00  0.00    +0.000 HD
BRANCH   9  15
ATOM     14 CL   UNL     1       3.112  43.880  34.006  0.00  0.00    +0.000 Cl
ATOM     15  C   UNL     1       0.769  45.704  30.606  0.00  0.00    +0.000 A 
ATOM     16  C   UNL     1       1.027  43.906  32.234  0.00  0.00    +0.000 A 
ATOM     17  C   UNL     1       0.333  44.508  31.178  0.00  0.00    +0.000 A 
ATOM     18  C   UNL     1       1.921  46.308  31.097  0.00  0.00    +0.000 A 
ATOM     19  C   UNL     1       2.180  44.530  32.713  0.00  0.00    +0.000 A 
ATOM     20  C   UNL     1       2.624  45.725  32.147  0.00  0.00    +0.000 A 
BRANCH  16  24
ATOM     21  F   UNL     1       1.437  41.627  32.805  0.00  0.00    +0.000 F 
ATOM     22  F   UNL     1       0.098  42.741  34.094  0.00  0.00    +0.000 F 
ATOM     23  F   UNL     1      -0.552  42.124  32.105  0.00  0.00    +0.000 F 
ATOM     24  C   UNL     1       0.505  42.623  32.801  0.00  0.00    +0.000 C 
ENDBRANCH  16  24
ENDBRANCH   9  15
ENDBRANCH   2  10
BRANCH   3  25
ATOM     25  O   UNL     1      -6.689  45.858  25.651  0.00  0.00    +0.000 OA
BRANCH  25  27
ATOM     26  N   UNL     1      -8.726  49.289  24.432  0.00  0.00    +0.000 NA
ATOM     27  C   UNL     1      -7.421  46.944  25.225  0.00  0.00    +0.000 A 
ATOM     28  C   UNL     1      -8.791  47.071  25.429  0.00  0.00    +0.000 A 
ATOM     29  C   UNL     1      -9.389  48.247  25.008  0.00  0.00    +0.000 A 
ATOM     30  C   UNL     1      -6.697  47.990  24.662  0.00  0.00    +0.000 A 
ATOM     31  C   UNL     1      -7.391  49.127  24.280  0.00  0.00    +0.000 A 
BRANCH  29  34
ATOM     32  O   UNL     1     -11.479  47.702  25.953  0.00  0.00    +0.000 OA
ATOM     33  N   UNL     1     -11.368  49.419  24.370  0.00  0.00    +0.000 N 
ATOM     34  C   UNL     1     -10.856  48.415  25.173  0.00  0.00    +0.000 C 
ATOM     35  C   UNL     1     -12.707  49.915  24.203  0.00  0.00    +0.000 C 
ATOM     36  H   UNL     1     -10.674  49.888  23.790  0.00  0.00    +0.000 HD
ENDBRANCH  29  34
ENDBRANCH  25  27
ENDBRANCH   3  25
TORSDOF 6
ENDMDL
