MODEL 1
REMARK VINA RESULT:      -6.4      0.000      0.000
REMARK  Name = 114778_Kahweol.pdbqt.pdb
REMARK  3 active torsions:
REMARK  status: ('A' for Active; 'I' for Inactive)
REMARK    1  A    between atoms: C_8  and  O_21
REMARK    2  A    between atoms: C_8  and  C_23
REMARK    3  A    between atoms: C_23  and  O_24
REMARK                            x       y       z     vdW  Elec       q    Type
REMARK                         _______ _______ _______ _____ _____    ______ ____
ROOT
ATOM      1  O   UNL     1     -23.830  37.678  19.973  0.00  0.00    +0.000 OA
ATOM      2  C   UNL     1     -24.391  43.770  18.634  0.00  0.00    +0.000 C 
ATOM      3  C   UNL     1     -24.868  42.983  19.932  0.00  0.00    +0.000 C 
ATOM      4  C   UNL     1     -24.445  45.915  19.697  0.00  0.00    +0.000 C 
ATOM      5  C   UNL     1     -25.083  45.087  18.659  0.00  0.00    +0.000 C 
ATOM      6  C   UNL     1     -23.030  44.296  18.882  0.00  0.00    +0.000 C 
ATOM      7  C   UNL     1     -25.522  41.599  19.847  0.00  0.00    +0.000 C 
ATOM      8  C   UNL     1     -22.905  45.669  19.411  0.00  0.00    +0.000 C 
ATOM      9  C   UNL     1     -24.535  42.919  17.482  0.00  0.00    +0.000 C 
ATOM     10  C   UNL     1     -25.058  43.875  21.064  0.00  0.00    +0.000 C 
ATOM     11  C   UNL     1     -24.907  45.399  20.977  0.00  0.00    +0.000 C 
ATOM     12  C   UNL     1     -25.161  40.726  18.524  0.00  0.00    +0.000 C 
ATOM     13  C   UNL     1     -24.875  41.468  17.355  0.00  0.00    +0.000 C 
ATOM     14  C   UNL     1     -27.076  41.766  19.852  0.00  0.00    +0.000 C 
ATOM     15  C   UNL     1     -25.065  40.772  20.999  0.00  0.00    +0.000 C 
ATOM     16  C   UNL     1     -24.623  39.400  18.723  0.00  0.00    +0.000 A 
ATOM     17  C   UNL     1     -24.597  39.677  21.139  0.00  0.00    +0.000 C 
ATOM     18  C   UNL     1     -24.360  38.910  19.985  0.00  0.00    +0.000 A 
ATOM     19  C   UNL     1     -24.216  38.376  17.844  0.00  0.00    +0.000 A 
ATOM     20  C   UNL     1     -23.751  37.341  18.644  0.00  0.00    +0.000 A 
ENDROOT
BRANCH   8  21
ATOM     21  O   UNL     1     -22.455  46.530  18.380  0.00  0.00    +0.000 OA
ATOM     22  H   UNL     1     -23.257  46.884  17.960  0.00  0.00    +0.000 HD
ENDBRANCH   8  21
BRANCH   8  23
ATOM     23  C   UNL     1     -22.043  45.816  20.591  0.00  0.00    +0.000 C 
BRANCH  23  24
ATOM     24  O   UNL     1     -21.274  45.948  21.672  0.00  0.00    +0.000 OA
ATOM     25  H   UNL     1     -21.239  46.877  21.963  0.00  0.00    +0.000 HD
ENDBRANCH  23  24
ENDBRANCH   8  23
TORSDOF 3
ENDMDL
MODEL 2
REMARK VINA RESULT:      -5.9     14.614     16.303
REMARK  Name = 114778_Kahweol.pdbqt.pdb
REMARK  3 active torsions:
REMARK  status: ('A' for Active; 'I' for Inactive)
REMARK    1  A    between atoms: C_8  and  O_21
REMARK    2  A    between atoms: C_8  and  C_23
REMARK    3  A    between atoms: C_23  and  O_24
REMARK                            x       y       z     vdW  Elec       q    Type
REMARK                         _______ _______ _______ _____ _____    ______ ____
ROOT
ATOM      1  O   UNL     1     -21.352  36.846   3.633  0.00  0.00    +0.000 OA
ATOM      2  C   UNL     1     -17.558  41.380   5.700  0.00  0.00    +0.000 C 
ATOM      3  C   UNL     1     -17.231  39.847   5.430  0.00  0.00    +0.000 C 
ATOM      4  C   UNL     1     -15.266  42.067   5.634  0.00  0.00    +0.000 C 
ATOM      5  C   UNL     1     -16.435  41.916   6.516  0.00  0.00    +0.000 C 
ATOM      6  C   UNL     1     -17.249  42.146   4.473  0.00  0.00    +0.000 C 
ATOM      7  C   UNL     1     -18.202  38.727   5.822  0.00  0.00    +0.000 C 
ATOM      8  C   UNL     1     -15.907  42.750   4.355  0.00  0.00    +0.000 C 
ATOM      9  C   UNL     1     -18.906  41.498   6.192  0.00  0.00    +0.000 C 
ATOM     10  C   UNL     1     -15.805  39.625   5.250  0.00  0.00    +0.000 C 
ATOM     11  C   UNL     1     -14.749  40.727   5.401  0.00  0.00    +0.000 C 
ATOM     12  C   UNL     1     -19.765  39.157   5.937  0.00  0.00    +0.000 C 
ATOM     13  C   UNL     1     -20.011  40.497   6.313  0.00  0.00    +0.000 C 
ATOM     14  C   UNL     1     -17.797  38.166   7.223  0.00  0.00    +0.000 C 
ATOM     15  C   UNL     1     -18.163  37.662   4.782  0.00  0.00    +0.000 C 
ATOM     16  C   UNL     1     -20.725  38.407   5.159  0.00  0.00    +0.000 A 
ATOM     17  C   UNL     1     -18.975  37.068   4.129  0.00  0.00    +0.000 C 
ATOM     18  C   UNL     1     -20.330  37.406   4.297  0.00  0.00    +0.000 A 
ATOM     19  C   UNL     1     -22.125  38.477   5.015  0.00  0.00    +0.000 A 
ATOM     20  C   UNL     1     -22.468  37.504   4.087  0.00  0.00    +0.000 A 
ENDROOT
BRANCH   8  21
ATOM     21  O   UNL     1     -16.004  44.151   4.544  0.00  0.00    +0.000 OA
ATOM     22  H   UNL     1     -15.286  44.541   4.018  0.00  0.00    +0.000 HD
ENDBRANCH   8  21
BRANCH   8  23
ATOM     23  C   UNL     1     -15.195  42.469   3.101  0.00  0.00    +0.000 C 
BRANCH  23  24
ATOM     24  O   UNL     1     -14.554  42.196   1.964  0.00  0.00    +0.000 OA
ATOM     25  H   UNL     1     -15.183  42.074   1.231  0.00  0.00    +0.000 HD
ENDBRANCH  23  24
ENDBRANCH   8  23
TORSDOF 3
ENDMDL
MODEL 3
REMARK VINA RESULT:      -5.6     15.433     16.990
REMARK  Name = 114778_Kahweol.pdbqt.pdb
REMARK  3 active torsions:
REMARK  status: ('A' for Active; 'I' for Inactive)
REMARK    1  A    between atoms: C_8  and  O_21
REMARK    2  A    between atoms: C_8  and  C_23
REMARK    3  A    between atoms: C_23  and  O_24
REMARK                            x       y       z     vdW  Elec       q    Type
REMARK                         _______ _______ _______ _____ _____    ______ ____
ROOT
ATOM      1  O   UNL     1     -17.284  35.324   2.685  0.00  0.00    +0.000 OA
ATOM      2  C   UNL     1     -17.877  41.058   5.132  0.00  0.00    +0.000 C 
ATOM      3  C   UNL     1     -16.604  40.104   5.115  0.00  0.00    +0.000 C 
ATOM      4  C   UNL     1     -16.608  43.042   5.561  0.00  0.00    +0.000 C 
ATOM      5  C   UNL     1     -17.599  42.118   6.138  0.00  0.00    +0.000 C 
ATOM      6  C   UNL     1     -17.815  41.939   3.945  0.00  0.00    +0.000 C 
ATOM      7  C   UNL     1     -16.715  38.596   5.371  0.00  0.00    +0.000 C 
ATOM      8  C   UNL     1     -17.177  43.262   4.098  0.00  0.00    +0.000 C 
ATOM      9  C   UNL     1     -19.067  40.259   5.260  0.00  0.00    +0.000 C 
ATOM     10  C   UNL     1     -15.371  40.847   5.318  0.00  0.00    +0.000 C 
ATOM     11  C   UNL     1     -15.326  42.353   5.607  0.00  0.00    +0.000 C 
ATOM     12  C   UNL     1     -18.163  37.931   5.050  0.00  0.00    +0.000 C 
ATOM     13  C   UNL     1     -19.282  38.779   5.209  0.00  0.00    +0.000 C 
ATOM     14  C   UNL     1     -16.426  38.311   6.880  0.00  0.00    +0.000 C 
ATOM     15  C   UNL     1     -15.750  37.880   4.492  0.00  0.00    +0.000 C 
ATOM     16  C   UNL     1     -18.196  36.806   4.143  0.00  0.00    +0.000 A 
ATOM     17  C   UNL     1     -15.805  36.959   3.726  0.00  0.00    +0.000 C 
ATOM     18  C   UNL     1     -17.055  36.350   3.517  0.00  0.00    +0.000 A 
ATOM     19  C   UNL     1     -19.232  35.986   3.652  0.00  0.00    +0.000 A 
ATOM     20  C   UNL     1     -18.633  35.090   2.776  0.00  0.00    +0.000 A 
ENDROOT
BRANCH   8  21
ATOM     21  O   UNL     1     -18.177  44.266   4.109  0.00  0.00    +0.000 OA
ATOM     22  H   UNL     1     -18.083  44.744   3.268  0.00  0.00    +0.000 HD
ENDBRANCH   8  21
BRANCH   8  23
ATOM     23  C   UNL     1     -16.156  43.592   3.097  0.00  0.00    +0.000 C 
BRANCH  23  24
ATOM     24  O   UNL     1     -15.220  43.903   2.199  0.00  0.00    +0.000 OA
ATOM     25  H   UNL     1     -14.986  44.847   2.253  0.00  0.00    +0.000 HD
ENDBRANCH  23  24
ENDBRANCH   8  23
TORSDOF 3
ENDMDL
MODEL 4
REMARK VINA RESULT:      -5.5     17.066     19.719
REMARK  Name = 114778_Kahweol.pdbqt.pdb
REMARK  3 active torsions:
REMARK  status: ('A' for Active; 'I' for Inactive)
REMARK    1  A    between atoms: C_8  and  O_21
REMARK    2  A    between atoms: C_8  and  C_23
REMARK    3  A    between atoms: C_23  and  O_24
REMARK                            x       y       z     vdW  Elec       q    Type
REMARK                         _______ _______ _______ _____ _____    ______ ____
ROOT
ATOM      1  O   UNL     1     -11.141  51.493  29.201  0.00  0.00    +0.000 OA
ATOM      2  C   UNL     1      -7.607  47.132  26.426  0.00  0.00    +0.000 C 
ATOM      3  C   UNL     1      -7.378  48.704  26.504  0.00  0.00    +0.000 C 
ATOM      4  C   UNL     1      -5.325  46.645  25.891  0.00  0.00    +0.000 C 
ATOM      5  C   UNL     1      -6.699  46.623  25.362  0.00  0.00    +0.000 C 
ATOM      6  C   UNL     1      -6.899  46.500  27.561  0.00  0.00    +0.000 C 
ATOM      7  C   UNL     1      -8.529  49.702  26.335  0.00  0.00    +0.000 C 
ATOM      8  C   UNL     1      -5.520  46.022  27.336  0.00  0.00    +0.000 C 
ATOM      9  C   UNL     1      -9.018  46.861  26.337  0.00  0.00    +0.000 C 
ATOM     10  C   UNL     1      -5.987  49.058  26.267  0.00  0.00    +0.000 C 
ATOM     11  C   UNL     1      -4.905  48.038  25.892  0.00  0.00    +0.000 C 
ATOM     12  C   UNL     1     -10.012  49.136  26.685  0.00  0.00    +0.000 C 
ATOM     13  C   UNL     1     -10.211  47.753  26.471  0.00  0.00    +0.000 C 
ATOM     14  C   UNL     1      -8.580  50.175  24.846  0.00  0.00    +0.000 C 
ATOM     15  C   UNL     1      -8.319  50.851  27.259  0.00  0.00    +0.000 C 
ATOM     16  C   UNL     1     -10.795  49.867  27.655  0.00  0.00    +0.000 A 
ATOM     17  C   UNL     1      -8.979  51.428  28.076  0.00  0.00    +0.000 C 
ATOM     18  C   UNL     1     -10.286  50.967  28.313  0.00  0.00    +0.000 A 
ATOM     19  C   UNL     1     -12.089  49.693  28.186  0.00  0.00    +0.000 A 
ATOM     20  C   UNL     1     -12.265  50.710  29.116  0.00  0.00    +0.000 A 
ENDROOT
BRANCH   8  21
ATOM     21  O   UNL     1      -5.520  44.607  27.262  0.00  0.00    +0.000 OA
ATOM     22  H   UNL     1      -4.794  44.310  27.836  0.00  0.00    +0.000 HD
ENDBRANCH   8  21
BRANCH   8  23
ATOM     23  C   UNL     1      -4.527  46.465  28.322  0.00  0.00    +0.000 C 
BRANCH  23  24
ATOM     24  O   UNL     1      -3.612  46.862  29.208  0.00  0.00    +0.000 OA
ATOM     25  H   UNL     1      -4.021  47.387  29.919  0.00  0.00    +0.000 HD
ENDBRANCH  23  24
ENDBRANCH   8  23
TORSDOF 3
ENDMDL
MODEL 5
REMARK VINA RESULT:      -5.2     15.987     18.547
REMARK  Name = 114778_Kahweol.pdbqt.pdb
REMARK  3 active torsions:
REMARK  status: ('A' for Active; 'I' for Inactive)
REMARK    1  A    between atoms: C_8  and  O_21
REMARK    2  A    between atoms: C_8  and  C_23
REMARK    3  A    between atoms: C_23  and  O_24
REMARK                            x       y       z     vdW  Elec       q    Type
REMARK                         _______ _______ _______ _____ _____    ______ ____
ROOT
ATOM      1  O   UNL     1     -12.364  31.478   5.310  0.00  0.00    +0.000 OA
ATOM      2  C   UNL     1     -16.066  36.512   5.717  0.00  0.00    +0.000 C 
ATOM      3  C   UNL     1     -16.203  35.244   4.767  0.00  0.00    +0.000 C 
ATOM      4  C   UNL     1     -18.356  37.167   5.472  0.00  0.00    +0.000 C 
ATOM      5  C   UNL     1     -16.970  37.557   5.163  0.00  0.00    +0.000 C 
ATOM      6  C   UNL     1     -16.845  36.259   6.949  0.00  0.00    +0.000 C 
ATOM      7  C   UNL     1     -14.990  34.612   4.075  0.00  0.00    +0.000 C 
ATOM      8  C   UNL     1     -18.243  36.734   6.993  0.00  0.00    +0.000 C 
ATOM      9  C   UNL     1     -14.671  36.815   5.907  0.00  0.00    +0.000 C 
ATOM     10  C   UNL     1     -17.561  35.085   4.273  0.00  0.00    +0.000 C 
ATOM     11  C   UNL     1     -18.691  36.081   4.564  0.00  0.00    +0.000 C 
ATOM     12  C   UNL     1     -13.555  34.865   4.795  0.00  0.00    +0.000 C 
ATOM     13  C   UNL     1     -13.432  36.073   5.519  0.00  0.00    +0.000 C 
ATOM     14  C   UNL     1     -14.864  35.196   2.630  0.00  0.00    +0.000 C 
ATOM     15  C   UNL     1     -15.159  33.133   4.046  0.00  0.00    +0.000 C 
ATOM     16  C   UNL     1     -12.759  33.706   5.127  0.00  0.00    +0.000 A 
ATOM     17  C   UNL     1     -14.491  32.186   4.351  0.00  0.00    +0.000 C 
ATOM     18  C   UNL     1     -13.221  32.426   4.906  0.00  0.00    +0.000 A 
ATOM     19  C   UNL     1     -11.495  33.536   5.727  0.00  0.00    +0.000 A 
ATOM     20  C   UNL     1     -11.287  32.166   5.810  0.00  0.00    +0.000 A 
ENDROOT
BRANCH   8  21
ATOM     21  O   UNL     1     -18.324  37.872   7.833  0.00  0.00    +0.000 OA
ATOM     22  H   UNL     1     -19.179  38.289   7.634  0.00  0.00    +0.000 HD
ENDBRANCH   8  21
BRANCH   8  23
ATOM     23  C   UNL     1     -19.237  35.738   7.411  0.00  0.00    +0.000 C 
BRANCH  23  24
ATOM     24  O   UNL     1     -20.142  34.842   7.807  0.00  0.00    +0.000 OA
ATOM     25  H   UNL     1     -19.970  34.554   8.721  0.00  0.00    +0.000 HD
ENDBRANCH  23  24
ENDBRANCH   8  23
TORSDOF 3
ENDMDL
MODEL 6
REMARK VINA RESULT:      -5.0     26.690     28.618
REMARK  Name = 114778_Kahweol.pdbqt.pdb
REMARK  3 active torsions:
REMARK  status: ('A' for Active; 'I' for Inactive)
REMARK    1  A    between atoms: C_8  and  O_21
REMARK    2  A    between atoms: C_8  and  C_23
REMARK    3  A    between atoms: C_23  and  O_24
REMARK                            x       y       z     vdW  Elec       q    Type
REMARK                         _______ _______ _______ _____ _____    ______ ____
ROOT
ATOM      1  O   UNL     1       3.708  37.912  35.706  0.00  0.00    +0.000 OA
ATOM      2  C   UNL     1      -2.348  38.586  34.259  0.00  0.00    +0.000 C 
ATOM      3  C   UNL     1      -1.661  37.518  35.217  0.00  0.00    +0.000 C 
ATOM      4  C   UNL     1      -4.532  38.285  35.191  0.00  0.00    +0.000 C 
ATOM      5  C   UNL     1      -3.720  38.083  33.979  0.00  0.00    +0.000 C 
ATOM      6  C   UNL     1      -2.762  39.747  35.075  0.00  0.00    +0.000 C 
ATOM      7  C   UNL     1      -0.337  36.834  34.855  0.00  0.00    +0.000 C 
ATOM      8  C   UNL     1      -4.140  39.763  35.607  0.00  0.00    +0.000 C 
ATOM      9  C   UNL     1      -1.464  38.874  33.159  0.00  0.00    +0.000 C 
ATOM     10  C   UNL     1      -2.613  36.943  36.153  0.00  0.00    +0.000 C 
ATOM     11  C   UNL     1      -4.113  37.265  36.142  0.00  0.00    +0.000 C 
ATOM     12  C   UNL     1       0.619  37.647  33.822  0.00  0.00    +0.000 C 
ATOM     13  C   UNL     1      -0.045  38.483  32.896  0.00  0.00    +0.000 C 
ATOM     14  C   UNL     1      -0.641  35.457  34.181  0.00  0.00    +0.000 C 
ATOM     15  C   UNL     1       0.477  36.662  36.090  0.00  0.00    +0.000 C 
ATOM     16  C   UNL     1       1.978  37.913  34.236  0.00  0.00    +0.000 A 
ATOM     17  C   UNL     1       1.602  36.913  36.420  0.00  0.00    +0.000 C 
ATOM     18  C   UNL     1       2.435  37.552  35.485  0.00  0.00    +0.000 A 
ATOM     19  C   UNL     1       3.070  38.559  33.622  0.00  0.00    +0.000 A 
ATOM     20  C   UNL     1       4.107  38.527  34.545  0.00  0.00    +0.000 A 
ENDROOT
BRANCH   8  21
ATOM     21  O   UNL     1      -4.913  40.698  34.876  0.00  0.00    +0.000 OA
ATOM     22  H   UNL     1      -5.613  40.183  34.441  0.00  0.00    +0.000 HD
ENDBRANCH   8  21
BRANCH   8  23
ATOM     23  C   UNL     1      -4.260  40.037  37.044  0.00  0.00    +0.000 C 
BRANCH  23  24
ATOM     24  O   UNL     1      -4.354  40.277  38.353  0.00  0.00    +0.000 OA
ATOM     25  H   UNL     1      -4.764  41.144  38.519  0.00  0.00    +0.000 HD
ENDBRANCH  23  24
ENDBRANCH   8  23
TORSDOF 3
ENDMDL
MODEL 7
REMARK VINA RESULT:      -4.8     18.627     20.887
REMARK  Name = 114778_Kahweol.pdbqt.pdb
REMARK  3 active torsions:
REMARK  status: ('A' for Active; 'I' for Inactive)
REMARK    1  A    between atoms: C_8  and  O_21
REMARK    2  A    between atoms: C_8  and  C_23
REMARK    3  A    between atoms: C_23  and  O_24
REMARK                            x       y       z     vdW  Elec       q    Type
REMARK                         _______ _______ _______ _____ _____    ______ ____
ROOT
ATOM      1  O   UNL     1     -14.415  48.468  -1.097  0.00  0.00    +0.000 OA
ATOM      2  C   UNL     1     -17.499  43.820   1.751  0.00  0.00    +0.000 C 
ATOM      3  C   UNL     1     -16.063  43.796   1.066  0.00  0.00    +0.000 C 
ATOM      4  C   UNL     1     -17.111  41.846   3.049  0.00  0.00    +0.000 C 
ATOM      5  C   UNL     1     -17.903  42.400   1.938  0.00  0.00    +0.000 C 
ATOM      6  C   UNL     1     -17.326  44.132   3.187  0.00  0.00    +0.000 C 
ATOM      7  C   UNL     1     -15.785  44.509  -0.262  0.00  0.00    +0.000 C 
ATOM      8  C   UNL     1     -17.210  43.001   4.131  0.00  0.00    +0.000 C 
ATOM      9  C   UNL     1     -18.361  44.708   1.016  0.00  0.00    +0.000 C 
ATOM     10  C   UNL     1     -15.254  42.690   1.551  0.00  0.00    +0.000 C 
ATOM     11  C   UNL     1     -15.769  41.627   2.530  0.00  0.00    +0.000 C 
ATOM     12  C   UNL     1     -16.771  45.751  -0.618  0.00  0.00    +0.000 C 
ATOM     13  C   UNL     1     -18.084  45.665  -0.100  0.00  0.00    +0.000 C 
ATOM     14  C   UNL     1     -15.932  43.483  -1.433  0.00  0.00    +0.000 C 
ATOM     15  C   UNL     1     -14.416  45.093  -0.225  0.00  0.00    +0.000 C 
ATOM     16  C   UNL     1     -16.161  47.028  -0.910  0.00  0.00    +0.000 A 
ATOM     17  C   UNL     1     -13.933  46.167  -0.450  0.00  0.00    +0.000 C 
ATOM     18  C   UNL     1     -14.796  47.211  -0.827  0.00  0.00    +0.000 A 
ATOM     19  C   UNL     1     -16.676  48.291  -1.263  0.00  0.00    +0.000 A 
ATOM     20  C   UNL     1     -15.580  49.137  -1.378  0.00  0.00    +0.000 A 
ENDROOT
BRANCH   8  21
ATOM     21  O   UNL     1     -18.415  42.880   4.867  0.00  0.00    +0.000 OA
ATOM     22  H   UNL     1     -18.225  42.255   5.586  0.00  0.00    +0.000 HD
ENDBRANCH   8  21
BRANCH   8  23
ATOM     23  C   UNL     1     -16.070  43.062   5.054  0.00  0.00    +0.000 C 
BRANCH  23  24
ATOM     24  O   UNL     1     -15.024  43.111   5.879  0.00  0.00    +0.000 OA
ATOM     25  H   UNL     1     -14.239  43.463   5.424  0.00  0.00    +0.000 HD
ENDBRANCH  23  24
ENDBRANCH   8  23
TORSDOF 3
ENDMDL
MODEL 8
REMARK VINA RESULT:      -4.7     27.376     29.423
REMARK  Name = 114778_Kahweol.pdbqt.pdb
REMARK  3 active torsions:
REMARK  status: ('A' for Active; 'I' for Inactive)
REMARK    1  A    between atoms: C_8  and  O_21
REMARK    2  A    between atoms: C_8  and  C_23
REMARK    3  A    between atoms: C_23  and  O_24
REMARK                            x       y       z     vdW  Elec       q    Type
REMARK                         _______ _______ _______ _____ _____    ______ ____
ROOT
ATOM      1  O   UNL     1      -4.263  40.659  35.118  0.00  0.00    +0.000 OA
ATOM      2  C   UNL     1       0.229  36.296  35.181  0.00  0.00    +0.000 C 
ATOM      3  C   UNL     1       0.353  37.855  34.890  0.00  0.00    +0.000 C 
ATOM      4  C   UNL     1       2.555  36.022  35.678  0.00  0.00    +0.000 C 
ATOM      5  C   UNL     1       1.498  35.675  34.713  0.00  0.00    +0.000 C 
ATOM      6  C   UNL     1       0.460  36.072  36.625  0.00  0.00    +0.000 C 
ATOM      7  C   UNL     1      -0.676  38.606  34.037  0.00  0.00    +0.000 C 
ATOM      8  C   UNL     1       1.834  35.754  37.064  0.00  0.00    +0.000 C 
ATOM      9  C   UNL     1      -1.025  35.814  34.664  0.00  0.00    +0.000 C 
ATOM     10  C   UNL     1       1.711  38.334  35.087  0.00  0.00    +0.000 C 
ATOM     11  C   UNL     1       2.891  37.418  35.438  0.00  0.00    +0.000 C 
ATOM     12  C   UNL     1      -2.157  37.939  33.966  0.00  0.00    +0.000 C 
ATOM     13  C   UNL     1      -2.207  36.532  34.095  0.00  0.00    +0.000 C 
ATOM     14  C   UNL     1      -0.159  38.684  32.564  0.00  0.00    +0.000 C 
ATOM     15  C   UNL     1      -0.885  39.965  34.608  0.00  0.00    +0.000 C 
ATOM     16  C   UNL     1      -3.282  38.768  34.333  0.00  0.00    +0.000 A 
ATOM     17  C   UNL     1      -1.832  40.627  34.929  0.00  0.00    +0.000 C 
ATOM     18  C   UNL     1      -3.110  40.057  34.791  0.00  0.00    +0.000 A 
ATOM     19  C   UNL     1      -4.674  38.548  34.381  0.00  0.00    +0.000 A 
ATOM     20  C   UNL     1      -5.235  39.727  34.853  0.00  0.00    +0.000 A 
ENDROOT
BRANCH   8  21
ATOM     21  O   UNL     1       1.913  34.380  37.399  0.00  0.00    +0.000 OA
ATOM     22  H   UNL     1       2.819  34.236  37.722  0.00  0.00    +0.000 HD
ENDBRANCH   8  21
BRANCH   8  23
ATOM     23  C   UNL     1       2.346  36.565  38.177  0.00  0.00    +0.000 C 
BRANCH  23  24
ATOM     24  O   UNL     1       2.797  37.296  39.197  0.00  0.00    +0.000 OA
ATOM     25  H   UNL     1       3.643  36.947  39.527  0.00  0.00    +0.000 HD
ENDBRANCH  23  24
ENDBRANCH   8  23
TORSDOF 3
ENDMDL
MODEL 9
REMARK VINA RESULT:      -4.6      7.400     10.969
REMARK  Name = 114778_Kahweol.pdbqt.pdb
REMARK  3 active torsions:
REMARK  status: ('A' for Active; 'I' for Inactive)
REMARK    1  A    between atoms: C_8  and  O_21
REMARK    2  A    between atoms: C_8  and  C_23
REMARK    3  A    between atoms: C_23  and  O_24
REMARK                            x       y       z     vdW  Elec       q    Type
REMARK                         _______ _______ _______ _____ _____    ______ ____
ROOT
ATOM      1  O   UNL     1     -18.374  52.417  14.798  0.00  0.00    +0.000 OA
ATOM      2  C   UNL     1     -19.556  50.580  20.667  0.00  0.00    +0.000 C 
ATOM      3  C   UNL     1     -20.399  50.309  19.345  0.00  0.00    +0.000 C 
ATOM      4  C   UNL     1     -20.565  48.787  21.892  0.00  0.00    +0.000 C 
ATOM      5  C   UNL     1     -20.448  50.253  21.813  0.00  0.00    +0.000 C 
ATOM      6  C   UNL     1     -18.619  49.452  20.862  0.00  0.00    +0.000 C 
ATOM      7  C   UNL     1     -20.619  51.395  18.286  0.00  0.00    +0.000 C 
ATOM      8  C   UNL     1     -19.058  48.328  21.714  0.00  0.00    +0.000 C 
ATOM      9  C   UNL     1     -18.958  51.887  20.590  0.00  0.00    +0.000 C 
ATOM     10  C   UNL     1     -21.283  49.165  19.495  0.00  0.00    +0.000 C 
ATOM     11  C   UNL     1     -21.445  48.384  20.805  0.00  0.00    +0.000 C 
ATOM     12  C   UNL     1     -19.503  52.576  18.242  0.00  0.00    +0.000 C 
ATOM     13  C   UNL     1     -18.874  52.877  19.472  0.00  0.00    +0.000 C 
ATOM     14  C   UNL     1     -21.991  52.097  18.551  0.00  0.00    +0.000 C 
ATOM     15  C   UNL     1     -20.584  50.772  16.934  0.00  0.00    +0.000 C 
ATOM     16  C   UNL     1     -18.846  52.830  16.980  0.00  0.00    +0.000 A 
ATOM     17  C   UNL     1     -20.011  50.987  15.903  0.00  0.00    +0.000 C 
ATOM     18  C   UNL     1     -19.102  52.059  15.866  0.00  0.00    +0.000 A 
ATOM     19  C   UNL     1     -17.865  53.753  16.566  0.00  0.00    +0.000 A 
ATOM     20  C   UNL     1     -17.614  53.476  15.228  0.00  0.00    +0.000 A 
ENDROOT
BRANCH   8  21
ATOM     21  O   UNL     1     -18.378  48.389  22.956  0.00  0.00    +0.000 OA
ATOM     22  H   UNL     1     -19.068  48.350  23.639  0.00  0.00    +0.000 HD
ENDBRANCH   8  21
BRANCH   8  23
ATOM     23  C   UNL     1     -18.900  46.991  21.129  0.00  0.00    +0.000 C 
BRANCH  23  24
ATOM     24  O   UNL     1     -18.756  45.769  20.614  0.00  0.00    +0.000 OA
ATOM     25  H   UNL     1     -18.795  45.795  19.641  0.00  0.00    +0.000 HD
ENDBRANCH  23  24
ENDBRANCH   8  23
TORSDOF 3
ENDMDL
