MODEL 1
REMARK VINA RESULT:      -3.5      0.000      0.000
REMARK  Name = 1174_Uracil.pdbqt.pdb
REMARK  0 active torsions:
REMARK  status: ('A' for Active; 'I' for Inactive)
REMARK                            x       y       z     vdW  Elec       q    Type
REMARK                         _______ _______ _______ _____ _____    ______ ____
ROOT
ATOM      1  O   UNL     1      -6.610  44.786  28.649  0.00  0.00    +0.000 OA
ATOM      2  O   UNL     1      -5.576  48.010  25.484  0.00  0.00    +0.000 OA
ATOM      3  N   UNL     1      -6.139  46.437  27.101  0.00  0.00    +0.000 N 
ATOM      4  N   UNL     1      -5.057  44.362  26.991  0.00  0.00    +0.000 N 
ATOM      5  C   UNL     1      -5.987  45.161  27.664  0.00  0.00    +0.000 A 
ATOM      6  C   UNL     1      -5.450  46.901  25.983  0.00  0.00    +0.000 A 
ATOM      7  C   UNL     1      -4.401  44.824  25.914  0.00  0.00    +0.000 A 
ATOM      8  C   UNL     1      -4.547  45.914  25.453  0.00  0.00    +0.000 A 
ATOM      9  H   UNL     1      -6.795  47.063  27.540  0.00  0.00    +0.000 HD
ATOM     10  H   UNL     1      -4.890  43.425  27.336  0.00  0.00    +0.000 HD
ENDROOT
TORSDOF 0
ENDMDL
MODEL 2
REMARK VINA RESULT:      -3.5     24.294     24.914
REMARK  Name = 1174_Uracil.pdbqt.pdb
REMARK  0 active torsions:
REMARK  status: ('A' for Active; 'I' for Inactive)
REMARK                            x       y       z     vdW  Elec       q    Type
REMARK                         _______ _______ _______ _____ _____    ______ ____
ROOT
ATOM      1  O   UNL     1      -6.220  41.808   0.846  0.00  0.00    +0.000 OA
ATOM      2  O   UNL     1      -4.074  38.974   3.820  0.00  0.00    +0.000 OA
ATOM      3  N   UNL     1      -5.088  40.420   2.308  0.00  0.00    +0.000 N 
ATOM      4  N   UNL     1      -7.429  40.391   2.213  0.00  0.00    +0.000 N 
ATOM      5  C   UNL     1      -6.246  40.946   1.715  0.00  0.00    +0.000 A 
ATOM      6  C   UNL     1      -5.076  39.440   3.298  0.00  0.00    +0.000 A 
ATOM      7  C   UNL     1      -7.401  39.447   3.168  0.00  0.00    +0.000 A 
ATOM      8  C   UNL     1      -6.404  39.014   3.658  0.00  0.00    +0.000 A 
ATOM      9  H   UNL     1      -4.201  40.778   1.993  0.00  0.00    +0.000 HD
ATOM     10  H   UNL     1      -8.310  40.719   1.835  0.00  0.00    +0.000 HD
ENDROOT
TORSDOF 0
ENDMDL
MODEL 3
REMARK VINA RESULT:      -3.5     16.423     17.202
REMARK  Name = 1174_Uracil.pdbqt.pdb
REMARK  0 active torsions:
REMARK  status: ('A' for Active; 'I' for Inactive)
REMARK                            x       y       z     vdW  Elec       q    Type
REMARK                         _______ _______ _______ _____ _____    ______ ____
ROOT
ATOM      1  O   UNL     1       2.906  54.944  13.588  0.00  0.00    +0.000 OA
ATOM      2  O   UNL     1       6.510  52.738  15.490  0.00  0.00    +0.000 OA
ATOM      3  N   UNL     1       4.735  53.843  14.474  0.00  0.00    +0.000 N 
ATOM      4  N   UNL     1       2.914  54.410  15.836  0.00  0.00    +0.000 N 
ATOM      5  C   UNL     1       3.469  54.442  14.552  0.00  0.00    +0.000 A 
ATOM      6  C   UNL     1       5.408  53.262  15.547  0.00  0.00    +0.000 A 
ATOM      7  C   UNL     1       3.576  53.846  16.860  0.00  0.00    +0.000 A 
ATOM      8  C   UNL     1       4.653  53.343  16.770  0.00  0.00    +0.000 A 
ATOM      9  H   UNL     1       5.190  53.833  13.576  0.00  0.00    +0.000 HD
ATOM     10  H   UNL     1       2.000  54.823  15.975  0.00  0.00    +0.000 HD
ENDROOT
TORSDOF 0
ENDMDL
MODEL 4
REMARK VINA RESULT:      -3.4      1.822      2.593
REMARK  Name = 1174_Uracil.pdbqt.pdb
REMARK  0 active torsions:
REMARK  status: ('A' for Active; 'I' for Inactive)
REMARK                            x       y       z     vdW  Elec       q    Type
REMARK                         _______ _______ _______ _____ _____    ______ ____
ROOT
ATOM      1  O   UNL     1      -3.901  44.790  24.914  0.00  0.00    +0.000 OA
ATOM      2  O   UNL     1      -7.673  46.926  26.553  0.00  0.00    +0.000 OA
ATOM      3  N   UNL     1      -5.792  45.884  25.669  0.00  0.00    +0.000 N 
ATOM      4  N   UNL     1      -4.576  44.485  27.102  0.00  0.00    +0.000 N 
ATOM      5  C   UNL     1      -4.689  45.031  25.819  0.00  0.00    +0.000 A 
ATOM      6  C   UNL     1      -6.710  46.184  26.674  0.00  0.00    +0.000 A 
ATOM      7  C   UNL     1      -5.469  44.784  28.060  0.00  0.00    +0.000 A 
ATOM      8  C   UNL     1      -6.401  45.512  27.909  0.00  0.00    +0.000 A 
ATOM      9  H   UNL     1      -5.930  46.311  24.767  0.00  0.00    +0.000 HD
ATOM     10  H   UNL     1      -3.805  43.857  27.292  0.00  0.00    +0.000 HD
ENDROOT
TORSDOF 0
ENDMDL
MODEL 5
REMARK VINA RESULT:      -3.4     19.445     19.748
REMARK  Name = 1174_Uracil.pdbqt.pdb
REMARK  0 active torsions:
REMARK  status: ('A' for Active; 'I' for Inactive)
REMARK                            x       y       z     vdW  Elec       q    Type
REMARK                         _______ _______ _______ _____ _____    ______ ____
ROOT
ATOM      1  O   UNL     1      -2.454  27.835  17.685  0.00  0.00    +0.000 OA
ATOM      2  O   UNL     1       0.649  28.432  21.075  0.00  0.00    +0.000 OA
ATOM      3  N   UNL     1      -0.948  28.097  19.419  0.00  0.00    +0.000 N 
ATOM      4  N   UNL     1      -0.491  28.993  17.302  0.00  0.00    +0.000 N 
ATOM      5  C   UNL     1      -1.388  28.272  18.098  0.00  0.00    +0.000 A 
ATOM      6  C   UNL     1       0.257  28.578  19.927  0.00  0.00    +0.000 A 
ATOM      7  C   UNL     1       0.666  29.450  17.808  0.00  0.00    +0.000 A 
ATOM      8  C   UNL     1       1.020  29.289  18.935  0.00  0.00    +0.000 A 
ATOM      9  H   UNL     1      -1.549  27.585  20.045  0.00  0.00    +0.000 HD
ATOM     10  H   UNL     1      -0.736  29.162  16.335  0.00  0.00    +0.000 HD
ENDROOT
TORSDOF 0
ENDMDL
MODEL 6
REMARK VINA RESULT:      -3.4      4.352      5.483
REMARK  Name = 1174_Uracil.pdbqt.pdb
REMARK  0 active torsions:
REMARK  status: ('A' for Active; 'I' for Inactive)
REMARK                            x       y       z     vdW  Elec       q    Type
REMARK                         _______ _______ _______ _____ _____    ______ ____
ROOT
ATOM      1  O   UNL     1      -6.867  49.140  23.560  0.00  0.00    +0.000 OA
ATOM      2  O   UNL     1     -11.436  48.502  23.993  0.00  0.00    +0.000 OA
ATOM      3  N   UNL     1      -9.156  48.870  23.726  0.00  0.00    +0.000 N 
ATOM      4  N   UNL     1      -7.710  47.609  25.072  0.00  0.00    +0.000 N 
ATOM      5  C   UNL     1      -7.828  48.586  24.077  0.00  0.00    +0.000 A 
ATOM      6  C   UNL     1     -10.276  48.261  24.290  0.00  0.00    +0.000 A 
ATOM      7  C   UNL     1      -8.799  47.032  25.605  0.00  0.00    +0.000 A 
ATOM      8  C   UNL     1      -9.920  47.290  25.292  0.00  0.00    +0.000 A 
ATOM      9  H   UNL     1      -9.311  49.565  23.014  0.00  0.00    +0.000 HD
ATOM     10  H   UNL     1      -6.782  47.348  25.380  0.00  0.00    +0.000 HD
ENDROOT
TORSDOF 0
ENDMDL
MODEL 7
REMARK VINA RESULT:      -3.3     14.886     15.404
REMARK  Name = 1174_Uracil.pdbqt.pdb
REMARK  0 active torsions:
REMARK  status: ('A' for Active; 'I' for Inactive)
REMARK                            x       y       z     vdW  Elec       q    Type
REMARK                         _______ _______ _______ _____ _____    ______ ____
ROOT
ATOM      1  O   UNL     1       7.910  49.138  21.651  0.00  0.00    +0.000 OA
ATOM      2  O   UNL     1       8.583  50.881  25.892  0.00  0.00    +0.000 OA
ATOM      3  N   UNL     1       8.188  50.046  23.758  0.00  0.00    +0.000 N 
ATOM      4  N   UNL     1       9.708  48.464  22.936  0.00  0.00    +0.000 N 
ATOM      5  C   UNL     1       8.549  49.209  22.693  0.00  0.00    +0.000 A 
ATOM      6  C   UNL     1       8.888  50.155  24.958  0.00  0.00    +0.000 A 
ATOM      7  C   UNL     1      10.372  48.580  24.098  0.00  0.00    +0.000 A 
ATOM      8  C   UNL     1      10.046  49.299  24.991  0.00  0.00    +0.000 A 
ATOM      9  H   UNL     1       7.361  50.610  23.647  0.00  0.00    +0.000 HD
ATOM     10  H   UNL     1      10.035  47.834  22.214  0.00  0.00    +0.000 HD
ENDROOT
TORSDOF 0
ENDMDL
MODEL 8
REMARK VINA RESULT:      -3.3      5.187      5.714
REMARK  Name = 1174_Uracil.pdbqt.pdb
REMARK  0 active torsions:
REMARK  status: ('A' for Active; 'I' for Inactive)
REMARK                            x       y       z     vdW  Elec       q    Type
REMARK                         _______ _______ _______ _____ _____    ______ ____
ROOT
ATOM      1  O   UNL     1     -11.294  46.825  26.418  0.00  0.00    +0.000 OA
ATOM      2  O   UNL     1     -10.751  50.681  23.906  0.00  0.00    +0.000 OA
ATOM      3  N   UNL     1     -11.085  48.772  25.190  0.00  0.00    +0.000 N 
ATOM      4  N   UNL     1      -9.411  47.133  25.115  0.00  0.00    +0.000 N 
ATOM      5  C   UNL     1     -10.649  47.517  25.640  0.00  0.00    +0.000 A 
ATOM      6  C   UNL     1     -10.381  49.588  24.305  0.00  0.00    +0.000 A 
ATOM      7  C   UNL     1      -8.746  47.931  24.263  0.00  0.00    +0.000 A 
ATOM      8  C   UNL     1      -9.135  48.996  23.893  0.00  0.00    +0.000 A 
ATOM      9  H   UNL     1     -11.971  49.107  25.531  0.00  0.00    +0.000 HD
ATOM     10  H   UNL     1      -9.027  46.238  25.392  0.00  0.00    +0.000 HD
ENDROOT
TORSDOF 0
ENDMDL
MODEL 9
REMARK VINA RESULT:      -3.1     15.170     15.799
REMARK  Name = 1174_Uracil.pdbqt.pdb
REMARK  0 active torsions:
REMARK  status: ('A' for Active; 'I' for Inactive)
REMARK                            x       y       z     vdW  Elec       q    Type
REMARK                         _______ _______ _______ _____ _____    ______ ____
ROOT
ATOM      1  O   UNL     1       8.558  48.621  24.253  0.00  0.00    +0.000 OA
ATOM      2  O   UNL     1      10.645  52.743  23.900  0.00  0.00    +0.000 OA
ATOM      3  N   UNL     1       9.628  50.656  24.016  0.00  0.00    +0.000 N 
ATOM      4  N   UNL     1       8.262  50.240  25.875  0.00  0.00    +0.000 N 
ATOM      5  C   UNL     1       8.795  49.744  24.680  0.00  0.00    +0.000 A 
ATOM      6  C   UNL     1       9.921  51.941  24.469  0.00  0.00    +0.000 A 
ATOM      7  C   UNL     1       8.555  51.481  26.298  0.00  0.00    +0.000 A 
ATOM      8  C   UNL     1       9.266  52.240  25.716  0.00  0.00    +0.000 A 
ATOM      9  H   UNL     1      10.044  50.360  23.148  0.00  0.00    +0.000 HD
ATOM     10  H   UNL     1       7.650  49.640  26.414  0.00  0.00    +0.000 HD
ENDROOT
TORSDOF 0
ENDMDL
