MODEL 1
REMARK VINA RESULT:      -6.5      0.000      0.000
REMARK  Name = 122178712_SalternamideA.pdbqt.pdb
REMARK  8 active torsions:
REMARK  status: ('A' for Active; 'I' for Inactive)
REMARK    1  A    between atoms: C_3  and  O_24
REMARK    2  A    between atoms: C_3  and  C_26
REMARK    3  A    between atoms: C_6  and  N_10
REMARK    4  A    between atoms: C_11  and  C_14
REMARK    5  A    between atoms: C_13  and  C_15
REMARK    6  A    between atoms: C_27  and  C_28
REMARK    7  A    between atoms: C_29  and  C_31
REMARK    8  A    between atoms: C_31  and  O_32
REMARK                            x       y       z     vdW  Elec       q    Type
REMARK                         _______ _______ _______ _____ _____    ______ ____
ROOT
ATOM      1 CL   UNL     1     -17.217  52.867  25.975  0.00  0.00    +0.000 Cl
ATOM      2  O   UNL     1     -14.635  51.061  26.086  0.00  0.00    +0.000 OA
ATOM      3  C   UNL     1     -16.817  51.014  22.372  0.00  0.00    +0.000 C 
ATOM      4  C   UNL     1     -15.563  50.356  22.773  0.00  0.00    +0.000 C 
ATOM      5  C   UNL     1     -17.109  51.707  23.638  0.00  0.00    +0.000 C 
ATOM      6  C   UNL     1     -14.800  50.261  23.824  0.00  0.00    +0.000 C 
ATOM      7  C   UNL     1     -16.576  51.807  24.820  0.00  0.00    +0.000 C 
ATOM      8  C   UNL     1     -15.279  51.055  25.045  0.00  0.00    +0.000 C 
ENDROOT
BRANCH   6  10
ATOM      9  O   UNL     1     -12.069  51.224  24.227  0.00  0.00    +0.000 OA
ATOM     10  N   UNL     1     -13.638  49.541  23.920  0.00  0.00    +0.000 N 
ATOM     11  C   UNL     1     -12.376  50.047  24.111  0.00  0.00    +0.000 C 
ATOM     12  H   UNL     1     -13.745  48.532  23.836  0.00  0.00    +0.000 HD
BRANCH  11  14
ATOM     13  C   UNL     1     -10.465  48.221  24.222  0.00  0.00    +0.000 C 
ATOM     14  C   UNL     1     -11.330  49.053  24.178  0.00  0.00    +0.000 C 
BRANCH  13  15
ATOM     15  C   UNL     1      -9.443  47.241  24.265  0.00  0.00    +0.000 C 
ATOM     16  C   UNL     1      -9.730  45.892  23.669  0.00  0.00    +0.000 C 
ATOM     17  C   UNL     1      -8.185  47.419  24.875  0.00  0.00    +0.000 C 
ATOM     18  C   UNL     1      -6.922  47.583  25.478  0.00  0.00    +0.000 C 
ATOM     19  C   UNL     1      -6.452  48.985  25.731  0.00  0.00    +0.000 C 
ATOM     20  C   UNL     1      -6.085  46.528  25.880  0.00  0.00    +0.000 C 
ATOM     21  C   UNL     1      -5.320  45.561  26.255  0.00  0.00    +0.000 C 
ATOM     22  C   UNL     1      -4.345  44.975  25.282  0.00  0.00    +0.000 C 
ATOM     23  C   UNL     1      -5.641  44.823  27.517  0.00  0.00    +0.000 C 
ENDBRANCH  13  15
ENDBRANCH  11  14
ENDBRANCH   6  10
BRANCH   3  24
ATOM     24  O   UNL     1     -17.807  50.033  22.141  0.00  0.00    +0.000 OA
ATOM     25  H   UNL     1     -18.538  50.243  22.747  0.00  0.00    +0.000 HD
ENDBRANCH   3  24
BRANCH   3  26
ATOM     26  C   UNL     1     -16.693  51.897  21.220  0.00  0.00    +0.000 C 
ATOM     27  C   UNL     1     -16.561  52.830  20.012  0.00  0.00    +0.000 C 
BRANCH  27  28
ATOM     28  C   UNL     1     -16.428  53.766  18.807  0.00  0.00    +0.000 C 
ATOM     29  C   UNL     1     -16.293  54.699  17.600  0.00  0.00    +0.000 C 
BRANCH  29  31
ATOM     30  O   UNL     1     -16.070  56.782  16.565  0.00  0.00    +0.000 OA
ATOM     31  C   UNL     1     -16.169  55.571  16.472  0.00  0.00    +0.000 C 
BRANCH  31  32
ATOM     32  O   UNL     1     -16.171  54.935  15.287  0.00  0.00    +0.000 OA
ATOM     33  H   UNL     1     -15.230  54.947  15.017  0.00  0.00    +0.000 HD
ENDBRANCH  31  32
ENDBRANCH  29  31
ENDBRANCH  27  28
ENDBRANCH   3  26
TORSDOF 8
ENDMDL
MODEL 2
REMARK VINA RESULT:      -6.0     12.805     16.879
REMARK  Name = 122178712_SalternamideA.pdbqt.pdb
REMARK  8 active torsions:
REMARK  status: ('A' for Active; 'I' for Inactive)
REMARK    1  A    between atoms: C_3  and  O_24
REMARK    2  A    between atoms: C_3  and  C_26
REMARK    3  A    between atoms: C_6  and  N_10
REMARK    4  A    between atoms: C_11  and  C_14
REMARK    5  A    between atoms: C_13  and  C_15
REMARK    6  A    between atoms: C_27  and  C_28
REMARK    7  A    between atoms: C_29  and  C_31
REMARK    8  A    between atoms: C_31  and  O_32
REMARK                            x       y       z     vdW  Elec       q    Type
REMARK                         _______ _______ _______ _____ _____    ______ ____
ROOT
ATOM      1 CL   UNL     1       2.452  56.498  24.649  0.00  0.00    +0.000 Cl
ATOM      2  O   UNL     1      -0.582  56.535  23.794  0.00  0.00    +0.000 OA
ATOM      3  C   UNL     1       2.263  57.534  20.717  0.00  0.00    +0.000 C 
ATOM      4  C   UNL     1       0.797  57.397  20.681  0.00  0.00    +0.000 C 
ATOM      5  C   UNL     1       2.472  57.221  22.140  0.00  0.00    +0.000 C 
ATOM      6  C   UNL     1      -0.180  57.121  21.496  0.00  0.00    +0.000 C 
ATOM      7  C   UNL     1       1.739  56.924  23.173  0.00  0.00    +0.000 C 
ATOM      8  C   UNL     1       0.245  56.828  22.940  0.00  0.00    +0.000 C 
ENDROOT
BRANCH   6  10
ATOM      9  O   UNL     1      -2.067  59.316  21.086  0.00  0.00    +0.000 OA
ATOM     10  N   UNL     1      -1.511  57.065  21.176  0.00  0.00    +0.000 N 
ATOM     11  C   UNL     1      -2.355  58.132  20.994  0.00  0.00    +0.000 C 
ATOM     12  H   UNL     1      -1.892  56.126  21.070  0.00  0.00    +0.000 HD
BRANCH  11  14
ATOM     13  C   UNL     1      -4.849  57.492  20.386  0.00  0.00    +0.000 C 
ATOM     14  C   UNL     1      -3.714  57.778  20.657  0.00  0.00    +0.000 C 
BRANCH  13  15
ATOM     15  C   UNL     1      -6.189  57.163  20.068  0.00  0.00    +0.000 C 
ATOM     16  C   UNL     1      -6.628  57.287  18.636  0.00  0.00    +0.000 C 
ATOM     17  C   UNL     1      -7.166  56.775  21.006  0.00  0.00    +0.000 C 
ATOM     18  C   UNL     1      -8.152  56.381  21.933  0.00  0.00    +0.000 C 
ATOM     19  C   UNL     1      -7.687  55.878  23.268  0.00  0.00    +0.000 C 
ATOM     20  C   UNL     1      -9.536  56.451  21.705  0.00  0.00    +0.000 C 
ATOM     21  C   UNL     1     -10.807  56.520  21.498  0.00  0.00    +0.000 C 
ATOM     22  C   UNL     1     -11.511  55.367  20.852  0.00  0.00    +0.000 C 
ATOM     23  C   UNL     1     -11.490  57.849  21.588  0.00  0.00    +0.000 C 
ENDBRANCH  13  15
ENDBRANCH  11  14
ENDBRANCH   6  10
BRANCH   3  24
ATOM     24  O   UNL     1       2.612  58.882  20.481  0.00  0.00    +0.000 OA
ATOM     25  H   UNL     1       2.781  59.271  21.356  0.00  0.00    +0.000 HD
ENDBRANCH   3  24
BRANCH   3  26
ATOM     26  C   UNL     1       2.973  56.654  19.798  0.00  0.00    +0.000 C 
ATOM     27  C   UNL     1       3.724  55.727  18.837  0.00  0.00    +0.000 C 
BRANCH  27  28
ATOM     28  C   UNL     1       4.477  54.800  17.879  0.00  0.00    +0.000 C 
ATOM     29  C   UNL     1       5.232  53.872  16.923  0.00  0.00    +0.000 C 
BRANCH  29  31
ATOM     30  O   UNL     1       6.323  53.343  14.925  0.00  0.00    +0.000 OA
ATOM     31  C   UNL     1       5.937  53.003  16.030  0.00  0.00    +0.000 C 
BRANCH  31  32
ATOM     32  O   UNL     1       6.141  51.766  16.518  0.00  0.00    +0.000 OA
ATOM     33  H   UNL     1       5.349  51.602  17.069  0.00  0.00    +0.000 HD
ENDBRANCH  31  32
ENDBRANCH  29  31
ENDBRANCH  27  28
ENDBRANCH   3  26
TORSDOF 8
ENDMDL
MODEL 3
REMARK VINA RESULT:      -5.9     23.179     25.864
REMARK  Name = 122178712_SalternamideA.pdbqt.pdb
REMARK  8 active torsions:
REMARK  status: ('A' for Active; 'I' for Inactive)
REMARK    1  A    between atoms: C_3  and  O_24
REMARK    2  A    between atoms: C_3  and  C_26
REMARK    3  A    between atoms: C_6  and  N_10
REMARK    4  A    between atoms: C_11  and  C_14
REMARK    5  A    between atoms: C_13  and  C_15
REMARK    6  A    between atoms: C_27  and  C_28
REMARK    7  A    between atoms: C_29  and  C_31
REMARK    8  A    between atoms: C_31  and  O_32
REMARK                            x       y       z     vdW  Elec       q    Type
REMARK                         _______ _______ _______ _____ _____    ______ ____
ROOT
ATOM      1 CL   UNL     1     -23.682  29.198   6.516  0.00  0.00    +0.000 Cl
ATOM      2  O   UNL     1     -22.447  32.086   6.243  0.00  0.00    +0.000 OA
ATOM      3  C   UNL     1     -21.382  29.902   9.801  0.00  0.00    +0.000 C 
ATOM      4  C   UNL     1     -20.967  31.227   9.311  0.00  0.00    +0.000 C 
ATOM      5  C   UNL     1     -22.283  29.537   8.695  0.00  0.00    +0.000 C 
ATOM      6  C   UNL     1     -21.196  32.010   8.296  0.00  0.00    +0.000 C 
ATOM      7  C   UNL     1     -22.710  30.075   7.591  0.00  0.00    +0.000 C 
ATOM      8  C   UNL     1     -22.168  31.450   7.252  0.00  0.00    +0.000 C 
ENDROOT
BRANCH   6  10
ATOM      9  O   UNL     1     -18.385  32.748   7.975  0.00  0.00    +0.000 OA
ATOM     10  N   UNL     1     -20.649  33.250   8.089  0.00  0.00    +0.000 N 
ATOM     11  C   UNL     1     -19.315  33.541   7.944  0.00  0.00    +0.000 C 
ATOM     12  H   UNL     1     -21.318  34.016   8.045  0.00  0.00    +0.000 HD
BRANCH  11  14
ATOM     13  C   UNL     1     -18.764  36.099   7.555  0.00  0.00    +0.000 C 
ATOM     14  C   UNL     1     -19.022  34.939   7.732  0.00  0.00    +0.000 C 
BRANCH  13  15
ATOM     15  C   UNL     1     -18.455  37.465   7.341  0.00  0.00    +0.000 C 
ATOM     16  C   UNL     1     -19.505  38.488   7.669  0.00  0.00    +0.000 C 
ATOM     17  C   UNL     1     -17.247  37.938   6.792  0.00  0.00    +0.000 C 
ATOM     18  C   UNL     1     -16.042  38.427   6.247  0.00  0.00    +0.000 C 
ATOM     19  C   UNL     1     -14.852  37.514   6.268  0.00  0.00    +0.000 C 
ATOM     20  C   UNL     1     -15.886  39.695   5.664  0.00  0.00    +0.000 C 
ATOM     21  C   UNL     1     -15.742  40.857   5.124  0.00  0.00    +0.000 C 
ATOM     22  C   UNL     1     -15.373  42.027   5.982  0.00  0.00    +0.000 C 
ATOM     23  C   UNL     1     -16.268  41.088   3.741  0.00  0.00    +0.000 C 
ENDBRANCH  13  15
ENDBRANCH  11  14
ENDBRANCH   6  10
BRANCH   3  24
ATOM     24  O   UNL     1     -22.137  30.057  10.984  0.00  0.00    +0.000 OA
ATOM     25  H   UNL     1     -21.542  29.815  11.714  0.00  0.00    +0.000 HD
ENDBRANCH   3  24
BRANCH   3  26
ATOM     26  C   UNL     1     -20.284  28.967  10.014  0.00  0.00    +0.000 C 
ATOM     27  C   UNL     1     -19.130  27.985  10.232  0.00  0.00    +0.000 C 
BRANCH  27  28
ATOM     28  C   UNL     1     -17.974  27.003  10.445  0.00  0.00    +0.000 C 
ATOM     29  C   UNL     1     -16.818  26.022  10.663  0.00  0.00    +0.000 C 
BRANCH  29  31
ATOM     30  O   UNL     1     -15.857  23.895  10.769  0.00  0.00    +0.000 OA
ATOM     31  C   UNL     1     -15.739  25.104  10.865  0.00  0.00    +0.000 C 
BRANCH  31  32
ATOM     32  O   UNL     1     -14.570  25.693  11.175  0.00  0.00    +0.000 OA
ATOM     33  H   UNL     1     -14.837  26.578  11.498  0.00  0.00    +0.000 HD
ENDBRANCH  31  32
ENDBRANCH  29  31
ENDBRANCH  27  28
ENDBRANCH   3  26
TORSDOF 8
ENDMDL
MODEL 4
REMARK VINA RESULT:      -5.9     24.323     26.982
REMARK  Name = 122178712_SalternamideA.pdbqt.pdb
REMARK  8 active torsions:
REMARK  status: ('A' for Active; 'I' for Inactive)
REMARK    1  A    between atoms: C_3  and  O_24
REMARK    2  A    between atoms: C_3  and  C_26
REMARK    3  A    between atoms: C_6  and  N_10
REMARK    4  A    between atoms: C_11  and  C_14
REMARK    5  A    between atoms: C_13  and  C_15
REMARK    6  A    between atoms: C_27  and  C_28
REMARK    7  A    between atoms: C_29  and  C_31
REMARK    8  A    between atoms: C_31  and  O_32
REMARK                            x       y       z     vdW  Elec       q    Type
REMARK                         _______ _______ _______ _____ _____    ______ ____
ROOT
ATOM      1 CL   UNL     1       0.886  24.564  22.186  0.00  0.00    +0.000 Cl
ATOM      2  O   UNL     1      -2.215  24.656  22.752  0.00  0.00    +0.000 OA
ATOM      3  C   UNL     1      -0.588  28.002  20.579  0.00  0.00    +0.000 C 
ATOM      4  C   UNL     1      -1.968  27.675  20.973  0.00  0.00    +0.000 C 
ATOM      5  C   UNL     1       0.083  26.825  21.155  0.00  0.00    +0.000 C 
ATOM      6  C   UNL     1      -2.607  26.742  21.619  0.00  0.00    +0.000 C 
ATOM      7  C   UNL     1      -0.253  25.767  21.834  0.00  0.00    +0.000 C 
ATOM      8  C   UNL     1      -1.727  25.602  22.146  0.00  0.00    +0.000 C 
ENDROOT
BRANCH   6  10
ATOM      9  O   UNL     1      -4.773  26.180  19.739  0.00  0.00    +0.000 OA
ATOM     10  N   UNL     1      -3.957  26.693  21.850  0.00  0.00    +0.000 N 
ATOM     11  C   UNL     1      -4.935  26.422  20.926  0.00  0.00    +0.000 C 
ATOM     12  H   UNL     1      -4.239  26.882  22.810  0.00  0.00    +0.000 HD
BRANCH  11  14
ATOM     13  C   UNL     1      -7.396  26.433  21.896  0.00  0.00    +0.000 C 
ATOM     14  C   UNL     1      -6.281  26.433  21.450  0.00  0.00    +0.000 C 
BRANCH  13  15
ATOM     15  C   UNL     1      -8.708  26.434  22.429  0.00  0.00    +0.000 C 
ATOM     16  C   UNL     1      -9.334  27.757  22.769  0.00  0.00    +0.000 C 
ATOM     17  C   UNL     1      -9.459  25.277  22.716  0.00  0.00    +0.000 C 
ATOM     18  C   UNL     1     -10.224  24.128  23.005  0.00  0.00    +0.000 C 
ATOM     19  C   UNL     1      -9.820  22.843  22.344  0.00  0.00    +0.000 C 
ATOM     20  C   UNL     1     -11.318  24.098  23.885  0.00  0.00    +0.000 C 
ATOM     21  C   UNL     1     -12.319  24.067  24.698  0.00  0.00    +0.000 C 
ATOM     22  C   UNL     1     -13.692  24.374  24.186  0.00  0.00    +0.000 C 
ATOM     23  C   UNL     1     -12.061  24.063  26.173  0.00  0.00    +0.000 C 
ENDBRANCH  13  15
ENDBRANCH  11  14
ENDBRANCH   6  10
BRANCH   3  24
ATOM     24  O   UNL     1      -0.167  29.161  21.267  0.00  0.00    +0.000 OA
ATOM     25  H   UNL     1       0.523  28.867  21.887  0.00  0.00    +0.000 HD
ENDBRANCH   3  24
BRANCH   3  26
ATOM     26  C   UNL     1      -0.393  28.160  19.143  0.00  0.00    +0.000 C 
ATOM     27  C   UNL     1      -0.190  28.322  17.634  0.00  0.00    +0.000 C 
BRANCH  27  28
ATOM     28  C   UNL     1       0.010  28.480  16.124  0.00  0.00    +0.000 C 
ATOM     29  C   UNL     1       0.211  28.634  14.614  0.00  0.00    +0.000 C 
BRANCH  29  31
ATOM     30  O   UNL     1       0.778  27.876  12.477  0.00  0.00    +0.000 OA
ATOM     31  C   UNL     1       0.398  28.779  13.202  0.00  0.00    +0.000 C 
BRANCH  31  32
ATOM     32  O   UNL     1       0.116  30.009  12.736  0.00  0.00    +0.000 OA
ATOM     33  H   UNL     1      -0.502  29.840  11.996  0.00  0.00    +0.000 HD
ENDBRANCH  31  32
ENDBRANCH  29  31
ENDBRANCH  27  28
ENDBRANCH   3  26
TORSDOF 8
ENDMDL
MODEL 5
REMARK VINA RESULT:      -5.7     23.438     25.405
REMARK  Name = 122178712_SalternamideA.pdbqt.pdb
REMARK  8 active torsions:
REMARK  status: ('A' for Active; 'I' for Inactive)
REMARK    1  A    between atoms: C_3  and  O_24
REMARK    2  A    between atoms: C_3  and  C_26
REMARK    3  A    between atoms: C_6  and  N_10
REMARK    4  A    between atoms: C_11  and  C_14
REMARK    5  A    between atoms: C_13  and  C_15
REMARK    6  A    between atoms: C_27  and  C_28
REMARK    7  A    between atoms: C_29  and  C_31
REMARK    8  A    between atoms: C_31  and  O_32
REMARK                            x       y       z     vdW  Elec       q    Type
REMARK                         _______ _______ _______ _____ _____    ______ ____
ROOT
ATOM      1 CL   UNL     1     -12.566  30.889   1.412  0.00  0.00    +0.000 Cl
ATOM      2  O   UNL     1     -11.396  29.331   3.891  0.00  0.00    +0.000 OA
ATOM      3  C   UNL     1     -11.270  33.631   4.129  0.00  0.00    +0.000 C 
ATOM      4  C   UNL     1     -10.875  32.590   5.093  0.00  0.00    +0.000 C 
ATOM      5  C   UNL     1     -11.731  32.752   3.042  0.00  0.00    +0.000 C 
ATOM      6  C   UNL     1     -10.840  31.291   5.170  0.00  0.00    +0.000 C 
ATOM      7  C   UNL     1     -11.817  31.474   2.815  0.00  0.00    +0.000 C 
ATOM      8  C   UNL     1     -11.360  30.554   3.930  0.00  0.00    +0.000 C 
ENDROOT
BRANCH   6  10
ATOM      9  O   UNL     1     -12.379  30.152   7.379  0.00  0.00    +0.000 OA
ATOM     10  N   UNL     1     -10.398  30.554   6.238  0.00  0.00    +0.000 N 
ATOM     11  C   UNL     1     -11.169  30.040   7.251  0.00  0.00    +0.000 C 
ATOM     12  H   UNL     1      -9.394  30.385   6.262  0.00  0.00    +0.000 HD
BRANCH  11  14
ATOM     13  C   UNL     1      -9.826  28.689   9.087  0.00  0.00    +0.000 C 
ATOM     14  C   UNL     1     -10.436  29.296   8.249  0.00  0.00    +0.000 C 
BRANCH  13  15
ATOM     15  C   UNL     1      -9.109  27.978  10.080  0.00  0.00    +0.000 C 
ATOM     16  C   UNL     1      -7.611  27.931   9.975  0.00  0.00    +0.000 C 
ATOM     17  C   UNL     1      -9.700  27.261  11.139  0.00  0.00    +0.000 C 
ATOM     18  C   UNL     1     -10.278  26.542  12.205  0.00  0.00    +0.000 C 
ATOM     19  C   UNL     1     -11.695  26.869  12.573  0.00  0.00    +0.000 C 
ATOM     20  C   UNL     1      -9.629  25.529  12.929  0.00  0.00    +0.000 C 
ATOM     21  C   UNL     1      -9.037  24.593  13.591  0.00  0.00    +0.000 C 
ATOM     22  C   UNL     1      -8.214  24.948  14.790  0.00  0.00    +0.000 C 
ATOM     23  C   UNL     1      -8.898  23.237  12.971  0.00  0.00    +0.000 C 
ENDBRANCH  13  15
ENDBRANCH  11  14
ENDBRANCH   6  10
BRANCH   3  24
ATOM     24  O   UNL     1     -10.121  34.334   3.703  0.00  0.00    +0.000 OA
ATOM     25  H   UNL     1     -10.446  35.062   3.146  0.00  0.00    +0.000 HD
ENDBRANCH   3  24
BRANCH   3  26
ATOM     26  C   UNL     1     -12.282  34.556   4.622  0.00  0.00    +0.000 C 
ATOM     27  C   UNL     1     -13.342  35.533   5.140  0.00  0.00    +0.000 C 
BRANCH  27  28
ATOM     28  C   UNL     1     -14.399  36.513   5.658  0.00  0.00    +0.000 C 
ATOM     29  C   UNL     1     -15.453  37.495   6.177  0.00  0.00    +0.000 C 
BRANCH  29  31
ATOM     30  O   UNL     1     -16.488  39.584   6.330  0.00  0.00    +0.000 OA
ATOM     31  C   UNL     1     -16.439  38.413   6.661  0.00  0.00    +0.000 C 
BRANCH  31  32
ATOM     32  O   UNL     1     -17.316  37.869   7.524  0.00  0.00    +0.000 OA
ATOM     33  H   UNL     1     -16.782  37.714   8.329  0.00  0.00    +0.000 HD
ENDBRANCH  31  32
ENDBRANCH  29  31
ENDBRANCH  27  28
ENDBRANCH   3  26
TORSDOF 8
ENDMDL
MODEL 6
REMARK VINA RESULT:      -5.6     24.901     27.441
REMARK  Name = 122178712_SalternamideA.pdbqt.pdb
REMARK  8 active torsions:
REMARK  status: ('A' for Active; 'I' for Inactive)
REMARK    1  A    between atoms: C_3  and  O_24
REMARK    2  A    between atoms: C_3  and  C_26
REMARK    3  A    between atoms: C_6  and  N_10
REMARK    4  A    between atoms: C_11  and  C_14
REMARK    5  A    between atoms: C_13  and  C_15
REMARK    6  A    between atoms: C_27  and  C_28
REMARK    7  A    between atoms: C_29  and  C_31
REMARK    8  A    between atoms: C_31  and  O_32
REMARK                            x       y       z     vdW  Elec       q    Type
REMARK                         _______ _______ _______ _____ _____    ______ ____
ROOT
ATOM      1 CL   UNL     1      -0.769  24.095  21.769  0.00  0.00    +0.000 Cl
ATOM      2  O   UNL     1      -3.888  23.765  21.440  0.00  0.00    +0.000 OA
ATOM      3  C   UNL     1      -2.201  27.423  19.911  0.00  0.00    +0.000 C 
ATOM      4  C   UNL     1      -3.578  26.903  19.891  0.00  0.00    +0.000 C 
ATOM      5  C   UNL     1      -1.559  26.303  20.619  0.00  0.00    +0.000 C 
ATOM      6  C   UNL     1      -4.235  25.857  20.303  0.00  0.00    +0.000 C 
ATOM      7  C   UNL     1      -1.921  25.170  21.145  0.00  0.00    +0.000 C 
ATOM      8  C   UNL     1      -3.387  24.802  21.024  0.00  0.00    +0.000 C 
ENDROOT
BRANCH   6  10
ATOM      9  O   UNL     1      -5.629  24.620  18.051  0.00  0.00    +0.000 OA
ATOM     10  N   UNL     1      -5.576  25.626  20.142  0.00  0.00    +0.000 N 
ATOM     11  C   UNL     1      -6.181  25.038  19.059  0.00  0.00    +0.000 C 
ATOM     12  H   UNL     1      -6.164  25.932  20.915  0.00  0.00    +0.000 HD
BRANCH  11  14
ATOM     13  C   UNL     1      -8.810  24.807  19.233  0.00  0.00    +0.000 C 
ATOM     14  C   UNL     1      -7.616  24.917  19.159  0.00  0.00    +0.000 C 
BRANCH  13  15
ATOM     15  C   UNL     1     -10.217  24.670  19.318  0.00  0.00    +0.000 C 
ATOM     16  C   UNL     1     -10.775  23.706  20.327  0.00  0.00    +0.000 C 
ATOM     17  C   UNL     1     -11.141  25.335  18.488  0.00  0.00    +0.000 C 
ATOM     18  C   UNL     1     -12.077  25.995  17.667  0.00  0.00    +0.000 C 
ATOM     19  C   UNL     1     -11.614  27.220  16.935  0.00  0.00    +0.000 C 
ATOM     20  C   UNL     1     -13.402  25.574  17.467  0.00  0.00    +0.000 C 
ATOM     21  C   UNL     1     -14.617  25.185  17.278  0.00  0.00    +0.000 C 
ATOM     22  C   UNL     1     -15.692  25.650  18.211  0.00  0.00    +0.000 C 
ATOM     23  C   UNL     1     -14.879  24.029  16.363  0.00  0.00    +0.000 C 
ENDBRANCH  13  15
ENDBRANCH  11  14
ENDBRANCH   6  10
BRANCH   3  24
ATOM     24  O   UNL     1      -2.150  28.577  20.724  0.00  0.00    +0.000 OA
ATOM     25  H   UNL     1      -2.935  29.102  20.492  0.00  0.00    +0.000 HD
ENDBRANCH   3  24
BRANCH   3  26
ATOM     26  C   UNL     1      -1.641  27.700  18.594  0.00  0.00    +0.000 C 
ATOM     27  C   UNL     1      -1.056  27.986  17.208  0.00  0.00    +0.000 C 
BRANCH  27  28
ATOM     28  C   UNL     1      -0.474  28.269  15.821  0.00  0.00    +0.000 C 
ATOM     29  C   UNL     1       0.106  28.555  14.432  0.00  0.00    +0.000 C 
BRANCH  29  31
ATOM     30  O   UNL     1      -0.032  28.943  12.132  0.00  0.00    +0.000 OA
ATOM     31  C   UNL     1       0.649  28.822  13.135  0.00  0.00    +0.000 C 
BRANCH  31  32
ATOM     32  O   UNL     1       1.990  28.930  13.115  0.00  0.00    +0.000 OA
ATOM     33  H   UNL     1       2.297  28.002  13.159  0.00  0.00    +0.000 HD
ENDBRANCH  31  32
ENDBRANCH  29  31
ENDBRANCH  27  28
ENDBRANCH   3  26
TORSDOF 8
ENDMDL
MODEL 7
REMARK VINA RESULT:      -5.6     12.875     17.426
REMARK  Name = 122178712_SalternamideA.pdbqt.pdb
REMARK  8 active torsions:
REMARK  status: ('A' for Active; 'I' for Inactive)
REMARK    1  A    between atoms: C_3  and  O_24
REMARK    2  A    between atoms: C_3  and  C_26
REMARK    3  A    between atoms: C_6  and  N_10
REMARK    4  A    between atoms: C_11  and  C_14
REMARK    5  A    between atoms: C_13  and  C_15
REMARK    6  A    between atoms: C_27  and  C_28
REMARK    7  A    between atoms: C_29  and  C_31
REMARK    8  A    between atoms: C_31  and  O_32
REMARK                            x       y       z     vdW  Elec       q    Type
REMARK                         _______ _______ _______ _____ _____    ______ ____
ROOT
ATOM      1 CL   UNL     1       2.350  55.992  24.826  0.00  0.00    +0.000 Cl
ATOM      2  O   UNL     1      -0.663  56.313  23.954  0.00  0.00    +0.000 OA
ATOM      3  C   UNL     1       2.286  57.415  21.013  0.00  0.00    +0.000 C 
ATOM      4  C   UNL     1       0.815  57.380  20.952  0.00  0.00    +0.000 C 
ATOM      5  C   UNL     1       2.454  56.952  22.400  0.00  0.00    +0.000 C 
ATOM      6  C   UNL     1      -0.190  57.092  21.728  0.00  0.00    +0.000 C 
ATOM      7  C   UNL     1       1.688  56.606  23.393  0.00  0.00    +0.000 C 
ATOM      8  C   UNL     1       0.194  56.632  23.139  0.00  0.00    +0.000 C 
ENDROOT
BRANCH   6  10
ATOM      9  O   UNL     1      -1.818  59.437  21.101  0.00  0.00    +0.000 OA
ATOM     10  N   UNL     1      -1.517  57.155  21.393  0.00  0.00    +0.000 N 
ATOM     11  C   UNL     1      -2.235  58.289  21.106  0.00  0.00    +0.000 C 
ATOM     12  H   UNL     1      -1.999  56.258  21.362  0.00  0.00    +0.000 HD
BRANCH  11  14
ATOM     13  C   UNL     1      -4.775  57.869  20.495  0.00  0.00    +0.000 C 
ATOM     14  C   UNL     1      -3.623  58.059  20.779  0.00  0.00    +0.000 C 
BRANCH  13  15
ATOM     15  C   UNL     1      -6.130  57.642  20.152  0.00  0.00    +0.000 C 
ATOM     16  C   UNL     1      -6.846  56.499  20.815  0.00  0.00    +0.000 C 
ATOM     17  C   UNL     1      -6.851  58.379  19.192  0.00  0.00    +0.000 C 
ATOM     18  C   UNL     1      -7.585  59.110  18.236  0.00  0.00    +0.000 C 
ATOM     19  C   UNL     1      -7.062  60.461  17.845  0.00  0.00    +0.000 C 
ATOM     20  C   UNL     1      -8.756  58.653  17.608  0.00  0.00    +0.000 C 
ATOM     21  C   UNL     1      -9.826  58.233  17.026  0.00  0.00    +0.000 C 
ATOM     22  C   UNL     1     -11.157  58.482  17.665  0.00  0.00    +0.000 C 
ATOM     23  C   UNL     1      -9.711  57.227  15.923  0.00  0.00    +0.000 C 
ENDBRANCH  13  15
ENDBRANCH  11  14
ENDBRANCH   6  10
BRANCH   3  24
ATOM     24  O   UNL     1       2.726  58.754  20.913  0.00  0.00    +0.000 OA
ATOM     25  H   UNL     1       3.161  58.955  21.759  0.00  0.00    +0.000 HD
ENDBRANCH   3  24
BRANCH   3  26
ATOM     26  C   UNL     1       2.951  56.583  20.018  0.00  0.00    +0.000 C 
ATOM     27  C   UNL     1       3.651  55.704  18.978  0.00  0.00    +0.000 C 
BRANCH  27  28
ATOM     28  C   UNL     1       4.353  54.823  17.940  0.00  0.00    +0.000 C 
ATOM     29  C   UNL     1       5.055  53.945  16.900  0.00  0.00    +0.000 C 
BRANCH  29  31
ATOM     30  O   UNL     1       5.832  53.432  14.757  0.00  0.00    +0.000 OA
ATOM     31  C   UNL     1       5.712  53.124  15.930  0.00  0.00    +0.000 C 
BRANCH  31  32
ATOM     32  O   UNL     1       6.192  51.969  16.425  0.00  0.00    +0.000 OA
ATOM     33  H   UNL     1       5.552  51.299  16.111  0.00  0.00    +0.000 HD
ENDBRANCH  31  32
ENDBRANCH  29  31
ENDBRANCH  27  28
ENDBRANCH   3  26
TORSDOF 8
ENDMDL
MODEL 8
REMARK VINA RESULT:      -5.6      2.158      2.775
REMARK  Name = 122178712_SalternamideA.pdbqt.pdb
REMARK  8 active torsions:
REMARK  status: ('A' for Active; 'I' for Inactive)
REMARK    1  A    between atoms: C_3  and  O_24
REMARK    2  A    between atoms: C_3  and  C_26
REMARK    3  A    between atoms: C_6  and  N_10
REMARK    4  A    between atoms: C_11  and  C_14
REMARK    5  A    between atoms: C_13  and  C_15
REMARK    6  A    between atoms: C_27  and  C_28
REMARK    7  A    between atoms: C_29  and  C_31
REMARK    8  A    between atoms: C_31  and  O_32
REMARK                            x       y       z     vdW  Elec       q    Type
REMARK                         _______ _______ _______ _____ _____    ______ ____
ROOT
ATOM      1 CL   UNL     1     -20.694  50.038  25.334  0.00  0.00    +0.000 Cl
ATOM      2  O   UNL     1     -17.801  49.345  26.378  0.00  0.00    +0.000 OA
ATOM      3  C   UNL     1     -18.235  49.707  22.107  0.00  0.00    +0.000 C 
ATOM      4  C   UNL     1     -17.053  49.452  22.947  0.00  0.00    +0.000 C 
ATOM      5  C   UNL     1     -19.241  49.805  23.176  0.00  0.00    +0.000 C 
ATOM      6  C   UNL     1     -16.762  49.307  24.208  0.00  0.00    +0.000 C 
ATOM      7  C   UNL     1     -19.273  49.707  24.473  0.00  0.00    +0.000 C 
ATOM      8  C   UNL     1     -17.952  49.441  25.166  0.00  0.00    +0.000 C 
ENDROOT
BRANCH   6  10
ATOM      9  O   UNL     1     -14.716  51.215  25.055  0.00  0.00    +0.000 OA
ATOM     10  N   UNL     1     -15.519  49.062  24.731  0.00  0.00    +0.000 N 
ATOM     11  C   UNL     1     -14.594  50.001  25.114  0.00  0.00    +0.000 C 
ATOM     12  H   UNL     1     -15.279  48.078  24.834  0.00  0.00    +0.000 HD
BRANCH  11  14
ATOM     13  C   UNL     1     -12.340  48.994  26.065  0.00  0.00    +0.000 C 
ATOM     14  C   UNL     1     -13.363  49.457  25.638  0.00  0.00    +0.000 C 
BRANCH  13  15
ATOM     15  C   UNL     1     -11.132  48.445  26.560  0.00  0.00    +0.000 C 
ATOM     16  C   UNL     1     -10.792  48.673  28.006  0.00  0.00    +0.000 C 
ATOM     17  C   UNL     1     -10.191  47.740  25.784  0.00  0.00    +0.000 C 
ATOM     18  C   UNL     1      -9.243  47.030  25.020  0.00  0.00    +0.000 C 
ATOM     19  C   UNL     1      -9.699  46.453  23.712  0.00  0.00    +0.000 C 
ATOM     20  C   UNL     1      -7.899  46.846  25.385  0.00  0.00    +0.000 C 
ATOM     21  C   UNL     1      -6.664  46.682  25.716  0.00  0.00    +0.000 C 
ATOM     22  C   UNL     1      -6.279  45.511  26.565  0.00  0.00    +0.000 C 
ATOM     23  C   UNL     1      -5.705  47.819  25.544  0.00  0.00    +0.000 C 
ENDBRANCH  13  15
ENDBRANCH  11  14
ENDBRANCH   6  10
BRANCH   3  24
ATOM     24  O   UNL     1     -18.504  48.565  21.319  0.00  0.00    +0.000 OA
ATOM     25  H   UNL     1     -18.575  48.884  20.403  0.00  0.00    +0.000 HD
ENDBRANCH   3  24
BRANCH   3  26
ATOM     26  C   UNL     1     -18.133  50.894  21.268  0.00  0.00    +0.000 C 
ATOM     27  C   UNL     1     -18.028  52.139  20.382  0.00  0.00    +0.000 C 
BRANCH  27  28
ATOM     28  C   UNL     1     -17.926  53.382  19.493  0.00  0.00    +0.000 C 
ATOM     29  C   UNL     1     -17.828  54.624  18.603  0.00  0.00    +0.000 C 
BRANCH  29  31
ATOM     30  O   UNL     1     -17.991  56.913  18.160  0.00  0.00    +0.000 OA
ATOM     31  C   UNL     1     -17.735  55.786  17.772  0.00  0.00    +0.000 C 
BRANCH  31  32
ATOM     32  O   UNL     1     -17.339  55.528  16.513  0.00  0.00    +0.000 OA
ATOM     33  H   UNL     1     -17.125  54.573  16.530  0.00  0.00    +0.000 HD
ENDBRANCH  31  32
ENDBRANCH  29  31
ENDBRANCH  27  28
ENDBRANCH   3  26
TORSDOF 8
ENDMDL
MODEL 9
REMARK VINA RESULT:      -5.3      1.690      2.704
REMARK  Name = 122178712_SalternamideA.pdbqt.pdb
REMARK  8 active torsions:
REMARK  status: ('A' for Active; 'I' for Inactive)
REMARK    1  A    between atoms: C_3  and  O_24
REMARK    2  A    between atoms: C_3  and  C_26
REMARK    3  A    between atoms: C_6  and  N_10
REMARK    4  A    between atoms: C_11  and  C_14
REMARK    5  A    between atoms: C_13  and  C_15
REMARK    6  A    between atoms: C_27  and  C_28
REMARK    7  A    between atoms: C_29  and  C_31
REMARK    8  A    between atoms: C_31  and  O_32
REMARK                            x       y       z     vdW  Elec       q    Type
REMARK                         _______ _______ _______ _____ _____    ______ ____
ROOT
ATOM      1 CL   UNL     1     -19.599  54.028  24.686  0.00  0.00    +0.000 Cl
ATOM      2  O   UNL     1     -17.009  52.594  25.772  0.00  0.00    +0.000 OA
ATOM      3  C   UNL     1     -18.079  51.729  21.690  0.00  0.00    +0.000 C 
ATOM      4  C   UNL     1     -16.933  51.299  22.508  0.00  0.00    +0.000 C 
ATOM      5  C   UNL     1     -18.762  52.559  22.696  0.00  0.00    +0.000 C 
ATOM      6  C   UNL     1     -16.482  51.456  23.720  0.00  0.00    +0.000 C 
ATOM      7  C   UNL     1     -18.582  52.898  23.939  0.00  0.00    +0.000 C 
ATOM      8  C   UNL     1     -17.340  52.355  24.618  0.00  0.00    +0.000 C 
ENDROOT
BRANCH   6  10
ATOM      9  O   UNL     1     -16.009  48.728  24.658  0.00  0.00    +0.000 OA
ATOM     10  N   UNL     1     -15.337  50.909  24.236  0.00  0.00    +0.000 N 
ATOM     11  C   UNL     1     -15.168  49.615  24.662  0.00  0.00    +0.000 C 
ATOM     12  H   UNL     1     -14.545  51.546  24.302  0.00  0.00    +0.000 HD
BRANCH  11  14
ATOM     13  C   UNL     1     -12.745  49.070  25.573  0.00  0.00    +0.000 C 
ATOM     14  C   UNL     1     -13.847  49.310  25.158  0.00  0.00    +0.000 C 
BRANCH  13  15
ATOM     15  C   UNL     1     -11.446  48.793  26.066  0.00  0.00    +0.000 C 
ATOM     16  C   UNL     1     -11.043  49.403  27.378  0.00  0.00    +0.000 C 
ATOM     17  C   UNL     1     -10.477  48.024  25.391  0.00  0.00    +0.000 C 
ATOM     18  C   UNL     1      -9.499  47.255  24.729  0.00  0.00    +0.000 C 
ATOM     19  C   UNL     1      -9.964  46.330  23.642  0.00  0.00    +0.000 C 
ATOM     20  C   UNL     1      -8.122  47.312  24.997  0.00  0.00    +0.000 C 
ATOM     21  C   UNL     1      -6.856  47.368  25.238  0.00  0.00    +0.000 C 
ATOM     22  C   UNL     1      -6.269  46.489  26.298  0.00  0.00    +0.000 C 
ATOM     23  C   UNL     1      -6.064  48.525  24.712  0.00  0.00    +0.000 C 
ENDBRANCH  13  15
ENDBRANCH  11  14
ENDBRANCH   6  10
BRANCH   3  24
ATOM     24  O   UNL     1     -18.884  50.609  21.387  0.00  0.00    +0.000 OA
ATOM     25  H   UNL     1     -19.005  50.133  22.227  0.00  0.00    +0.000 HD
ENDBRANCH   3  24
BRANCH   3  26
ATOM     26  C   UNL     1     -17.716  52.441  20.471  0.00  0.00    +0.000 C 
ATOM     27  C   UNL     1     -17.331  53.194  19.194  0.00  0.00    +0.000 C 
BRANCH  27  28
ATOM     28  C   UNL     1     -16.943  53.949  17.920  0.00  0.00    +0.000 C 
ATOM     29  C   UNL     1     -16.558  54.702  16.643  0.00  0.00    +0.000 C 
BRANCH  29  31
ATOM     30  O   UNL     1     -15.836  56.571  15.440  0.00  0.00    +0.000 OA
ATOM     31  C   UNL     1     -16.198  55.408  15.451  0.00  0.00    +0.000 C 
BRANCH  31  32
ATOM     32  O   UNL     1     -16.294  54.671  14.330  0.00  0.00    +0.000 OA
ATOM     33  H   UNL     1     -17.260  54.586  14.190  0.00  0.00    +0.000 HD
ENDBRANCH  31  32
ENDBRANCH  29  31
ENDBRANCH  27  28
ENDBRANCH   3  26
TORSDOF 8
ENDMDL
