MODEL 1
REMARK VINA RESULT:      -5.1      0.000      0.000
REMARK  Name = 122180587_TripolinolateA.pdbqt.pdb
REMARK  9 active torsions:
REMARK  status: ('A' for Active; 'I' for Inactive)
REMARK    1  A    between atoms: C_1  and  O_16
REMARK    2  A    between atoms: C_2  and  O_7
REMARK    3  A    between atoms: C_3  and  C_9
REMARK    4  A    between atoms: C_10  and  C_11
REMARK    5  A    between atoms: C_11  and  O_12
REMARK    6  A    between atoms: O_12  and  C_14
REMARK    7  A    between atoms: O_16  and  C_18
REMARK    8  A    between atoms: C_18  and  C_19
REMARK    9  A    between atoms: C_19  and  C_21
REMARK                            x       y       z     vdW  Elec       q    Type
REMARK                         _______ _______ _______ _____ _____    ______ ____
ROOT
ATOM      1  C   UNL     1     -17.508  40.360   5.786  0.00  0.00    +0.000 A 
ATOM      2  C   UNL     1     -18.813  39.867   5.890  0.00  0.00    +0.000 A 
ATOM      3  C   UNL     1     -17.896  37.783   6.727  0.00  0.00    +0.000 A 
ATOM      4  C   UNL     1     -16.402  39.574   6.116  0.00  0.00    +0.000 A 
ATOM      5  C   UNL     1     -18.993  38.567   6.371  0.00  0.00    +0.000 A 
ATOM      6  C   UNL     1     -16.602  38.283   6.597  0.00  0.00    +0.000 A 
ENDROOT
BRANCH   2   7
ATOM      7  O   UNL     1     -19.832  40.693   5.490  0.00  0.00    +0.000 OA
ATOM      8  C   UNL     1     -21.022  40.587   6.221  0.00  0.00    +0.000 C 
ENDBRANCH   2   7
BRANCH   3   9
ATOM      9  C   UNL     1     -18.100  36.460   7.221  0.00  0.00    +0.000 C 
ATOM     10  C   UNL     1     -18.270  35.347   7.637  0.00  0.00    +0.000 C 
BRANCH  10  11
ATOM     11  C   UNL     1     -18.484  33.925   8.166  0.00  0.00    +0.000 C 
BRANCH  11  12
ATOM     12  O   UNL     1     -18.669  32.689   8.623  0.00  0.00    +0.000 OA
BRANCH  12  14
ATOM     13  O   UNL     1     -20.989  32.787   8.348  0.00  0.00    +0.000 OA
ATOM     14  C   UNL     1     -19.925  32.216   8.500  0.00  0.00    +0.000 C 
ATOM     15  C   UNL     1     -20.033  30.729   8.561  0.00  0.00    +0.000 C 
ENDBRANCH  12  14
ENDBRANCH  11  12
ENDBRANCH  10  11
ENDBRANCH   3   9
BRANCH   1  16
ATOM     16  O   UNL     1     -17.286  41.640   5.259  0.00  0.00    +0.000 OA
BRANCH  16  18
ATOM     17  O   UNL     1     -17.263  41.019   3.018  0.00  0.00    +0.000 OA
ATOM     18  C   UNL     1     -16.778  41.624   3.966  0.00  0.00    +0.000 C 
BRANCH  18  19
ATOM     19  C   UNL     1     -15.539  42.435   3.881  0.00  0.00    +0.000 C 
ATOM     20  C   UNL     1     -14.372  42.290   4.850  0.00  0.00    +0.000 C 
BRANCH  19  21
ATOM     21  C   UNL     1     -15.415  43.398   2.845  0.00  0.00    +0.000 C 
ATOM     22  C   UNL     1     -15.283  44.449   1.726  0.00  0.00    +0.000 C 
ENDBRANCH  19  21
ENDBRANCH  18  19
ENDBRANCH  16  18
ENDBRANCH   1  16
TORSDOF 9
ENDMDL
MODEL 2
REMARK VINA RESULT:      -4.8      2.073      3.106
REMARK  Name = 122180587_TripolinolateA.pdbqt.pdb
REMARK  9 active torsions:
REMARK  status: ('A' for Active; 'I' for Inactive)
REMARK    1  A    between atoms: C_1  and  O_16
REMARK    2  A    between atoms: C_2  and  O_7
REMARK    3  A    between atoms: C_3  and  C_9
REMARK    4  A    between atoms: C_10  and  C_11
REMARK    5  A    between atoms: C_11  and  O_12
REMARK    6  A    between atoms: O_12  and  C_14
REMARK    7  A    between atoms: O_16  and  C_18
REMARK    8  A    between atoms: C_18  and  C_19
REMARK    9  A    between atoms: C_19  and  C_21
REMARK                            x       y       z     vdW  Elec       q    Type
REMARK                         _______ _______ _______ _____ _____    ______ ____
ROOT
ATOM      1  C   UNL     1     -16.140  38.028   5.980  0.00  0.00    +0.000 A 
ATOM      2  C   UNL     1     -15.825  36.739   5.537  0.00  0.00    +0.000 A 
ATOM      3  C   UNL     1     -17.585  35.879   6.968  0.00  0.00    +0.000 A 
ATOM      4  C   UNL     1     -17.141  38.248   6.928  0.00  0.00    +0.000 A 
ATOM      5  C   UNL     1     -16.566  35.666   6.040  0.00  0.00    +0.000 A 
ATOM      6  C   UNL     1     -17.871  37.168   7.415  0.00  0.00    +0.000 A 
ENDROOT
BRANCH   2   7
ATOM      7  O   UNL     1     -14.789  36.615   4.646  0.00  0.00    +0.000 OA
ATOM      8  C   UNL     1     -15.157  36.356   3.320  0.00  0.00    +0.000 C 
ENDBRANCH   2   7
BRANCH   3   9
ATOM      9  C   UNL     1     -18.333  34.772   7.466  0.00  0.00    +0.000 C 
ATOM     10  C   UNL     1     -18.963  33.840   7.888  0.00  0.00    +0.000 C 
BRANCH  10  11
ATOM     11  C   UNL     1     -19.762  32.649   8.427  0.00  0.00    +0.000 C 
BRANCH  11  12
ATOM     12  O   UNL     1     -20.455  31.614   8.896  0.00  0.00    +0.000 OA
BRANCH  12  14
ATOM     13  O   UNL     1     -22.500  32.718   8.644  0.00  0.00    +0.000 OA
ATOM     14  C   UNL     1     -21.773  31.837   9.064  0.00  0.00    +0.000 C 
ATOM     15  C   UNL     1     -22.466  30.827   9.915  0.00  0.00    +0.000 C 
ENDBRANCH  12  14
ENDBRANCH  11  12
ENDBRANCH  10  11
ENDBRANCH   3   9
BRANCH   1  16
ATOM     16  O   UNL     1     -15.385  39.122   5.537  0.00  0.00    +0.000 OA
BRANCH  16  18
ATOM     17  O   UNL     1     -16.721  39.580   3.689  0.00  0.00    +0.000 OA
ATOM     18  C   UNL     1     -16.076  39.951   4.662  0.00  0.00    +0.000 C 
BRANCH  18  19
ATOM     19  C   UNL     1     -15.917  41.374   5.054  0.00  0.00    +0.000 C 
ATOM     20  C   UNL     1     -16.055  41.869   6.487  0.00  0.00    +0.000 C 
BRANCH  19  21
ATOM     21  C   UNL     1     -15.615  42.334   4.053  0.00  0.00    +0.000 C 
ATOM     22  C   UNL     1     -15.287  43.383   2.973  0.00  0.00    +0.000 C 
ENDBRANCH  19  21
ENDBRANCH  18  19
ENDBRANCH  16  18
ENDBRANCH   1  16
TORSDOF 9
ENDMDL
MODEL 3
REMARK VINA RESULT:      -4.6     15.274     18.642
REMARK  Name = 122180587_TripolinolateA.pdbqt.pdb
REMARK  9 active torsions:
REMARK  status: ('A' for Active; 'I' for Inactive)
REMARK    1  A    between atoms: C_1  and  O_16
REMARK    2  A    between atoms: C_2  and  O_7
REMARK    3  A    between atoms: C_3  and  C_9
REMARK    4  A    between atoms: C_10  and  C_11
REMARK    5  A    between atoms: C_11  and  O_12
REMARK    6  A    between atoms: O_12  and  C_14
REMARK    7  A    between atoms: O_16  and  C_18
REMARK    8  A    between atoms: C_18  and  C_19
REMARK    9  A    between atoms: C_19  and  C_21
REMARK                            x       y       z     vdW  Elec       q    Type
REMARK                         _______ _______ _______ _____ _____    ______ ____
ROOT
ATOM      1  C   UNL     1     -25.422  38.725  21.103  0.00  0.00    +0.000 A 
ATOM      2  C   UNL     1     -26.327  39.339  21.975  0.00  0.00    +0.000 A 
ATOM      3  C   UNL     1     -25.516  41.493  21.209  0.00  0.00    +0.000 A 
ATOM      4  C   UNL     1     -24.548  39.475  20.313  0.00  0.00    +0.000 A 
ATOM      5  C   UNL     1     -26.367  40.735  22.014  0.00  0.00    +0.000 A 
ATOM      6  C   UNL     1     -24.605  40.864  20.362  0.00  0.00    +0.000 A 
ENDROOT
BRANCH   2   7
ATOM      7  O   UNL     1     -27.106  38.520  22.753  0.00  0.00    +0.000 OA
ATOM      8  C   UNL     1     -27.275  38.927  24.082  0.00  0.00    +0.000 C 
ENDBRANCH   2   7
BRANCH   3   9
ATOM      9  C   UNL     1     -25.575  42.917  21.258  0.00  0.00    +0.000 C 
ATOM     10  C   UNL     1     -25.625  44.116  21.301  0.00  0.00    +0.000 C 
BRANCH  10  11
ATOM     11  C   UNL     1     -25.694  45.646  21.355  0.00  0.00    +0.000 C 
BRANCH  11  12
ATOM     12  O   UNL     1     -25.755  46.974  21.400  0.00  0.00    +0.000 OA
BRANCH  12  14
ATOM     13  O   UNL     1     -24.531  47.197  19.421  0.00  0.00    +0.000 OA
ATOM     14  C   UNL     1     -25.070  47.611  20.430  0.00  0.00    +0.000 C 
ATOM     15  C   UNL     1     -24.950  49.085  20.627  0.00  0.00    +0.000 C 
ENDBRANCH  12  14
ENDBRANCH  11  12
ENDBRANCH  10  11
ENDBRANCH   3   9
BRANCH   1  16
ATOM     16  O   UNL     1     -25.318  37.328  21.076  0.00  0.00    +0.000 OA
BRANCH  16  18
ATOM     17  O   UNL     1     -26.747  36.936  19.284  0.00  0.00    +0.000 OA
ATOM     18  C   UNL     1     -25.676  36.772  19.854  0.00  0.00    +0.000 C 
BRANCH  18  19
ATOM     19  C   UNL     1     -24.581  35.921  19.325  0.00  0.00    +0.000 C 
ATOM     20  C   UNL     1     -24.728  34.428  19.068  0.00  0.00    +0.000 C 
BRANCH  19  21
ATOM     21  C   UNL     1     -23.326  36.517  19.033  0.00  0.00    +0.000 C 
ATOM     22  C   UNL     1     -21.960  37.157  18.718  0.00  0.00    +0.000 C 
ENDBRANCH  19  21
ENDBRANCH  18  19
ENDBRANCH  16  18
ENDBRANCH   1  16
TORSDOF 9
ENDMDL
MODEL 4
REMARK VINA RESULT:      -4.6     12.062     15.746
REMARK  Name = 122180587_TripolinolateA.pdbqt.pdb
REMARK  9 active torsions:
REMARK  status: ('A' for Active; 'I' for Inactive)
REMARK    1  A    between atoms: C_1  and  O_16
REMARK    2  A    between atoms: C_2  and  O_7
REMARK    3  A    between atoms: C_3  and  C_9
REMARK    4  A    between atoms: C_10  and  C_11
REMARK    5  A    between atoms: C_11  and  O_12
REMARK    6  A    between atoms: O_12  and  C_14
REMARK    7  A    between atoms: O_16  and  C_18
REMARK    8  A    between atoms: C_18  and  C_19
REMARK    9  A    between atoms: C_19  and  C_21
REMARK                            x       y       z     vdW  Elec       q    Type
REMARK                         _______ _______ _______ _____ _____    ______ ____
ROOT
ATOM      1  C   UNL     1     -24.720  39.877  18.503  0.00  0.00    +0.000 A 
ATOM      2  C   UNL     1     -25.132  41.198  18.711  0.00  0.00    +0.000 A 
ATOM      3  C   UNL     1     -25.821  41.289  16.387  0.00  0.00    +0.000 A 
ATOM      4  C   UNL     1     -24.823  39.271  17.249  0.00  0.00    +0.000 A 
ATOM      5  C   UNL     1     -25.690  41.895  17.636  0.00  0.00    +0.000 A 
ATOM      6  C   UNL     1     -25.385  39.980  16.192  0.00  0.00    +0.000 A 
ENDROOT
BRANCH   2   7
ATOM      7  O   UNL     1     -24.940  41.727  19.962  0.00  0.00    +0.000 OA
ATOM      8  C   UNL     1     -24.572  43.077  20.000  0.00  0.00    +0.000 C 
ENDBRANCH   2   7
BRANCH   3   9
ATOM      9  C   UNL     1     -26.398  42.015  15.303  0.00  0.00    +0.000 C 
ATOM     10  C   UNL     1     -26.882  42.627  14.390  0.00  0.00    +0.000 C 
BRANCH  10  11
ATOM     11  C   UNL     1     -27.496  43.411  13.226  0.00  0.00    +0.000 C 
BRANCH  11  12
ATOM     12  O   UNL     1     -28.030  44.093  12.216  0.00  0.00    +0.000 OA
BRANCH  12  14
ATOM     13  O   UNL     1     -27.372  44.023   9.973  0.00  0.00    +0.000 OA
ATOM     14  C   UNL     1     -27.219  44.272  11.155  0.00  0.00    +0.000 C 
ATOM     15  C   UNL     1     -25.899  44.884  11.484  0.00  0.00    +0.000 C 
ENDBRANCH  12  14
ENDBRANCH  11  12
ENDBRANCH  10  11
ENDBRANCH   3   9
BRANCH   1  16
ATOM     16  O   UNL     1     -24.109  39.165  19.543  0.00  0.00    +0.000 OA
BRANCH  16  18
ATOM     17  O   UNL     1     -25.748  37.678  20.258  0.00  0.00    +0.000 OA
ATOM     18  C   UNL     1     -24.659  37.905  19.747  0.00  0.00    +0.000 C 
BRANCH  18  19
ATOM     19  C   UNL     1     -23.734  36.847  19.271  0.00  0.00    +0.000 C 
ATOM     20  C   UNL     1     -22.285  37.112  18.884  0.00  0.00    +0.000 C 
BRANCH  19  21
ATOM     21  C   UNL     1     -24.206  35.512  19.172  0.00  0.00    +0.000 C 
ATOM     22  C   UNL     1     -24.711  34.061  19.068  0.00  0.00    +0.000 C 
ENDBRANCH  19  21
ENDBRANCH  18  19
ENDBRANCH  16  18
ENDBRANCH   1  16
TORSDOF 9
ENDMDL
MODEL 5
REMARK VINA RESULT:      -4.4     22.103     23.135
REMARK  Name = 122180587_TripolinolateA.pdbqt.pdb
REMARK  9 active torsions:
REMARK  status: ('A' for Active; 'I' for Inactive)
REMARK    1  A    between atoms: C_1  and  O_16
REMARK    2  A    between atoms: C_2  and  O_7
REMARK    3  A    between atoms: C_3  and  C_9
REMARK    4  A    between atoms: C_10  and  C_11
REMARK    5  A    between atoms: C_11  and  O_12
REMARK    6  A    between atoms: O_12  and  C_14
REMARK    7  A    between atoms: O_16  and  C_18
REMARK    8  A    between atoms: C_18  and  C_19
REMARK    9  A    between atoms: C_19  and  C_21
REMARK                            x       y       z     vdW  Elec       q    Type
REMARK                         _______ _______ _______ _____ _____    ______ ____
ROOT
ATOM      1  C   UNL     1      -2.239  27.968  18.405  0.00  0.00    +0.000 A 
ATOM      2  C   UNL     1      -2.239  28.106  19.797  0.00  0.00    +0.000 A 
ATOM      3  C   UNL     1      -4.345  26.904  19.858  0.00  0.00    +0.000 A 
ATOM      4  C   UNL     1      -3.288  27.336  17.735  0.00  0.00    +0.000 A 
ATOM      5  C   UNL     1      -3.305  27.560  20.516  0.00  0.00    +0.000 A 
ATOM      6  C   UNL     1      -4.339  26.794  18.468  0.00  0.00    +0.000 A 
ENDROOT
BRANCH   2   7
ATOM      7  O   UNL     1      -1.193  28.791  20.362  0.00  0.00    +0.000 OA
ATOM      8  C   UNL     1      -0.412  28.065  21.270  0.00  0.00    +0.000 C 
ENDBRANCH   2   7
BRANCH   3   9
ATOM      9  C   UNL     1      -5.422  26.348  20.610  0.00  0.00    +0.000 C 
ATOM     10  C   UNL     1      -6.329  25.881  21.244  0.00  0.00    +0.000 C 
BRANCH  10  11
ATOM     11  C   UNL     1      -7.483  25.285  22.056  0.00  0.00    +0.000 C 
BRANCH  11  12
ATOM     12  O   UNL     1      -8.487  24.769  22.762  0.00  0.00    +0.000 OA
BRANCH  12  14
ATOM     13  O   UNL     1      -9.926  26.519  23.341  0.00  0.00    +0.000 OA
ATOM     14  C   UNL     1      -9.120  25.637  23.575  0.00  0.00    +0.000 C 
ATOM     15  C   UNL     1      -8.772  25.495  25.019  0.00  0.00    +0.000 C 
ENDBRANCH  12  14
ENDBRANCH  11  12
ENDBRANCH  10  11
ENDBRANCH   3   9
BRANCH   1  16
ATOM     16  O   UNL     1      -1.212  28.548  17.647  0.00  0.00    +0.000 OA
BRANCH  16  18
ATOM     17  O   UNL     1       0.427  26.899  17.695  0.00  0.00    +0.000 OA
ATOM     18  C   UNL     1      -0.351  27.617  17.080  0.00  0.00    +0.000 C 
BRANCH  18  19
ATOM     19  C   UNL     1      -0.485  27.613  15.602  0.00  0.00    +0.000 C 
ATOM     20  C   UNL     1      -0.043  28.771  14.717  0.00  0.00    +0.000 C 
BRANCH  19  21
ATOM     21  C   UNL     1      -1.046  26.476  14.963  0.00  0.00    +0.000 C 
ATOM     22  C   UNL     1      -1.662  25.243  14.275  0.00  0.00    +0.000 C 
ENDBRANCH  19  21
ENDBRANCH  18  19
ENDBRANCH  16  18
ENDBRANCH   1  16
TORSDOF 9
ENDMDL
MODEL 6
REMARK VINA RESULT:      -4.2     31.640     33.061
REMARK  Name = 122180587_TripolinolateA.pdbqt.pdb
REMARK  9 active torsions:
REMARK  status: ('A' for Active; 'I' for Inactive)
REMARK    1  A    between atoms: C_1  and  O_16
REMARK    2  A    between atoms: C_2  and  O_7
REMARK    3  A    between atoms: C_3  and  C_9
REMARK    4  A    between atoms: C_10  and  C_11
REMARK    5  A    between atoms: C_11  and  O_12
REMARK    6  A    between atoms: O_12  and  C_14
REMARK    7  A    between atoms: O_16  and  C_18
REMARK    8  A    between atoms: C_18  and  C_19
REMARK    9  A    between atoms: C_19  and  C_21
REMARK                            x       y       z     vdW  Elec       q    Type
REMARK                         _______ _______ _______ _____ _____    ______ ____
ROOT
ATOM      1  C   UNL     1      10.628  34.030  22.106  0.00  0.00    +0.000 A 
ATOM      2  C   UNL     1       9.990  35.059  22.807  0.00  0.00    +0.000 A 
ATOM      3  C   UNL     1       8.623  33.384  23.907  0.00  0.00    +0.000 A 
ATOM      4  C   UNL     1      10.254  32.695  22.271  0.00  0.00    +0.000 A 
ATOM      5  C   UNL     1       8.985  34.717  23.716  0.00  0.00    +0.000 A 
ATOM      6  C   UNL     1       9.254  32.373  23.183  0.00  0.00    +0.000 A 
ENDROOT
BRANCH   2   7
ATOM      7  O   UNL     1      10.387  36.344  22.538  0.00  0.00    +0.000 OA
ATOM      8  C   UNL     1       9.812  37.338  23.340  0.00  0.00    +0.000 C 
ENDBRANCH   2   7
BRANCH   3   9
ATOM      9  C   UNL     1       7.598  33.054  24.842  0.00  0.00    +0.000 C 
ATOM     10  C   UNL     1       6.734  32.777  25.629  0.00  0.00    +0.000 C 
BRANCH  10  11
ATOM     11  C   UNL     1       5.629  32.426  26.631  0.00  0.00    +0.000 C 
BRANCH  11  12
ATOM     12  O   UNL     1       4.671  32.123  27.503  0.00  0.00    +0.000 OA
BRANCH  12  14
ATOM     13  O   UNL     1       2.824  33.293  28.332  0.00  0.00    +0.000 OA
ATOM     14  C   UNL     1       3.986  33.177  27.989  0.00  0.00    +0.000 C 
ATOM     15  C   UNL     1       4.793  34.423  28.133  0.00  0.00    +0.000 C 
ENDBRANCH  12  14
ENDBRANCH  11  12
ENDBRANCH  10  11
ENDBRANCH   3   9
BRANCH   1  16
ATOM     16  O   UNL     1      11.604  34.339  21.149  0.00  0.00    +0.000 OA
BRANCH  16  18
ATOM     17  O   UNL     1      13.425  34.282  22.595  0.00  0.00    +0.000 OA
ATOM     18  C   UNL     1      12.889  33.980  21.536  0.00  0.00    +0.000 C 
BRANCH  18  19
ATOM     19  C   UNL     1      13.550  33.180  20.475  0.00  0.00    +0.000 C 
ATOM     20  C   UNL     1      15.060  33.006  20.373  0.00  0.00    +0.000 C 
BRANCH  19  21
ATOM     21  C   UNL     1      12.748  32.532  19.499  0.00  0.00    +0.000 C 
ATOM     22  C   UNL     1      11.870  31.832  18.444  0.00  0.00    +0.000 C 
ENDBRANCH  19  21
ENDBRANCH  18  19
ENDBRANCH  16  18
ENDBRANCH   1  16
TORSDOF 9
ENDMDL
MODEL 7
REMARK VINA RESULT:      -4.2     13.987     18.623
REMARK  Name = 122180587_TripolinolateA.pdbqt.pdb
REMARK  9 active torsions:
REMARK  status: ('A' for Active; 'I' for Inactive)
REMARK    1  A    between atoms: C_1  and  O_16
REMARK    2  A    between atoms: C_2  and  O_7
REMARK    3  A    between atoms: C_3  and  C_9
REMARK    4  A    between atoms: C_10  and  C_11
REMARK    5  A    between atoms: C_11  and  O_12
REMARK    6  A    between atoms: O_12  and  C_14
REMARK    7  A    between atoms: O_16  and  C_18
REMARK    8  A    between atoms: C_18  and  C_19
REMARK    9  A    between atoms: C_19  and  C_21
REMARK                            x       y       z     vdW  Elec       q    Type
REMARK                         _______ _______ _______ _____ _____    ______ ____
ROOT
ATOM      1  C   UNL     1      -3.066  39.221   2.649  0.00  0.00    +0.000 A 
ATOM      2  C   UNL     1      -1.771  38.825   2.297  0.00  0.00    +0.000 A 
ATOM      3  C   UNL     1      -1.566  40.858   0.991  0.00  0.00    +0.000 A 
ATOM      4  C   UNL     1      -3.625  40.403   2.159  0.00  0.00    +0.000 A 
ATOM      5  C   UNL     1      -1.025  39.663   1.465  0.00  0.00    +0.000 A 
ATOM      6  C   UNL     1      -2.866  41.227   1.335  0.00  0.00    +0.000 A 
ENDROOT
BRANCH   2   7
ATOM      7  O   UNL     1      -1.328  37.620   2.783  0.00  0.00    +0.000 OA
ATOM      8  C   UNL     1       0.040  37.367   2.619  0.00  0.00    +0.000 C 
ENDBRANCH   2   7
BRANCH   3   9
ATOM      9  C   UNL     1      -0.788  41.704   0.146  0.00  0.00    +0.000 C 
ATOM     10  C   UNL     1      -0.131  42.414  -0.566  0.00  0.00    +0.000 C 
BRANCH  10  11
ATOM     11  C   UNL     1       0.709  43.318  -1.472  0.00  0.00    +0.000 C 
BRANCH  11  12
ATOM     12  O   UNL     1       1.441  44.105  -2.259  0.00  0.00    +0.000 OA
BRANCH  12  14
ATOM     13  O   UNL     1       0.911  46.301  -2.861  0.00  0.00    +0.000 OA
ATOM     14  C   UNL     1       1.248  45.427  -2.084  0.00  0.00    +0.000 C 
ATOM     15  C   UNL     1       1.490  45.907  -0.692  0.00  0.00    +0.000 C 
ENDBRANCH  12  14
ENDBRANCH  11  12
ENDBRANCH  10  11
ENDBRANCH   3   9
BRANCH   1  16
ATOM     16  O   UNL     1      -3.861  38.381   3.440  0.00  0.00    +0.000 OA
BRANCH  16  18
ATOM     17  O   UNL     1      -4.813  37.234   1.655  0.00  0.00    +0.000 OA
ATOM     18  C   UNL     1      -4.908  37.793   2.740  0.00  0.00    +0.000 C 
BRANCH  18  19
ATOM     19  C   UNL     1      -6.184  37.946   3.482  0.00  0.00    +0.000 C 
ATOM     20  C   UNL     1      -6.910  36.785   4.151  0.00  0.00    +0.000 C 
BRANCH  19  21
ATOM     21  C   UNL     1      -6.770  39.235   3.588  0.00  0.00    +0.000 C 
ATOM     22  C   UNL     1      -7.406  40.632   3.711  0.00  0.00    +0.000 C 
ENDBRANCH  19  21
ENDBRANCH  18  19
ENDBRANCH  16  18
ENDBRANCH   1  16
TORSDOF 9
ENDMDL
MODEL 8
REMARK VINA RESULT:      -4.2     14.443     17.484
REMARK  Name = 122180587_TripolinolateA.pdbqt.pdb
REMARK  9 active torsions:
REMARK  status: ('A' for Active; 'I' for Inactive)
REMARK    1  A    between atoms: C_1  and  O_16
REMARK    2  A    between atoms: C_2  and  O_7
REMARK    3  A    between atoms: C_3  and  C_9
REMARK    4  A    between atoms: C_10  and  C_11
REMARK    5  A    between atoms: C_11  and  O_12
REMARK    6  A    between atoms: O_12  and  C_14
REMARK    7  A    between atoms: O_16  and  C_18
REMARK    8  A    between atoms: C_18  and  C_19
REMARK    9  A    between atoms: C_19  and  C_21
REMARK                            x       y       z     vdW  Elec       q    Type
REMARK                         _______ _______ _______ _____ _____    ______ ____
ROOT
ATOM      1  C   UNL     1     -25.485  41.349  18.796  0.00  0.00    +0.000 A 
ATOM      2  C   UNL     1     -25.481  41.853  20.100  0.00  0.00    +0.000 A 
ATOM      3  C   UNL     1     -24.021  43.637  19.345  0.00  0.00    +0.000 A 
ATOM      4  C   UNL     1     -24.744  41.953  17.778  0.00  0.00    +0.000 A 
ATOM      5  C   UNL     1     -24.743  43.011  20.361  0.00  0.00    +0.000 A 
ATOM      6  C   UNL     1     -24.018  43.107  18.056  0.00  0.00    +0.000 A 
ENDROOT
BRANCH   2   7
ATOM      7  O   UNL     1     -26.194  41.159  21.045  0.00  0.00    +0.000 OA
ATOM      8  C   UNL     1     -26.870  41.941  21.991  0.00  0.00    +0.000 C 
ENDBRANCH   2   7
BRANCH   3   9
ATOM      9  C   UNL     1     -23.277  44.820  19.629  0.00  0.00    +0.000 C 
ATOM     10  C   UNL     1     -22.651  45.816  19.870  0.00  0.00    +0.000 C 
BRANCH  10  11
ATOM     11  C   UNL     1     -21.854  47.087  20.180  0.00  0.00    +0.000 C 
BRANCH  11  12
ATOM     12  O   UNL     1     -21.160  48.190  20.451  0.00  0.00    +0.000 OA
BRANCH  12  14
ATOM     13  O   UNL     1     -19.587  47.204  21.872  0.00  0.00    +0.000 OA
ATOM     14  C   UNL     1     -19.952  47.983  21.011  0.00  0.00    +0.000 C 
ATOM     15  C   UNL     1     -18.869  48.862  20.483  0.00  0.00    +0.000 C 
ENDBRANCH  12  14
ENDBRANCH  11  12
ENDBRANCH  10  11
ENDBRANCH   3   9
BRANCH   1  16
ATOM     16  O   UNL     1     -26.172  40.161  18.509  0.00  0.00    +0.000 OA
BRANCH  16  18
ATOM     17  O   UNL     1     -25.096  38.998  16.807  0.00  0.00    +0.000 OA
ATOM     18  C   UNL     1     -25.356  39.163  17.992  0.00  0.00    +0.000 C 
BRANCH  18  19
ATOM     19  C   UNL     1     -24.841  38.293  19.079  0.00  0.00    +0.000 C 
ATOM     20  C   UNL     1     -25.642  37.948  20.328  0.00  0.00    +0.000 C 
BRANCH  19  21
ATOM     21  C   UNL     1     -23.538  37.741  18.961  0.00  0.00    +0.000 C 
ATOM     22  C   UNL     1     -22.126  37.141  18.826  0.00  0.00    +0.000 C 
ENDBRANCH  19  21
ENDBRANCH  18  19
ENDBRANCH  16  18
ENDBRANCH   1  16
TORSDOF 9
ENDMDL
MODEL 9
REMARK VINA RESULT:      -4.2     28.759     30.099
REMARK  Name = 122180587_TripolinolateA.pdbqt.pdb
REMARK  9 active torsions:
REMARK  status: ('A' for Active; 'I' for Inactive)
REMARK    1  A    between atoms: C_1  and  O_16
REMARK    2  A    between atoms: C_2  and  O_7
REMARK    3  A    between atoms: C_3  and  C_9
REMARK    4  A    between atoms: C_10  and  C_11
REMARK    5  A    between atoms: C_11  and  O_12
REMARK    6  A    between atoms: O_12  and  C_14
REMARK    7  A    between atoms: O_16  and  C_18
REMARK    8  A    between atoms: C_18  and  C_19
REMARK    9  A    between atoms: C_19  and  C_21
REMARK                            x       y       z     vdW  Elec       q    Type
REMARK                         _______ _______ _______ _____ _____    ______ ____
ROOT
ATOM      1  C   UNL     1       3.488  54.703  15.455  0.00  0.00    +0.000 A 
ATOM      2  C   UNL     1       3.920  54.012  16.591  0.00  0.00    +0.000 A 
ATOM      3  C   UNL     1       2.717  55.618  17.954  0.00  0.00    +0.000 A 
ATOM      4  C   UNL     1       2.707  55.856  15.555  0.00  0.00    +0.000 A 
ATOM      5  C   UNL     1       3.519  54.482  17.845  0.00  0.00    +0.000 A 
ATOM      6  C   UNL     1       2.314  56.307  16.811  0.00  0.00    +0.000 A 
ENDROOT
BRANCH   2   7
ATOM      7  O   UNL     1       4.730  52.922  16.395  0.00  0.00    +0.000 OA
ATOM      8  C   UNL     1       6.069  53.085  16.772  0.00  0.00    +0.000 C 
ENDBRANCH   2   7
BRANCH   3   9
ATOM      9  C   UNL     1       2.314  56.081  19.242  0.00  0.00    +0.000 C 
ATOM     10  C   UNL     1       1.976  56.469  20.327  0.00  0.00    +0.000 C 
BRANCH  10  11
ATOM     11  C   UNL     1       1.546  56.962  21.712  0.00  0.00    +0.000 C 
BRANCH  11  12
ATOM     12  O   UNL     1       1.172  57.387  22.917  0.00  0.00    +0.000 OA
BRANCH  12  14
ATOM     13  O   UNL     1       0.598  55.228  23.605  0.00  0.00    +0.000 OA
ATOM     14  C   UNL     1       0.666  56.437  23.727  0.00  0.00    +0.000 C 
ATOM     15  C   UNL     1       0.087  56.957  25.000  0.00  0.00    +0.000 C 
ENDBRANCH  12  14
ENDBRANCH  11  12
ENDBRANCH  10  11
ENDBRANCH   3   9
BRANCH   1  16
ATOM     16  O   UNL     1       3.913  54.290  14.184  0.00  0.00    +0.000 OA
BRANCH  16  18
ATOM     17  O   UNL     1       3.687  55.802  12.432  0.00  0.00    +0.000 OA
ATOM     18  C   UNL     1       4.322  55.340  13.371  0.00  0.00    +0.000 C 
BRANCH  18  19
ATOM     19  C   UNL     1       5.660  55.830  13.785  0.00  0.00    +0.000 C 
ATOM     20  C   UNL     1       5.904  57.218  14.363  0.00  0.00    +0.000 C 
BRANCH  19  21
ATOM     21  C   UNL     1       6.782  54.971  13.646  0.00  0.00    +0.000 C 
ATOM     22  C   UNL     1       8.000  54.039  13.503  0.00  0.00    +0.000 C 
ENDBRANCH  19  21
ENDBRANCH  18  19
ENDBRANCH  16  18
ENDBRANCH   1  16
TORSDOF 9
ENDMDL
