MODEL 1
REMARK VINA RESULT:      -6.7      0.000      0.000
REMARK  Name = 135423438_Nintedanib.pdbqt.pdb
REMARK  9 active torsions:
REMARK  status: ('A' for Active; 'I' for Inactive)
REMARK    1  A    between atoms: N_1  and  C_22
REMARK    2  A    between atoms: C_2  and  C_4
REMARK    3  A    between atoms: C_2  and  C_37
REMARK    4  A    between atoms: C_7  and  O_13
REMARK    5  A    between atoms: C_10  and  C_16
REMARK    6  A    between atoms: C_16  and  O_17
REMARK    7  A    between atoms: C_19  and  N_26
REMARK    8  A    between atoms: C_27  and  C_29
REMARK    9  A    between atoms: C_29  and  N_30
REMARK                            x       y       z     vdW  Elec       q    Type
REMARK                         _______ _______ _______ _____ _____    ______ ____
ROOT
ATOM      1  N   UNL     1      -4.595  47.961  29.332  0.00  0.00    +0.000 NA
ATOM      2  C   UNL     1      -5.316  47.461  28.371  0.00  0.00    +0.000 C 
ENDROOT
BRANCH   2   4
ATOM      3  N   UNL     1      -8.804  48.419  28.954  0.00  0.00    +0.000 N 
ATOM      4  C   UNL     1      -6.729  47.860  28.333  0.00  0.00    +0.000 A 
ATOM      5  C   UNL     1      -7.529  48.096  27.160  0.00  0.00    +0.000 A 
ATOM      6  C   UNL     1      -8.811  48.444  27.582  0.00  0.00    +0.000 A 
ATOM      7  C   UNL     1      -7.564  48.067  29.423  0.00  0.00    +0.000 A 
ATOM      8  C   UNL     1      -7.275  48.051  25.774  0.00  0.00    +0.000 A 
ATOM      9  C   UNL     1      -9.851  48.744  26.696  0.00  0.00    +0.000 A 
ATOM     10  C   UNL     1      -9.567  48.687  25.325  0.00  0.00    +0.000 A 
ATOM     11  C   UNL     1      -8.298  48.347  24.871  0.00  0.00    +0.000 A 
ATOM     12  H   UNL     1      -9.608  48.629  29.527  0.00  0.00    +0.000 HD
BRANCH   7  13
ATOM     13  O   UNL     1      -7.322  47.961  30.726  0.00  0.00    +0.000 OA
ATOM     14  H   UNL     1      -8.098  47.603  31.193  0.00  0.00    +0.000 HD
ENDBRANCH   7  13
BRANCH  10  16
ATOM     15  O   UNL     1     -11.334  48.130  23.842  0.00  0.00    +0.000 OA
ATOM     16  C   UNL     1     -10.604  48.989  24.314  0.00  0.00    +0.000 C 
BRANCH  16  17
ATOM     17  O   UNL     1     -10.574  50.325  24.045  0.00  0.00    +0.000 OA
ATOM     18  C   UNL     1     -11.762  51.059  24.198  0.00  0.00    +0.000 C 
ENDBRANCH  16  17
ENDBRANCH  10  16
ENDBRANCH   2   4
BRANCH   1  22
ATOM     19  C   UNL     1      -0.524  46.851  29.649  0.00  0.00    +0.000 A 
ATOM     20  C   UNL     1      -1.552  45.956  29.953  0.00  0.00    +0.000 A 
ATOM     21  C   UNL     1      -0.898  48.137  29.235  0.00  0.00    +0.000 A 
ATOM     22  C   UNL     1      -3.246  47.614  29.471  0.00  0.00    +0.000 A 
ATOM     23  C   UNL     1      -2.894  46.321  29.858  0.00  0.00    +0.000 A 
ATOM     24  C   UNL     1      -2.236  48.514  29.136  0.00  0.00    +0.000 A 
BRANCH  19  26
ATOM     25  O   UNL     1       1.068  45.715  27.515  0.00  0.00    +0.000 OA
ATOM     26  N   UNL     1       0.869  46.479  29.753  0.00  0.00    +0.000 N 
ATOM     27  C   UNL     1       1.535  45.930  28.629  0.00  0.00    +0.000 C 
ATOM     28  C   UNL     1       1.480  46.708  31.065  0.00  0.00    +0.000 C 
BRANCH  27  29
ATOM     29  C   UNL     1       2.935  45.573  28.813  0.00  0.00    +0.000 C 
BRANCH  29  30
ATOM     30  N   UNL     1       4.334  45.207  29.027  0.00  0.00    +0.000 N 
ATOM     31  N   UNL     1       6.257  47.554  30.870  0.00  0.00    +0.000 N 
ATOM     32  C   UNL     1       5.153  46.378  28.605  0.00  0.00    +0.000 C 
ATOM     33  C   UNL     1       4.592  45.359  30.486  0.00  0.00    +0.000 C 
ATOM     34  C   UNL     1       5.994  47.408  29.412  0.00  0.00    +0.000 C 
ATOM     35  C   UNL     1       5.433  46.390  31.294  0.00  0.00    +0.000 C 
ATOM     36  C   UNL     1       5.555  48.752  31.308  0.00  0.00    +0.000 C 
ENDBRANCH  29  30
ENDBRANCH  27  29
ENDBRANCH  19  26
ENDBRANCH   1  22
BRANCH   2  37
ATOM     37  C   UNL     1      -4.821  46.533  27.338  0.00  0.00    +0.000 A 
ATOM     38  C   UNL     1      -3.793  46.938  26.489  0.00  0.00    +0.000 A 
ATOM     39  C   UNL     1      -5.369  45.254  27.255  0.00  0.00    +0.000 A 
ATOM     40  C   UNL     1      -3.313  46.047  25.534  0.00  0.00    +0.000 A 
ATOM     41  C   UNL     1      -4.882  44.371  26.297  0.00  0.00    +0.000 A 
ATOM     42  C   UNL     1      -3.856  44.766  25.438  0.00  0.00    +0.000 A 
ENDBRANCH   2  37
TORSDOF 9
ENDMDL
MODEL 2
REMARK VINA RESULT:      -6.6     27.043     30.293
REMARK  Name = 135423438_Nintedanib.pdbqt.pdb
REMARK  9 active torsions:
REMARK  status: ('A' for Active; 'I' for Inactive)
REMARK    1  A    between atoms: N_1  and  C_22
REMARK    2  A    between atoms: C_2  and  C_4
REMARK    3  A    between atoms: C_2  and  C_37
REMARK    4  A    between atoms: C_7  and  O_13
REMARK    5  A    between atoms: C_10  and  C_16
REMARK    6  A    between atoms: C_16  and  O_17
REMARK    7  A    between atoms: C_19  and  N_26
REMARK    8  A    between atoms: C_27  and  C_29
REMARK    9  A    between atoms: C_29  and  N_30
REMARK                            x       y       z     vdW  Elec       q    Type
REMARK                         _______ _______ _______ _____ _____    ______ ____
ROOT
ATOM      1  N   UNL     1     -20.454  41.847   4.611  0.00  0.00    +0.000 NA
ATOM      2  C   UNL     1     -19.386  42.568   4.424  0.00  0.00    +0.000 C 
ENDROOT
BRANCH   2   4
ATOM      3  N   UNL     1     -20.226  45.986   3.409  0.00  0.00    +0.000 N 
ATOM      4  C   UNL     1     -19.580  43.879   3.792  0.00  0.00    +0.000 A 
ATOM      5  C   UNL     1     -19.103  44.295   2.500  0.00  0.00    +0.000 A 
ATOM      6  C   UNL     1     -19.519  45.609   2.295  0.00  0.00    +0.000 A 
ATOM      7  C   UNL     1     -20.278  44.959   4.317  0.00  0.00    +0.000 A 
ATOM      8  C   UNL     1     -18.345  43.672   1.486  0.00  0.00    +0.000 A 
ATOM      9  C   UNL     1     -19.225  46.330   1.133  0.00  0.00    +0.000 A 
ATOM     10  C   UNL     1     -18.474  45.682   0.143  0.00  0.00    +0.000 A 
ATOM     11  C   UNL     1     -18.039  44.373   0.318  0.00  0.00    +0.000 A 
ATOM     12  H   UNL     1     -20.650  46.894   3.528  0.00  0.00    +0.000 HD
BRANCH   7  13
ATOM     13  O   UNL     1     -20.926  45.088   5.470  0.00  0.00    +0.000 OA
ATOM     14  H   UNL     1     -21.886  45.148   5.321  0.00  0.00    +0.000 HD
ENDBRANCH   7  13
BRANCH  10  16
ATOM     15  O   UNL     1     -17.778  45.759  -2.124  0.00  0.00    +0.000 OA
ATOM     16  C   UNL     1     -18.115  46.366  -1.118  0.00  0.00    +0.000 C 
BRANCH  16  17
ATOM     17  O   UNL     1     -18.231  47.712  -0.932  0.00  0.00    +0.000 OA
ATOM     18  C   UNL     1     -17.151  48.528  -1.308  0.00  0.00    +0.000 C 
ENDBRANCH  16  17
ENDBRANCH  10  16
ENDBRANCH   2   4
BRANCH   1  22
ATOM     19  C   UNL     1     -20.307  37.985   6.333  0.00  0.00    +0.000 A 
ATOM     20  C   UNL     1     -20.406  39.134   7.121  0.00  0.00    +0.000 A 
ATOM     21  C   UNL     1     -20.257  38.165   4.944  0.00  0.00    +0.000 A 
ATOM     22  C   UNL     1     -20.366  40.568   5.175  0.00  0.00    +0.000 A 
ATOM     23  C   UNL     1     -20.446  40.408   6.558  0.00  0.00    +0.000 A 
ATOM     24  C   UNL     1     -20.296  39.434   4.369  0.00  0.00    +0.000 A 
BRANCH  19  26
ATOM     25  O   UNL     1     -17.889  36.521   6.959  0.00  0.00    +0.000 OA
ATOM     26  N   UNL     1     -20.258  36.662   6.914  0.00  0.00    +0.000 N 
ATOM     27  C   UNL     1     -19.004  36.053   7.171  0.00  0.00    +0.000 C 
ATOM     28  C   UNL     1     -21.562  36.049   7.184  0.00  0.00    +0.000 C 
BRANCH  27  29
ATOM     29  C   UNL     1     -19.035  34.717   7.749  0.00  0.00    +0.000 C 
BRANCH  29  30
ATOM     30  N   UNL     1     -19.041  33.382   8.343  0.00  0.00    +0.000 N 
ATOM     31  N   UNL     1     -20.542  30.841   6.371  0.00  0.00    +0.000 N 
ATOM     32  C   UNL     1     -20.440  32.880   8.259  0.00  0.00    +0.000 C 
ATOM     33  C   UNL     1     -18.485  32.459   7.315  0.00  0.00    +0.000 C 
ATOM     34  C   UNL     1     -21.100  31.768   7.393  0.00  0.00    +0.000 C 
ATOM     35  C   UNL     1     -19.145  31.347   6.447  0.00  0.00    +0.000 C 
ATOM     36  C   UNL     1     -21.075  31.263   5.082  0.00  0.00    +0.000 C 
ENDBRANCH  29  30
ENDBRANCH  27  29
ENDBRANCH  19  26
ENDBRANCH   1  22
BRANCH   2  37
ATOM     37  C   UNL     1     -18.018  42.162   4.793  0.00  0.00    +0.000 A 
ATOM     38  C   UNL     1     -17.481  42.583   6.008  0.00  0.00    +0.000 A 
ATOM     39  C   UNL     1     -17.300  41.334   3.931  0.00  0.00    +0.000 A 
ATOM     40  C   UNL     1     -16.199  42.174   6.360  0.00  0.00    +0.000 A 
ATOM     41  C   UNL     1     -16.019  40.931   4.293  0.00  0.00    +0.000 A 
ATOM     42  C   UNL     1     -15.469  41.349   5.505  0.00  0.00    +0.000 A 
ENDBRANCH   2  37
TORSDOF 9
ENDMDL
MODEL 3
REMARK VINA RESULT:      -6.5     23.506     25.834
REMARK  Name = 135423438_Nintedanib.pdbqt.pdb
REMARK  9 active torsions:
REMARK  status: ('A' for Active; 'I' for Inactive)
REMARK    1  A    between atoms: N_1  and  C_22
REMARK    2  A    between atoms: C_2  and  C_4
REMARK    3  A    between atoms: C_2  and  C_37
REMARK    4  A    between atoms: C_7  and  O_13
REMARK    5  A    between atoms: C_10  and  C_16
REMARK    6  A    between atoms: C_16  and  O_17
REMARK    7  A    between atoms: C_19  and  N_26
REMARK    8  A    between atoms: C_27  and  C_29
REMARK    9  A    between atoms: C_29  and  N_30
REMARK                            x       y       z     vdW  Elec       q    Type
REMARK                         _______ _______ _______ _____ _____    ______ ____
ROOT
ATOM      1  N   UNL     1     -26.613  40.040  20.688  0.00  0.00    +0.000 NA
ATOM      2  C   UNL     1     -25.947  39.714  19.619  0.00  0.00    +0.000 C 
ENDROOT
BRANCH   2   4
ATOM      3  N   UNL     1     -26.211  41.774  16.601  0.00  0.00    +0.000 N 
ATOM      4  C   UNL     1     -25.894  40.715  18.545  0.00  0.00    +0.000 A 
ATOM      5  C   UNL     1     -25.167  41.957  18.557  0.00  0.00    +0.000 A 
ATOM      6  C   UNL     1     -25.388  42.591  17.336  0.00  0.00    +0.000 A 
ATOM      7  C   UNL     1     -26.522  40.641  17.309  0.00  0.00    +0.000 A 
ATOM      8  C   UNL     1     -24.346  42.604  19.503  0.00  0.00    +0.000 A 
ATOM      9  C   UNL     1     -24.830  43.831  17.007  0.00  0.00    +0.000 A 
ATOM     10  C   UNL     1     -24.015  44.446  17.967  0.00  0.00    +0.000 A 
ATOM     11  C   UNL     1     -23.778  43.842  19.197  0.00  0.00    +0.000 A 
ATOM     12  H   UNL     1     -26.531  41.987  15.668  0.00  0.00    +0.000 HD
BRANCH   7  13
ATOM     13  O   UNL     1     -27.295  39.693  16.790  0.00  0.00    +0.000 OA
ATOM     14  H   UNL     1     -26.988  38.810  17.061  0.00  0.00    +0.000 HD
ENDBRANCH   7  13
BRANCH  10  16
ATOM     15  O   UNL     1     -22.612  46.284  18.497  0.00  0.00    +0.000 OA
ATOM     16  C   UNL     1     -23.382  45.758  17.708  0.00  0.00    +0.000 C 
BRANCH  16  17
ATOM     17  O   UNL     1     -23.809  46.216  16.497  0.00  0.00    +0.000 OA
ATOM     18  C   UNL     1     -23.861  47.605  16.296  0.00  0.00    +0.000 C 
ENDBRANCH  16  17
ENDBRANCH  10  16
ENDBRANCH   2   4
BRANCH   1  22
ATOM     19  C   UNL     1     -27.054  37.410  23.973  0.00  0.00    +0.000 A 
ATOM     20  C   UNL     1     -25.919  38.211  23.824  0.00  0.00    +0.000 A 
ATOM     21  C   UNL     1     -28.042  37.513  22.985  0.00  0.00    +0.000 A 
ATOM     22  C   UNL     1     -26.749  39.140  21.751  0.00  0.00    +0.000 A 
ATOM     23  C   UNL     1     -25.766  39.072  22.739  0.00  0.00    +0.000 A 
ATOM     24  C   UNL     1     -27.902  38.371  21.896  0.00  0.00    +0.000 A 
BRANCH  19  26
ATOM     25  O   UNL     1     -27.569  38.215  26.705  0.00  0.00    +0.000 OA
ATOM     26  N   UNL     1     -27.212  36.510  25.093  0.00  0.00    +0.000 N 
ATOM     27  C   UNL     1     -27.461  37.035  26.386  0.00  0.00    +0.000 C 
ATOM     28  C   UNL     1     -27.088  35.085  24.772  0.00  0.00    +0.000 C 
BRANCH  27  29
ATOM     29  C   UNL     1     -27.602  36.067  27.465  0.00  0.00    +0.000 C 
BRANCH  29  30
ATOM     30  N   UNL     1     -27.737  35.073  28.528  0.00  0.00    +0.000 N 
ATOM     31  N   UNL     1     -24.842  34.566  30.518  0.00  0.00    +0.000 N 
ATOM     32  C   UNL     1     -26.584  34.140  28.393  0.00  0.00    +0.000 C 
ATOM     33  C   UNL     1     -27.260  35.725  29.780  0.00  0.00    +0.000 C 
ATOM     34  C   UNL     1     -25.313  33.919  29.264  0.00  0.00    +0.000 C 
ATOM     35  C   UNL     1     -25.988  35.505  30.650  0.00  0.00    +0.000 C 
ATOM     36  C   UNL     1     -23.677  35.367  30.168  0.00  0.00    +0.000 C 
ENDBRANCH  29  30
ENDBRANCH  27  29
ENDBRANCH  19  26
ENDBRANCH   1  22
BRANCH   2  37
ATOM     37  C   UNL     1     -25.257  38.428  19.414  0.00  0.00    +0.000 A 
ATOM     38  C   UNL     1     -26.000  37.294  19.090  0.00  0.00    +0.000 A 
ATOM     39  C   UNL     1     -23.867  38.379  19.516  0.00  0.00    +0.000 A 
ATOM     40  C   UNL     1     -25.338  36.090  18.872  0.00  0.00    +0.000 A 
ATOM     41  C   UNL     1     -23.215  37.169  19.297  0.00  0.00    +0.000 A 
ATOM     42  C   UNL     1     -23.949  36.027  18.976  0.00  0.00    +0.000 A 
ENDBRANCH   2  37
TORSDOF 9
ENDMDL
MODEL 4
REMARK VINA RESULT:      -6.2     21.618     24.687
REMARK  Name = 135423438_Nintedanib.pdbqt.pdb
REMARK  9 active torsions:
REMARK  status: ('A' for Active; 'I' for Inactive)
REMARK    1  A    between atoms: N_1  and  C_22
REMARK    2  A    between atoms: C_2  and  C_4
REMARK    3  A    between atoms: C_2  and  C_37
REMARK    4  A    between atoms: C_7  and  O_13
REMARK    5  A    between atoms: C_10  and  C_16
REMARK    6  A    between atoms: C_16  and  O_17
REMARK    7  A    between atoms: C_19  and  N_26
REMARK    8  A    between atoms: C_27  and  C_29
REMARK    9  A    between atoms: C_29  and  N_30
REMARK                            x       y       z     vdW  Elec       q    Type
REMARK                         _______ _______ _______ _____ _____    ______ ____
ROOT
ATOM      1  N   UNL     1       7.741  46.023   7.087  0.00  0.00    +0.000 NA
ATOM      2  C   UNL     1       8.715  45.182   7.288  0.00  0.00    +0.000 C 
ENDROOT
BRANCH   2   4
ATOM      3  N   UNL     1       7.788  41.882   5.995  0.00  0.00    +0.000 N 
ATOM      4  C   UNL     1       8.432  43.768   7.011  0.00  0.00    +0.000 A 
ATOM      5  C   UNL     1       8.630  42.656   7.903  0.00  0.00    +0.000 A 
ATOM      6  C   UNL     1       8.222  41.500   7.240  0.00  0.00    +0.000 A 
ATOM      7  C   UNL     1       7.902  43.241   5.841  0.00  0.00    +0.000 A 
ATOM      8  C   UNL     1       9.127  42.528   9.217  0.00  0.00    +0.000 A 
ATOM      9  C   UNL     1       8.280  40.228   7.818  0.00  0.00    +0.000 A 
ATOM     10  C   UNL     1       8.775  40.135   9.126  0.00  0.00    +0.000 A 
ATOM     11  C   UNL     1       9.194  41.268   9.814  0.00  0.00    +0.000 A 
ATOM     12  H   UNL     1       7.431  41.242   5.301  0.00  0.00    +0.000 HD
BRANCH   7  13
ATOM     13  O   UNL     1       7.525  43.842   4.718  0.00  0.00    +0.000 OA
ATOM     14  H   UNL     1       6.637  43.546   4.449  0.00  0.00    +0.000 HD
ENDBRANCH   7  13
BRANCH  10  16
ATOM     15  O   UNL     1       8.272  38.588  10.853  0.00  0.00    +0.000 OA
ATOM     16  C   UNL     1       8.874  38.832   9.817  0.00  0.00    +0.000 C 
BRANCH  16  17
ATOM     17  O   UNL     1       9.713  38.024   9.109  0.00  0.00    +0.000 OA
ATOM     18  C   UNL     1      10.428  37.037   9.806  0.00  0.00    +0.000 C 
ENDBRANCH  16  17
ENDBRANCH  10  16
ENDBRANCH   2   4
BRANCH   1  22
ATOM     19  C   UNL     1       8.321  50.118   7.977  0.00  0.00    +0.000 A 
ATOM     20  C   UNL     1       7.590  49.282   8.824  0.00  0.00    +0.000 A 
ATOM     21  C   UNL     1       8.855  49.543   6.816  0.00  0.00    +0.000 A 
ATOM     22  C   UNL     1       7.905  47.387   7.356  0.00  0.00    +0.000 A 
ATOM     23  C   UNL     1       7.389  47.934   8.530  0.00  0.00    +0.000 A 
ATOM     24  C   UNL     1       8.662  48.196   6.511  0.00  0.00    +0.000 A 
BRANCH  19  26
ATOM     25  O   UNL     1      10.146  51.156   9.970  0.00  0.00    +0.000 OA
ATOM     26  N   UNL     1       8.525  51.518   8.275  0.00  0.00    +0.000 N 
ATOM     27  C   UNL     1       9.452  51.895   9.279  0.00  0.00    +0.000 C 
ATOM     28  C   UNL     1       7.716  52.449   7.483  0.00  0.00    +0.000 C 
BRANCH  27  29
ATOM     29  C   UNL     1       9.597  53.322   9.528  0.00  0.00    +0.000 C 
BRANCH  29  30
ATOM     30  N   UNL     1       9.759  54.757   9.753  0.00  0.00    +0.000 N 
ATOM     31  N   UNL     1       7.079  56.348  11.452  0.00  0.00    +0.000 N 
ATOM     32  C   UNL     1       8.516  55.413   9.262  0.00  0.00    +0.000 C 
ATOM     33  C   UNL     1       9.495  54.991  11.200  0.00  0.00    +0.000 C 
ATOM     34  C   UNL     1       7.339  56.108  10.006  0.00  0.00    +0.000 C 
ATOM     35  C   UNL     1       8.317  55.686  11.944  0.00  0.00    +0.000 C 
ATOM     36  C   UNL     1       5.963  55.491  11.828  0.00  0.00    +0.000 C 
ENDBRANCH  29  30
ENDBRANCH  27  29
ENDBRANCH  19  26
ENDBRANCH   1  22
BRANCH   2  37
ATOM     37  C   UNL     1      10.059  45.548   7.770  0.00  0.00    +0.000 A 
ATOM     38  C   UNL     1      10.246  45.852   9.117  0.00  0.00    +0.000 A 
ATOM     39  C   UNL     1      11.126  45.548   6.872  0.00  0.00    +0.000 A 
ATOM     40  C   UNL     1      11.523  46.170   9.569  0.00  0.00    +0.000 A 
ATOM     41  C   UNL     1      12.398  45.868   7.334  0.00  0.00    +0.000 A 
ATOM     42  C   UNL     1      12.597  46.178   8.680  0.00  0.00    +0.000 A 
ENDBRANCH   2  37
TORSDOF 9
ENDMDL
MODEL 5
REMARK VINA RESULT:      -6.1     26.726     30.487
REMARK  Name = 135423438_Nintedanib.pdbqt.pdb
REMARK  9 active torsions:
REMARK  status: ('A' for Active; 'I' for Inactive)
REMARK    1  A    between atoms: N_1  and  C_22
REMARK    2  A    between atoms: C_2  and  C_4
REMARK    3  A    between atoms: C_2  and  C_37
REMARK    4  A    between atoms: C_7  and  O_13
REMARK    5  A    between atoms: C_10  and  C_16
REMARK    6  A    between atoms: C_16  and  O_17
REMARK    7  A    between atoms: C_19  and  N_26
REMARK    8  A    between atoms: C_27  and  C_29
REMARK    9  A    between atoms: C_29  and  N_30
REMARK                            x       y       z     vdW  Elec       q    Type
REMARK                         _______ _______ _______ _____ _____    ______ ____
ROOT
ATOM      1  N   UNL     1     -18.401  32.531   7.586  0.00  0.00    +0.000 NA
ATOM      2  C   UNL     1     -19.560  31.991   7.342  0.00  0.00    +0.000 C 
ENDROOT
BRANCH   2   4
ATOM      3  N   UNL     1     -19.564  28.369   7.887  0.00  0.00    +0.000 N 
ATOM      4  C   UNL     1     -19.738  30.595   7.761  0.00  0.00    +0.000 A 
ATOM      5  C   UNL     1     -20.601  30.109   8.806  0.00  0.00    +0.000 A 
ATOM      6  C   UNL     1     -20.466  28.723   8.859  0.00  0.00    +0.000 A 
ATOM      7  C   UNL     1     -19.119  29.478   7.214  0.00  0.00    +0.000 A 
ATOM      8  C   UNL     1     -21.481  30.727   9.718  0.00  0.00    +0.000 A 
ATOM      9  C   UNL     1     -21.165  27.923   9.768  0.00  0.00    +0.000 A 
ATOM     10  C   UNL     1     -22.035  28.567  10.658  0.00  0.00    +0.000 A 
ATOM     11  C   UNL     1     -22.189  29.948  10.635  0.00  0.00    +0.000 A 
ATOM     12  H   UNL     1     -19.280  27.418   7.700  0.00  0.00    +0.000 HD
BRANCH   7  13
ATOM     13  O   UNL     1     -18.248  29.378   6.215  0.00  0.00    +0.000 OA
ATOM     14  H   UNL     1     -18.450  30.024   5.515  0.00  0.00    +0.000 HD
ENDBRANCH   7  13
BRANCH  10  16
ATOM     15  O   UNL     1     -23.972  28.077  11.939  0.00  0.00    +0.000 OA
ATOM     16  C   UNL     1     -22.815  27.802  11.656  0.00  0.00    +0.000 C 
BRANCH  16  17
ATOM     17  O   UNL     1     -22.030  26.804  12.151  0.00  0.00    +0.000 OA
ATOM     18  C   UNL     1     -22.633  25.570  12.446  0.00  0.00    +0.000 C 
ENDBRANCH  16  17
ENDBRANCH  10  16
ENDBRANCH   2   4
BRANCH   1  22
ATOM     19  C   UNL     1     -17.470  36.505   6.471  0.00  0.00    +0.000 A 
ATOM     20  C   UNL     1     -18.086  36.212   7.690  0.00  0.00    +0.000 A 
ATOM     21  C   UNL     1     -17.174  35.424   5.629  0.00  0.00    +0.000 A 
ATOM     22  C   UNL     1     -18.125  33.846   7.194  0.00  0.00    +0.000 A 
ATOM     23  C   UNL     1     -18.402  34.905   8.057  0.00  0.00    +0.000 A 
ATOM     24  C   UNL     1     -17.484  34.113   5.985  0.00  0.00    +0.000 A 
BRANCH  19  26
ATOM     25  O   UNL     1     -14.822  37.674   6.523  0.00  0.00    +0.000 OA
ATOM     26  N   UNL     1     -17.147  37.860   6.083  0.00  0.00    +0.000 N 
ATOM     27  C   UNL     1     -15.805  38.310   6.157  0.00  0.00    +0.000 C 
ATOM     28  C   UNL     1     -18.285  38.671   5.642  0.00  0.00    +0.000 C 
BRANCH  27  29
ATOM     29  C   UNL     1     -15.560  39.689   5.757  0.00  0.00    +0.000 C 
BRANCH  29  30
ATOM     30  N   UNL     1     -15.305  41.079   5.385  0.00  0.00    +0.000 N 
ATOM     31  N   UNL     1     -18.192  43.021   4.679  0.00  0.00    +0.000 N 
ATOM     32  C   UNL     1     -16.055  41.330   4.123  0.00  0.00    +0.000 C 
ATOM     33  C   UNL     1     -16.182  41.916   6.252  0.00  0.00    +0.000 C 
ATOM     34  C   UNL     1     -17.322  42.179   3.813  0.00  0.00    +0.000 C 
ATOM     35  C   UNL     1     -17.449  42.764   5.942  0.00  0.00    +0.000 C 
ATOM     36  C   UNL     1     -19.470  42.331   4.791  0.00  0.00    +0.000 C 
ENDBRANCH  29  30
ENDBRANCH  27  29
ENDBRANCH  19  26
ENDBRANCH   1  22
BRANCH   2  37
ATOM     37  C   UNL     1     -20.686  32.675   6.680  0.00  0.00    +0.000 A 
ATOM     38  C   UNL     1     -20.863  32.533   5.305  0.00  0.00    +0.000 A 
ATOM     39  C   UNL     1     -21.574  33.423   7.452  0.00  0.00    +0.000 A 
ATOM     40  C   UNL     1     -21.944  33.159   4.693  0.00  0.00    +0.000 A 
ATOM     41  C   UNL     1     -22.651  34.046   6.830  0.00  0.00    +0.000 A 
ATOM     42  C   UNL     1     -22.836  33.914   5.453  0.00  0.00    +0.000 A 
ENDBRANCH   2  37
TORSDOF 9
ENDMDL
MODEL 6
REMARK VINA RESULT:      -6.0     27.565     30.985
REMARK  Name = 135423438_Nintedanib.pdbqt.pdb
REMARK  9 active torsions:
REMARK  status: ('A' for Active; 'I' for Inactive)
REMARK    1  A    between atoms: N_1  and  C_22
REMARK    2  A    between atoms: C_2  and  C_4
REMARK    3  A    between atoms: C_2  and  C_37
REMARK    4  A    between atoms: C_7  and  O_13
REMARK    5  A    between atoms: C_10  and  C_16
REMARK    6  A    between atoms: C_16  and  O_17
REMARK    7  A    between atoms: C_19  and  N_26
REMARK    8  A    between atoms: C_27  and  C_29
REMARK    9  A    between atoms: C_29  and  N_30
REMARK                            x       y       z     vdW  Elec       q    Type
REMARK                         _______ _______ _______ _____ _____    ______ ____
ROOT
ATOM      1  N   UNL     1     -20.510  42.249   3.969  0.00  0.00    +0.000 NA
ATOM      2  C   UNL     1     -19.530  41.658   4.590  0.00  0.00    +0.000 C 
ENDROOT
BRANCH   2   4
ATOM      3  N   UNL     1     -20.949  39.291   6.998  0.00  0.00    +0.000 N 
ATOM      4  C   UNL     1     -19.890  40.549   5.483  0.00  0.00    +0.000 A 
ATOM      5  C   UNL     1     -19.173  39.314   5.660  0.00  0.00    +0.000 A 
ATOM      6  C   UNL     1     -19.859  38.555   6.605  0.00  0.00    +0.000 A 
ATOM      7  C   UNL     1     -20.983  40.493   6.339  0.00  0.00    +0.000 A 
ATOM      8  C   UNL     1     -18.002  38.769   5.093  0.00  0.00    +0.000 A 
ATOM      9  C   UNL     1     -19.438  37.287   7.018  0.00  0.00    +0.000 A 
ATOM     10  C   UNL     1     -18.268  36.775   6.439  0.00  0.00    +0.000 A 
ATOM     11  C   UNL     1     -17.562  37.505   5.490  0.00  0.00    +0.000 A 
ATOM     12  H   UNL     1     -21.623  38.980   7.683  0.00  0.00    +0.000 HD
BRANCH   7  13
ATOM     13  O   UNL     1     -21.943  41.382   6.570  0.00  0.00    +0.000 OA
ATOM     14  H   UNL     1     -21.607  42.121   7.108  0.00  0.00    +0.000 HD
ENDBRANCH   7  13
BRANCH  10  16
ATOM     15  O   UNL     1     -16.914  34.849   6.144  0.00  0.00    +0.000 OA
ATOM     16  C   UNL     1     -17.747  35.443   6.814  0.00  0.00    +0.000 C 
BRANCH  16  17
ATOM     17  O   UNL     1     -18.347  35.050   7.973  0.00  0.00    +0.000 OA
ATOM     18  C   UNL     1     -18.859  33.744   8.044  0.00  0.00    +0.000 C 
ENDBRANCH  16  17
ENDBRANCH  10  16
ENDBRANCH   2   4
BRANCH   1  22
ATOM     19  C   UNL     1     -19.902  45.548   1.391  0.00  0.00    +0.000 A 
ATOM     20  C   UNL     1     -20.131  44.264   0.893  0.00  0.00    +0.000 A 
ATOM     21  C   UNL     1     -19.880  45.700   2.784  0.00  0.00    +0.000 A 
ATOM     22  C   UNL     1     -20.270  43.338   3.123  0.00  0.00    +0.000 A 
ATOM     23  C   UNL     1     -20.323  43.173   1.740  0.00  0.00    +0.000 A 
ATOM     24  C   UNL     1     -20.071  44.617   3.641  0.00  0.00    +0.000 A 
BRANCH  19  26
ATOM     25  O   UNL     1     -17.569  45.976  -0.269  0.00  0.00    +0.000 OA
ATOM     26  N   UNL     1     -19.695  46.681   0.517  0.00  0.00    +0.000 N 
ATOM     27  C   UNL     1     -18.503  46.772  -0.245  0.00  0.00    +0.000 C 
ATOM     28  C   UNL     1     -20.777  47.670   0.509  0.00  0.00    +0.000 C 
BRANCH  27  29
ATOM     29  C   UNL     1     -18.363  47.945  -1.096  0.00  0.00    +0.000 C 
BRANCH  29  30
ATOM     30  N   UNL     1     -18.245  49.113  -1.967  0.00  0.00    +0.000 N 
ATOM     31  N   UNL     1     -14.941  49.951  -2.956  0.00  0.00    +0.000 N 
ATOM     32  C   UNL     1     -17.216  50.001  -1.359  0.00  0.00    +0.000 C 
ATOM     33  C   UNL     1     -17.415  48.692  -3.130  0.00  0.00    +0.000 C 
ATOM     34  C   UNL     1     -15.767  50.366  -1.790  0.00  0.00    +0.000 C 
ATOM     35  C   UNL     1     -15.965  49.057  -3.561  0.00  0.00    +0.000 C 
ATOM     36  C   UNL     1     -13.882  49.094  -2.440  0.00  0.00    +0.000 C 
ENDBRANCH  29  30
ENDBRANCH  27  29
ENDBRANCH  19  26
ENDBRANCH   1  22
BRANCH   2  37
ATOM     37  C   UNL     1     -18.108  42.023   4.462  0.00  0.00    +0.000 A 
ATOM     38  C   UNL     1     -17.423  41.718   3.287  0.00  0.00    +0.000 A 
ATOM     39  C   UNL     1     -17.484  42.699   5.510  0.00  0.00    +0.000 A 
ATOM     40  C   UNL     1     -16.088  42.090   3.165  0.00  0.00    +0.000 A 
ATOM     41  C   UNL     1     -16.148  43.066   5.378  0.00  0.00    +0.000 A 
ATOM     42  C   UNL     1     -15.452  42.762   4.208  0.00  0.00    +0.000 A 
ENDBRANCH   2  37
TORSDOF 9
ENDMDL
MODEL 7
REMARK VINA RESULT:      -6.0     25.889     28.521
REMARK  Name = 135423438_Nintedanib.pdbqt.pdb
REMARK  9 active torsions:
REMARK  status: ('A' for Active; 'I' for Inactive)
REMARK    1  A    between atoms: N_1  and  C_22
REMARK    2  A    between atoms: C_2  and  C_4
REMARK    3  A    between atoms: C_2  and  C_37
REMARK    4  A    between atoms: C_7  and  O_13
REMARK    5  A    between atoms: C_10  and  C_16
REMARK    6  A    between atoms: C_16  and  O_17
REMARK    7  A    between atoms: C_19  and  N_26
REMARK    8  A    between atoms: C_27  and  C_29
REMARK    9  A    between atoms: C_29  and  N_30
REMARK                            x       y       z     vdW  Elec       q    Type
REMARK                         _______ _______ _______ _____ _____    ______ ____
ROOT
ATOM      1  N   UNL     1     -19.679  28.726  19.709  0.00  0.00    +0.000 NA
ATOM      2  C   UNL     1     -20.724  29.045  19.000  0.00  0.00    +0.000 C 
ENDROOT
BRANCH   2   4
ATOM      3  N   UNL     1     -19.628  30.129  15.677  0.00  0.00    +0.000 N 
ATOM      4  C   UNL     1     -20.492  29.328  17.577  0.00  0.00    +0.000 A 
ATOM      5  C   UNL     1     -21.274  28.856  16.464  0.00  0.00    +0.000 A 
ATOM      6  C   UNL     1     -20.708  29.370  15.299  0.00  0.00    +0.000 A 
ATOM      7  C   UNL     1     -19.485  30.119  17.041  0.00  0.00    +0.000 A 
ATOM      8  C   UNL     1     -22.410  28.031  16.343  0.00  0.00    +0.000 A 
ATOM      9  C   UNL     1     -21.217  29.108  14.023  0.00  0.00    +0.000 A 
ATOM     10  C   UNL     1     -22.350  28.288  13.937  0.00  0.00    +0.000 A 
ATOM     11  C   UNL     1     -22.936  27.755  15.080  0.00  0.00    +0.000 A 
ATOM     12  H   UNL     1     -19.032  30.624  15.030  0.00  0.00    +0.000 HD
BRANCH   7  13
ATOM     13  O   UNL     1     -18.513  30.800  17.639  0.00  0.00    +0.000 OA
ATOM     14  H   UNL     1     -18.298  31.606  17.137  0.00  0.00    +0.000 HD
ENDBRANCH   7  13
BRANCH  10  16
ATOM     15  O   UNL     1     -23.063  26.807  12.225  0.00  0.00    +0.000 OA
ATOM     16  C   UNL     1     -22.958  27.955  12.630  0.00  0.00    +0.000 C 
BRANCH  16  17
ATOM     17  O   UNL     1     -23.346  29.113  12.023  0.00  0.00    +0.000 OA
ATOM     18  C   UNL     1     -24.669  29.547  12.208  0.00  0.00    +0.000 C 
ENDBRANCH  16  17
ENDBRANCH  10  16
ENDBRANCH   2   4
BRANCH   1  22
ATOM     19  C   UNL     1     -20.145  27.978  23.847  0.00  0.00    +0.000 A 
ATOM     20  C   UNL     1     -20.135  29.278  23.335  0.00  0.00    +0.000 A 
ATOM     21  C   UNL     1     -19.993  26.929  22.931  0.00  0.00    +0.000 A 
ATOM     22  C   UNL     1     -19.794  28.473  21.081  0.00  0.00    +0.000 A 
ATOM     23  C   UNL     1     -19.973  29.528  21.973  0.00  0.00    +0.000 A 
ATOM     24  C   UNL     1     -19.831  27.167  21.567  0.00  0.00    +0.000 A 
BRANCH  19  26
ATOM     25  O   UNL     1     -22.529  28.534  25.393  0.00  0.00    +0.000 OA
ATOM     26  N   UNL     1     -20.305  27.714  25.259  0.00  0.00    +0.000 N 
ATOM     27  C   UNL     1     -21.529  28.035  25.900  0.00  0.00    +0.000 C 
ATOM     28  C   UNL     1     -19.138  27.124  25.921  0.00  0.00    +0.000 C 
BRANCH  27  29
ATOM     29  C   UNL     1     -21.612  27.748  27.325  0.00  0.00    +0.000 C 
BRANCH  29  30
ATOM     30  N   UNL     1     -21.697  27.489  28.761  0.00  0.00    +0.000 N 
ATOM     31  N   UNL     1     -23.615  24.650  29.687  0.00  0.00    +0.000 N 
ATOM     32  C   UNL     1     -23.141  27.322  29.082  0.00  0.00    +0.000 C 
ATOM     33  C   UNL     1     -21.331  26.058  28.955  0.00  0.00    +0.000 C 
ATOM     34  C   UNL     1     -23.983  26.077  29.486  0.00  0.00    +0.000 C 
ATOM     35  C   UNL     1     -22.174  24.813  29.358  0.00  0.00    +0.000 C 
ATOM     36  C   UNL     1     -24.217  23.900  28.593  0.00  0.00    +0.000 C 
ENDBRANCH  29  30
ENDBRANCH  27  29
ENDBRANCH  19  26
ENDBRANCH   1  22
BRANCH   2  37
ATOM     37  C   UNL     1     -22.099  29.144  19.521  0.00  0.00    +0.000 A 
ATOM     38  C   UNL     1     -22.671  30.401  19.713  0.00  0.00    +0.000 A 
ATOM     39  C   UNL     1     -22.813  27.975  19.779  0.00  0.00    +0.000 A 
ATOM     40  C   UNL     1     -23.979  30.485  20.179  0.00  0.00    +0.000 A 
ATOM     41  C   UNL     1     -24.120  28.071  20.246  0.00  0.00    +0.000 A 
ATOM     42  C   UNL     1     -24.702  29.322  20.446  0.00  0.00    +0.000 A 
ENDBRANCH   2  37
TORSDOF 9
ENDMDL
MODEL 8
REMARK VINA RESULT:      -6.0     21.333     24.897
REMARK  Name = 135423438_Nintedanib.pdbqt.pdb
REMARK  9 active torsions:
REMARK  status: ('A' for Active; 'I' for Inactive)
REMARK    1  A    between atoms: N_1  and  C_22
REMARK    2  A    between atoms: C_2  and  C_4
REMARK    3  A    between atoms: C_2  and  C_37
REMARK    4  A    between atoms: C_7  and  O_13
REMARK    5  A    between atoms: C_10  and  C_16
REMARK    6  A    between atoms: C_16  and  O_17
REMARK    7  A    between atoms: C_19  and  N_26
REMARK    8  A    between atoms: C_27  and  C_29
REMARK    9  A    between atoms: C_29  and  N_30
REMARK                            x       y       z     vdW  Elec       q    Type
REMARK                         _______ _______ _______ _____ _____    ______ ____
ROOT
ATOM      1  N   UNL     1      -3.445  26.975  20.811  0.00  0.00    +0.000 NA
ATOM      2  C   UNL     1      -3.188  26.930  19.536  0.00  0.00    +0.000 C 
ENDROOT
BRANCH   2   4
ATOM      3  N   UNL     1      -0.249  29.056  19.021  0.00  0.00    +0.000 N 
ATOM      4  C   UNL     1      -2.022  27.693  19.072  0.00  0.00    +0.000 A 
ATOM      5  C   UNL     1      -1.491  27.732  17.735  0.00  0.00    +0.000 A 
ATOM      6  C   UNL     1      -0.390  28.585  17.739  0.00  0.00    +0.000 A 
ATOM      7  C   UNL     1      -1.223  28.534  19.835  0.00  0.00    +0.000 A 
ATOM      8  C   UNL     1      -1.846  27.111  16.520  0.00  0.00    +0.000 A 
ATOM      9  C   UNL     1       0.372  28.855  16.597  0.00  0.00    +0.000 A 
ATOM     10  C   UNL     1      -0.009  28.225  15.405  0.00  0.00    +0.000 A 
ATOM     11  C   UNL     1      -1.100  27.364  15.367  0.00  0.00    +0.000 A 
ATOM     12  H   UNL     1       0.472  29.700  19.310  0.00  0.00    +0.000 HD
BRANCH   7  13
ATOM     13  O   UNL     1      -1.297  28.861  21.121  0.00  0.00    +0.000 OA
ATOM     14  H   UNL     1      -0.465  29.267  21.422  0.00  0.00    +0.000 HD
ENDBRANCH   7  13
BRANCH  10  16
ATOM     15  O   UNL     1       1.955  28.554  14.113  0.00  0.00    +0.000 OA
ATOM     16  C   UNL     1       0.737  28.449  14.147  0.00  0.00    +0.000 C 
BRANCH  16  17
ATOM     17  O   UNL     1      -0.153  28.510  13.117  0.00  0.00    +0.000 OA
ATOM     18  C   UNL     1       0.349  28.489  11.805  0.00  0.00    +0.000 C 
ENDBRANCH  16  17
ENDBRANCH  10  16
ENDBRANCH   2   4
BRANCH   1  22
ATOM     19  C   UNL     1      -6.826  24.918  22.309  0.00  0.00    +0.000 A 
ATOM     20  C   UNL     1      -6.949  26.139  21.640  0.00  0.00    +0.000 A 
ATOM     21  C   UNL     1      -5.533  24.402  22.464  0.00  0.00    +0.000 A 
ATOM     22  C   UNL     1      -4.555  26.308  21.343  0.00  0.00    +0.000 A 
ATOM     23  C   UNL     1      -5.836  26.823  21.153  0.00  0.00    +0.000 A 
ATOM     24  C   UNL     1      -4.412  25.077  21.982  0.00  0.00    +0.000 A 
BRANCH  19  26
ATOM     25  O   UNL     1      -8.112  25.433  24.851  0.00  0.00    +0.000 OA
ATOM     26  N   UNL     1      -7.977  24.209  22.822  0.00  0.00    +0.000 N 
ATOM     27  C   UNL     1      -8.511  24.560  24.087  0.00  0.00    +0.000 C 
ATOM     28  C   UNL     1      -8.495  23.148  21.953  0.00  0.00    +0.000 C 
BRANCH  27  29
ATOM     29  C   UNL     1      -9.665  23.795  24.540  0.00  0.00    +0.000 C 
BRANCH  29  30
ATOM     30  N   UNL     1     -10.837  23.034  24.968  0.00  0.00    +0.000 N 
ATOM     31  N   UNL     1     -13.975  24.462  24.123  0.00  0.00    +0.000 N 
ATOM     32  C   UNL     1     -11.727  23.985  25.689  0.00  0.00    +0.000 C 
ATOM     33  C   UNL     1     -11.708  22.888  23.769  0.00  0.00    +0.000 C 
ATOM     34  C   UNL     1     -13.101  24.614  25.318  0.00  0.00    +0.000 C 
ATOM     35  C   UNL     1     -13.083  23.518  23.397  0.00  0.00    +0.000 C 
ATOM     36  C   UNL     1     -13.928  25.727  23.402  0.00  0.00    +0.000 C 
ENDBRANCH  29  30
ENDBRANCH  27  29
ENDBRANCH  19  26
ENDBRANCH   1  22
BRANCH   2  37
ATOM     37  C   UNL     1      -3.978  26.181  18.542  0.00  0.00    +0.000 A 
ATOM     38  C   UNL     1      -4.957  26.844  17.804  0.00  0.00    +0.000 A 
ATOM     39  C   UNL     1      -3.705  24.830  18.336  0.00  0.00    +0.000 A 
ATOM     40  C   UNL     1      -5.680  26.135  16.849  0.00  0.00    +0.000 A 
ATOM     41  C   UNL     1      -4.434  24.131  17.379  0.00  0.00    +0.000 A 
ATOM     42  C   UNL     1      -5.419  24.782  16.637  0.00  0.00    +0.000 A 
ENDBRANCH   2  37
TORSDOF 9
ENDMDL
MODEL 9
REMARK VINA RESULT:      -5.9     21.750     24.459
REMARK  Name = 135423438_Nintedanib.pdbqt.pdb
REMARK  9 active torsions:
REMARK  status: ('A' for Active; 'I' for Inactive)
REMARK    1  A    between atoms: N_1  and  C_22
REMARK    2  A    between atoms: C_2  and  C_4
REMARK    3  A    between atoms: C_2  and  C_37
REMARK    4  A    between atoms: C_7  and  O_13
REMARK    5  A    between atoms: C_10  and  C_16
REMARK    6  A    between atoms: C_16  and  O_17
REMARK    7  A    between atoms: C_19  and  N_26
REMARK    8  A    between atoms: C_27  and  C_29
REMARK    9  A    between atoms: C_29  and  N_30
REMARK                            x       y       z     vdW  Elec       q    Type
REMARK                         _______ _______ _______ _____ _____    ______ ____
ROOT
ATOM      1  N   UNL     1      -2.771  27.621  19.522  0.00  0.00    +0.000 NA
ATOM      2  C   UNL     1      -1.897  26.947  18.832  0.00  0.00    +0.000 C 
ENDROOT
BRANCH   2   4
ATOM      3  N   UNL     1       0.318  29.241  17.028  0.00  0.00    +0.000 N 
ATOM      4  C   UNL     1      -1.069  27.713  17.892  0.00  0.00    +0.000 A 
ATOM      5  C   UNL     1      -0.921  27.476  16.480  0.00  0.00    +0.000 A 
ATOM      6  C   UNL     1      -0.052  28.441  15.975  0.00  0.00    +0.000 A 
ATOM      7  C   UNL     1      -0.287  28.822  18.187  0.00  0.00    +0.000 A 
ATOM      8  C   UNL     1      -1.445  26.521  15.585  0.00  0.00    +0.000 A 
ATOM      9  C   UNL     1       0.318  28.506  14.628  0.00  0.00    +0.000 A 
ATOM     10  C   UNL     1      -0.223  27.545  13.764  0.00  0.00    +0.000 A 
ATOM     11  C   UNL     1      -1.090  26.566  14.235  0.00  0.00    +0.000 A 
ATOM     12  H   UNL     1       0.944  30.028  16.947  0.00  0.00    +0.000 HD
BRANCH   7  13
ATOM     13  O   UNL     1      -0.090  29.457  19.337  0.00  0.00    +0.000 OA
ATOM     14  H   UNL     1      -0.152  28.839  20.087  0.00  0.00    +0.000 HD
ENDBRANCH   7  13
BRANCH  10  16
ATOM     15  O   UNL     1      -0.740  27.595  11.448  0.00  0.00    +0.000 OA
ATOM     16  C   UNL     1       0.112  27.535  12.323  0.00  0.00    +0.000 C 
BRANCH  16  17
ATOM     17  O   UNL     1       1.466  27.452  12.190  0.00  0.00    +0.000 OA
ATOM     18  C   UNL     1       2.000  26.322  11.549  0.00  0.00    +0.000 C 
ENDBRANCH  16  17
ENDBRANCH  10  16
ENDBRANCH   2   4
BRANCH   1  22
ATOM     19  C   UNL     1      -5.371  25.767  22.299  0.00  0.00    +0.000 A 
ATOM     20  C   UNL     1      -4.010  25.934  22.569  0.00  0.00    +0.000 A 
ATOM     21  C   UNL     1      -5.840  26.239  21.066  0.00  0.00    +0.000 A 
ATOM     22  C   UNL     1      -3.630  26.974  20.419  0.00  0.00    +0.000 A 
ATOM     23  C   UNL     1      -3.149  26.537  21.653  0.00  0.00    +0.000 A 
ATOM     24  C   UNL     1      -4.989  26.843  20.142  0.00  0.00    +0.000 A 
BRANCH  19  26
ATOM     25  O   UNL     1      -6.962  27.154  24.279  0.00  0.00    +0.000 OA
ATOM     26  N   UNL     1      -6.266  25.136  23.243  0.00  0.00    +0.000 N 
ATOM     27  C   UNL     1      -6.989  25.933  24.165  0.00  0.00    +0.000 C 
ATOM     28  C   UNL     1      -6.335  23.674  23.157  0.00  0.00    +0.000 C 
BRANCH  27  29
ATOM     29  C   UNL     1      -7.864  25.226  25.089  0.00  0.00    +0.000 C 
BRANCH  29  30
ATOM     30  N   UNL     1      -8.735  24.489  26.004  0.00  0.00    +0.000 N 
ATOM     31  N   UNL     1      -7.308  23.690  29.155  0.00  0.00    +0.000 N 
ATOM     32  C   UNL     1      -7.960  23.309  26.478  0.00  0.00    +0.000 C 
ATOM     33  C   UNL     1      -8.704  25.223  27.300  0.00  0.00    +0.000 C 
ATOM     34  C   UNL     1      -7.332  22.960  27.858  0.00  0.00    +0.000 C 
ATOM     35  C   UNL     1      -8.075  24.874  28.680  0.00  0.00    +0.000 C 
ATOM     36  C   UNL     1      -5.936  24.132  29.365  0.00  0.00    +0.000 C 
ENDBRANCH  29  30
ENDBRANCH  27  29
ENDBRANCH  19  26
ENDBRANCH   1  22
BRANCH   2  37
ATOM     37  C   UNL     1      -1.689  25.491  18.926  0.00  0.00    +0.000 A 
ATOM     38  C   UNL     1      -0.571  25.000  19.598  0.00  0.00    +0.000 A 
ATOM     39  C   UNL     1      -2.635  24.632  18.368  0.00  0.00    +0.000 A 
ATOM     40  C   UNL     1      -0.396  23.623  19.704  0.00  0.00    +0.000 A 
ATOM     41  C   UNL     1      -2.450  23.258  18.480  0.00  0.00    +0.000 A 
ATOM     42  C   UNL     1      -1.334  22.755  19.147  0.00  0.00    +0.000 A 
ENDBRANCH   2  37
TORSDOF 9
ENDMDL
