MODEL 1
REMARK VINA RESULT:      -6.7      0.000      0.000
REMARK  Name = 135403648_CalciumFolinate.pdbqt.pdb
REMARK  10 active torsions:
REMARK  status: ('A' for Active; 'I' for Inactive)
REMARK    1  A    between atoms: N_1  and  C_3
REMARK    2  A    between atoms: N_1  and  C_24
REMARK    3  A    between atoms: C_6  and  C_11
REMARK    4  A    between atoms: CA_13  and  C_15
REMARK    5  A    between atoms: CA_13  and  CB_18
REMARK    6  A    between atoms: C_15  and  O_16
REMARK    7  A    between atoms: CG_19  and  CD_21
REMARK    8  A    between atoms: CD_21  and  OE1_22
REMARK    9  A    between atoms: C_24  and  C_32
REMARK   10  A    between atoms: N_27  and  C_37
REMARK                            x       y       z     vdW  Elec       q    Type
REMARK                         _______ _______ _______ _____ _____    ______ ____
ROOT
ATOM      1  N   UNL     1      -0.695  51.943  27.809  0.00  0.00    +0.000 N 
ATOM      2  H   UNL     1      -0.665  52.740  27.174  0.00  0.00    +0.000 HD
ENDROOT
BRANCH   1   3
ATOM      3  C   UNL     1      -1.779  51.083  27.531  0.00  0.00    +0.000 A 
ATOM      4  C   UNL     1      -1.600  50.032  26.626  0.00  0.00    +0.000 A 
ATOM      5  C   UNL     1      -3.076  51.347  27.987  0.00  0.00    +0.000 A 
ATOM      6  C   UNL     1      -3.945  49.469  26.741  0.00  0.00    +0.000 A 
ATOM      7  C   UNL     1      -2.668  49.221  26.245  0.00  0.00    +0.000 A 
ATOM      8  C   UNL     1      -4.148  50.541  27.612  0.00  0.00    +0.000 A 
BRANCH   6  11
ATOM      9  O   UNL     1      -5.964  49.106  25.626  0.00  0.00    +0.000 OA
ATOM     10  N   UNL     1      -5.143  47.357  26.903  0.00  0.00    +0.000 N 
ATOM     11  C   ACE A   0      -5.112  48.631  26.368  0.00  0.00    +0.000 C 
ATOM     12  H   UNL     1      -4.389  47.054  27.514  0.00  0.00    +0.000 HD
ATOM     13  CA  UNL     1      -6.117  46.394  26.708  0.00  0.00    +0.000 C 
BRANCH  13  15
ATOM     14  OXT UNL     1      -6.453  44.797  28.455  0.00  0.00    +0.000 OA
ATOM     15  C   UNL     1      -5.899  45.105  27.410  0.00  0.00    +0.000 C 
BRANCH  15  16
ATOM     16  O   UNL     1      -5.031  44.285  26.799  0.00  0.00    +0.000 OA
ATOM     17  H   UNL     1      -4.829  44.724  25.946  0.00  0.00    +0.000 HD
ENDBRANCH  15  16
ENDBRANCH  13  15
BRANCH  13  18
ATOM     18  CB  UNL     1      -7.254  46.620  25.889  0.00  0.00    +0.000 C 
ATOM     19  CG  UNL     1      -8.481  46.876  25.007  0.00  0.00    +0.000 C 
BRANCH  19  21
ATOM     20  OE2 UNL     1     -10.150  48.229  24.086  0.00  0.00    +0.000 OA
ATOM     21  CD  UNL     1      -9.625  47.134  24.187  0.00  0.00    +0.000 C 
BRANCH  21  22
ATOM     22  OE1 UNL     1     -10.094  46.049  23.543  0.00  0.00    +0.000 OA
ATOM     23  HE1 UNL     1     -10.872  46.393  23.058  0.00  0.00    +0.000 HD
ENDBRANCH  21  22
ENDBRANCH  19  21
ENDBRANCH  13  18
ENDBRANCH   6  11
ENDBRANCH   1   3
BRANCH   1  24
ATOM     24  C   UNL     1       0.593  51.354  28.155  0.00  0.00    +0.000 C 
BRANCH  24  31
ATOM     25  O   UNL     1       2.517  46.722  29.742  0.00  0.00    +0.000 OA
ATOM     26  N   UNL     1       1.985  49.413  28.780  0.00  0.00    +0.000 N 
ATOM     27  N   UNL     1       4.432  50.988  28.583  0.00  0.00    +0.000 N 
ATOM     28  N   UNL     1       5.667  49.172  29.442  0.00  0.00    +0.000 NA
ATOM     29  N   UNL     1       4.718  47.102  29.846  0.00  0.00    +0.000 N 
ATOM     30  N   UNL     1       6.970  47.433  30.186  0.00  0.00    +0.000 N 
ATOM     31  C   UNL     1       1.848  50.756  28.447  0.00  0.00    +0.000 C 
ATOM     32  C   UNL     1       3.082  51.424  28.412  0.00  0.00    +0.000 C 
ATOM     33  C   UNL     1       3.279  48.918  29.101  0.00  0.00    +0.000 A 
ATOM     34  C   UNL     1       4.440  49.658  29.044  0.00  0.00    +0.000 A 
ATOM     35  C   UNL     1       3.446  47.505  29.576  0.00  0.00    +0.000 A 
ATOM     36  C   UNL     1       5.773  47.942  29.813  0.00  0.00    +0.000 A 
ATOM     37  H   UNL     1       5.131  51.541  29.070  0.00  0.00    +0.000 HD
ATOM     38  H   UNL     1       4.817  46.167  30.210  0.00  0.00    +0.000 HD
ATOM     39  H   UNL     1       7.742  48.046  29.939  0.00  0.00    +0.000 HD
ATOM     40  H   UNL     1       7.151  46.467  29.947  0.00  0.00    +0.000 HD
BRANCH  26  42
ATOM     41  O   UNL     1      -0.106  48.004  28.922  0.00  0.00    +0.000 OA
ATOM     42  C   UNL     1       0.877  48.640  28.825  0.00  0.00    +0.000 C 
ENDBRANCH  26  42
ENDBRANCH  24  31
ENDBRANCH   1  24
TORSDOF 10
ENDMDL
MODEL 2
REMARK VINA RESULT:      -6.4      3.858      5.402
REMARK  Name = 135403648_CalciumFolinate.pdbqt.pdb
REMARK  10 active torsions:
REMARK  status: ('A' for Active; 'I' for Inactive)
REMARK    1  A    between atoms: N_1  and  C_3
REMARK    2  A    between atoms: N_1  and  C_24
REMARK    3  A    between atoms: C_6  and  C_11
REMARK    4  A    between atoms: CA_13  and  C_15
REMARK    5  A    between atoms: CA_13  and  CB_18
REMARK    6  A    between atoms: C_15  and  O_16
REMARK    7  A    between atoms: CG_19  and  CD_21
REMARK    8  A    between atoms: CD_21  and  OE1_22
REMARK    9  A    between atoms: C_24  and  C_32
REMARK   10  A    between atoms: N_27  and  C_37
REMARK                            x       y       z     vdW  Elec       q    Type
REMARK                         _______ _______ _______ _____ _____    ______ ____
ROOT
ATOM      1  N   UNL     1      -0.829  52.428  28.310  0.00  0.00    +0.000 N 
ATOM      2  H   UNL     1      -1.143  52.929  29.141  0.00  0.00    +0.000 HD
ENDROOT
BRANCH   1   3
ATOM      3  C   UNL     1      -1.833  51.589  27.783  0.00  0.00    +0.000 A 
ATOM      4  C   UNL     1      -3.142  51.711  28.259  0.00  0.00    +0.000 A 
ATOM      5  C   UNL     1      -1.537  50.517  26.932  0.00  0.00    +0.000 A 
ATOM      6  C   UNL     1      -3.844  49.800  26.959  0.00  0.00    +0.000 A 
ATOM      7  C   UNL     1      -4.144  50.836  27.840  0.00  0.00    +0.000 A 
ATOM      8  C   UNL     1      -2.533  49.639  26.509  0.00  0.00    +0.000 A 
BRANCH   6  11
ATOM      9  O   UNL     1      -6.013  49.263  26.284  0.00  0.00    +0.000 OA
ATOM     10  N   UNL     1      -4.463  47.541  26.299  0.00  0.00    +0.000 N 
ATOM     11  C   ACE A   0      -4.877  48.847  26.482  0.00  0.00    +0.000 C 
ATOM     12  H   UNL     1      -3.497  47.291  26.495  0.00  0.00    +0.000 HD
ATOM     13  CA  UNL     1      -5.232  46.475  25.867  0.00  0.00    +0.000 C 
BRANCH  13  15
ATOM     14  OXT UNL     1      -3.657  44.935  24.941  0.00  0.00    +0.000 OA
ATOM     15  C   UNL     1      -4.529  45.173  25.763  0.00  0.00    +0.000 C 
BRANCH  15  16
ATOM     16  O   UNL     1      -4.930  44.258  26.659  0.00  0.00    +0.000 OA
ATOM     17  H   UNL     1      -4.147  43.687  26.802  0.00  0.00    +0.000 HD
ENDBRANCH  15  16
ENDBRANCH  13  15
BRANCH  13  18
ATOM     18  CB  UNL     1      -6.607  46.615  25.542  0.00  0.00    +0.000 C 
ATOM     19  CG  UNL     1      -8.093  46.753  25.190  0.00  0.00    +0.000 C 
BRANCH  19  21
ATOM     20  OE2 UNL     1     -10.317  47.333  25.610  0.00  0.00    +0.000 OA
ATOM     21  CD  UNL     1      -9.481  46.864  24.859  0.00  0.00    +0.000 C 
BRANCH  21  22
ATOM     22  OE1 UNL     1      -9.794  46.383  23.642  0.00  0.00    +0.000 OA
ATOM     23  HE1 UNL     1     -10.773  46.367  23.651  0.00  0.00    +0.000 HD
ENDBRANCH  21  22
ENDBRANCH  19  21
ENDBRANCH  13  18
ENDBRANCH   6  11
ENDBRANCH   1   3
BRANCH   1  24
ATOM     24  C   UNL     1       0.004  53.188  27.386  0.00  0.00    +0.000 C 
BRANCH  24  31
ATOM     25  O   UNL     1       4.858  55.177  26.987  0.00  0.00    +0.000 OA
ATOM     26  N   UNL     1       2.123  54.240  26.681  0.00  0.00    +0.000 N 
ATOM     27  N   UNL     1       0.922  55.221  24.211  0.00  0.00    +0.000 N 
ATOM     28  N   UNL     1       2.893  56.422  23.731  0.00  0.00    +0.000 NA
ATOM     29  N   UNL     1       4.802  56.250  25.027  0.00  0.00    +0.000 N 
ATOM     30  N   UNL     1       4.799  57.555  23.130  0.00  0.00    +0.000 N 
ATOM     31  C   UNL     1       0.776  53.961  26.478  0.00  0.00    +0.000 C 
ATOM     32  C   UNL     1       0.295  54.506  25.278  0.00  0.00    +0.000 C 
ATOM     33  C   UNL     1       2.799  55.062  25.737  0.00  0.00    +0.000 A 
ATOM     34  C   UNL     1       2.236  55.560  24.582  0.00  0.00    +0.000 A 
ATOM     35  C   UNL     1       4.219  55.478  25.984  0.00  0.00    +0.000 A 
ATOM     36  C   UNL     1       4.123  56.729  23.962  0.00  0.00    +0.000 A 
ATOM     37  H   UNL     1       0.474  55.995  23.730  0.00  0.00    +0.000 HD
ATOM     38  H   UNL     1       5.739  56.564  25.222  0.00  0.00    +0.000 HD
ATOM     39  H   UNL     1       4.305  57.705  22.254  0.00  0.00    +0.000 HD
ATOM     40  H   UNL     1       5.782  57.362  22.992  0.00  0.00    +0.000 HD
BRANCH  26  42
ATOM     41  O   UNL     1       3.230  53.263  28.730  0.00  0.00    +0.000 OA
ATOM     42  C   UNL     1       2.727  53.753  27.787  0.00  0.00    +0.000 C 
ENDBRANCH  26  42
ENDBRANCH  24  31
ENDBRANCH   1  24
TORSDOF 10
ENDMDL
MODEL 3
REMARK VINA RESULT:      -6.3      4.495      6.519
REMARK  Name = 135403648_CalciumFolinate.pdbqt.pdb
REMARK  10 active torsions:
REMARK  status: ('A' for Active; 'I' for Inactive)
REMARK    1  A    between atoms: N_1  and  C_3
REMARK    2  A    between atoms: N_1  and  C_24
REMARK    3  A    between atoms: C_6  and  C_11
REMARK    4  A    between atoms: CA_13  and  C_15
REMARK    5  A    between atoms: CA_13  and  CB_18
REMARK    6  A    between atoms: C_15  and  O_16
REMARK    7  A    between atoms: CG_19  and  CD_21
REMARK    8  A    between atoms: CD_21  and  OE1_22
REMARK    9  A    between atoms: C_24  and  C_32
REMARK   10  A    between atoms: N_27  and  C_37
REMARK                            x       y       z     vdW  Elec       q    Type
REMARK                         _______ _______ _______ _____ _____    ______ ____
ROOT
ATOM      1  N   UNL     1      -0.671  52.465  28.310  0.00  0.00    +0.000 N 
ATOM      2  H   UNL     1      -0.832  52.845  29.242  0.00  0.00    +0.000 HD
ENDROOT
BRANCH   1   3
ATOM      3  C   UNL     1      -1.657  51.527  27.939  0.00  0.00    +0.000 A 
ATOM      4  C   UNL     1      -1.329  50.518  27.029  0.00  0.00    +0.000 A 
ATOM      5  C   UNL     1      -3.000  51.673  28.306  0.00  0.00    +0.000 A 
ATOM      6  C   UNL     1      -3.622  49.763  26.965  0.00  0.00    +0.000 A 
ATOM      7  C   UNL     1      -2.297  49.632  26.557  0.00  0.00    +0.000 A 
ATOM      8  C   UNL     1      -3.973  50.792  27.840  0.00  0.00    +0.000 A 
BRANCH   6  11
ATOM      9  O   UNL     1      -5.803  49.298  26.272  0.00  0.00    +0.000 OA
ATOM     10  N   UNL     1      -4.323  47.517  26.343  0.00  0.00    +0.000 N 
ATOM     11  C   ACE A   0      -4.687  48.842  26.494  0.00  0.00    +0.000 C 
ATOM     12  H   UNL     1      -3.371  47.233  26.558  0.00  0.00    +0.000 HD
ATOM     13  CA  UNL     1      -5.129  46.474  25.923  0.00  0.00    +0.000 C 
BRANCH  13  15
ATOM     14  OXT UNL     1      -3.904  44.715  24.864  0.00  0.00    +0.000 OA
ATOM     15  C   UNL     1      -4.478  45.143  25.855  0.00  0.00    +0.000 C 
BRANCH  15  16
ATOM     16  O   UNL     1      -4.565  44.429  26.988  0.00  0.00    +0.000 OA
ATOM     17  H   UNL     1      -5.444  44.653  27.359  0.00  0.00    +0.000 HD
ENDBRANCH  15  16
ENDBRANCH  13  15
BRANCH  13  18
ATOM     18  CB  UNL     1      -6.493  46.661  25.576  0.00  0.00    +0.000 C 
ATOM     19  CG  UNL     1      -7.969  46.857  25.211  0.00  0.00    +0.000 C 
BRANCH  19  21
ATOM     20  OE2 UNL     1     -10.152  47.586  25.618  0.00  0.00    +0.000 OA
ATOM     21  CD  UNL     1      -9.352  47.030  24.886  0.00  0.00    +0.000 C 
BRANCH  21  22
ATOM     22  OE1 UNL     1      -9.707  46.503  23.701  0.00  0.00    +0.000 OA
ATOM     23  HE1 UNL     1     -10.643  46.252  23.836  0.00  0.00    +0.000 HD
ENDBRANCH  21  22
ENDBRANCH  19  21
ENDBRANCH  13  18
ENDBRANCH   6  11
ENDBRANCH   1   3
BRANCH   1  24
ATOM     24  C   UNL     1      -0.195  53.413  27.310  0.00  0.00    +0.000 C 
BRANCH  24  31
ATOM     25  O   UNL     1      -1.284  58.170  25.345  0.00  0.00    +0.000 OA
ATOM     26  N   UNL     1      -0.215  55.586  26.137  0.00  0.00    +0.000 N 
ATOM     27  N   UNL     1       2.112  54.850  24.540  0.00  0.00    +0.000 N 
ATOM     28  N   UNL     1       1.870  56.828  23.280  0.00  0.00    +0.000 NA
ATOM     29  N   UNL     1       0.310  58.453  23.803  0.00  0.00    +0.000 N 
ATOM     30  N   UNL     1       1.774  58.768  22.055  0.00  0.00    +0.000 N 
ATOM     31  C   UNL     1       0.315  54.316  26.339  0.00  0.00    +0.000 C 
ATOM     32  C   UNL     1       1.408  54.056  25.498  0.00  0.00    +0.000 C 
ATOM     33  C   UNL     1       0.336  56.399  25.109  0.00  0.00    +0.000 A 
ATOM     34  C   UNL     1       1.414  56.052  24.325  0.00  0.00    +0.000 A 
ATOM     35  C   UNL     1      -0.285  57.727  24.788  0.00  0.00    +0.000 A 
ATOM     36  C   UNL     1       1.330  57.976  23.058  0.00  0.00    +0.000 A 
ATOM     37  H   UNL     1       2.459  54.473  23.663  0.00  0.00    +0.000 HD
ATOM     38  H   UNL     1      -0.140  59.322  23.561  0.00  0.00    +0.000 HD
ATOM     39  H   UNL     1       2.663  58.448  21.679  0.00  0.00    +0.000 HD
ATOM     40  H   UNL     1       1.759  59.766  22.218  0.00  0.00    +0.000 HD
BRANCH  26  42
ATOM     41  O   UNL     1      -2.197  56.350  27.504  0.00  0.00    +0.000 OA
ATOM     42  C   UNL     1      -1.258  55.982  26.900  0.00  0.00    +0.000 C 
ENDBRANCH  26  42
ENDBRANCH  24  31
ENDBRANCH   1  24
TORSDOF 10
ENDMDL
MODEL 4
REMARK VINA RESULT:      -6.2     26.752     28.299
REMARK  Name = 135403648_CalciumFolinate.pdbqt.pdb
REMARK  10 active torsions:
REMARK  status: ('A' for Active; 'I' for Inactive)
REMARK    1  A    between atoms: N_1  and  C_3
REMARK    2  A    between atoms: N_1  and  C_24
REMARK    3  A    between atoms: C_6  and  C_11
REMARK    4  A    between atoms: CA_13  and  C_15
REMARK    5  A    between atoms: CA_13  and  CB_18
REMARK    6  A    between atoms: C_15  and  O_16
REMARK    7  A    between atoms: CG_19  and  CD_21
REMARK    8  A    between atoms: CD_21  and  OE1_22
REMARK    9  A    between atoms: C_24  and  C_32
REMARK   10  A    between atoms: N_27  and  C_37
REMARK                            x       y       z     vdW  Elec       q    Type
REMARK                         _______ _______ _______ _____ _____    ______ ____
ROOT
ATOM      1  N   UNL     1     -10.535  34.087   2.981  0.00  0.00    +0.000 N 
ATOM      2  H   UNL     1     -10.408  33.091   3.159  0.00  0.00    +0.000 HD
ENDROOT
BRANCH   1   3
ATOM      3  C   UNL     1     -11.706  34.590   3.585  0.00  0.00    +0.000 A 
ATOM      4  C   UNL     1     -12.793  34.938   2.777  0.00  0.00    +0.000 A 
ATOM      5  C   UNL     1     -11.760  34.924   4.943  0.00  0.00    +0.000 A 
ATOM      6  C   UNL     1     -13.988  35.820   4.682  0.00  0.00    +0.000 A 
ATOM      7  C   UNL     1     -13.931  35.533   3.320  0.00  0.00    +0.000 A 
ATOM      8  C   UNL     1     -12.894  35.517   5.494  0.00  0.00    +0.000 A 
BRANCH   6  11
ATOM      9  O   UNL     1     -16.083  35.724   5.707  0.00  0.00    +0.000 OA
ATOM     10  N   UNL     1     -15.170  37.828   5.382  0.00  0.00    +0.000 N 
ATOM     11  C   ACE A   0     -15.179  36.448   5.306  0.00  0.00    +0.000 C 
ATOM     12  H   UNL     1     -14.374  38.343   5.016  0.00  0.00    +0.000 HD
ATOM     13  CA  UNL     1     -16.156  38.641   5.913  0.00  0.00    +0.000 C 
BRANCH  13  15
ATOM     14  OXT UNL     1     -16.643  40.946   6.315  0.00  0.00    +0.000 OA
ATOM     15  C   UNL     1     -15.888  40.098   5.862  0.00  0.00    +0.000 C 
BRANCH  15  16
ATOM     16  O   UNL     1     -14.729  40.424   5.270  0.00  0.00    +0.000 OA
ATOM     17  H   UNL     1     -14.700  39.879   4.456  0.00  0.00    +0.000 HD
ENDBRANCH  15  16
ENDBRANCH  13  15
BRANCH  13  18
ATOM     18  CB  UNL     1     -17.351  38.116   6.474  0.00  0.00    +0.000 C 
ATOM     19  CG  UNL     1     -18.646  37.558   7.074  0.00  0.00    +0.000 C 
BRANCH  19  21
ATOM     20  OE2 UNL     1     -20.769  37.759   8.030  0.00  0.00    +0.000 OA
ATOM     21  CD  UNL     1     -19.866  37.049   7.624  0.00  0.00    +0.000 C 
BRANCH  21  22
ATOM     22  OE1 UNL     1     -19.925  35.707   7.678  0.00  0.00    +0.000 OA
ATOM     23  HE1 UNL     1     -20.124  35.452   6.754  0.00  0.00    +0.000 HD
ENDBRANCH  21  22
ENDBRANCH  19  21
ENDBRANCH  13  18
ENDBRANCH   6  11
ENDBRANCH   1   3
BRANCH   1  24
ATOM     24  C   UNL     1      -9.325  34.899   3.017  0.00  0.00    +0.000 C 
BRANCH  24  31
ATOM     25  O   UNL     1      -7.530  39.485   1.166  0.00  0.00    +0.000 OA
ATOM     26  N   UNL     1      -8.069  36.963   2.507  0.00  0.00    +0.000 N 
ATOM     27  N   UNL     1      -5.771  36.059   4.060  0.00  0.00    +0.000 N 
ATOM     28  N   UNL     1      -4.536  37.924   3.316  0.00  0.00    +0.000 NA
ATOM     29  N   UNL     1      -5.477  39.611   2.042  0.00  0.00    +0.000 N 
ATOM     30  N   UNL     1      -3.281  39.753   2.720  0.00  0.00    +0.000 N 
ATOM     31  C   UNL     1      -8.160  35.708   3.099  0.00  0.00    +0.000 C 
ATOM     32  C   UNL     1      -6.989  35.361   3.792  0.00  0.00    +0.000 C 
ATOM     33  C   UNL     1      -6.843  37.677   2.606  0.00  0.00    +0.000 A 
ATOM     34  C   UNL     1      -5.738  37.248   3.309  0.00  0.00    +0.000 A 
ATOM     35  C   UNL     1      -6.672  38.981   1.885  0.00  0.00    +0.000 A 
ATOM     36  C   UNL     1      -4.442  39.057   2.709  0.00  0.00    +0.000 A 
ATOM     37  H   UNL     1      -4.864  35.603   4.052  0.00  0.00    +0.000 HD
ATOM     38  H   UNL     1      -5.353  40.462   1.517  0.00  0.00    +0.000 HD
ATOM     39  H   UNL     1      -2.622  39.389   3.403  0.00  0.00    +0.000 HD
ATOM     40  H   UNL     1      -3.352  40.762   2.749  0.00  0.00    +0.000 HD
BRANCH  26  42
ATOM     41  O   UNL     1     -10.096  37.788   1.247  0.00  0.00    +0.000 OA
ATOM     42  C   UNL     1      -9.136  37.439   1.829  0.00  0.00    +0.000 C 
ENDBRANCH  26  42
ENDBRANCH  24  31
ENDBRANCH   1  24
TORSDOF 10
ENDMDL
MODEL 5
REMARK VINA RESULT:      -6.2     19.392     25.202
REMARK  Name = 135403648_CalciumFolinate.pdbqt.pdb
REMARK  10 active torsions:
REMARK  status: ('A' for Active; 'I' for Inactive)
REMARK    1  A    between atoms: N_1  and  C_3
REMARK    2  A    between atoms: N_1  and  C_24
REMARK    3  A    between atoms: C_6  and  C_11
REMARK    4  A    between atoms: CA_13  and  C_15
REMARK    5  A    between atoms: CA_13  and  CB_18
REMARK    6  A    between atoms: C_15  and  O_16
REMARK    7  A    between atoms: CG_19  and  CD_21
REMARK    8  A    between atoms: CD_21  and  OE1_22
REMARK    9  A    between atoms: C_24  and  C_32
REMARK   10  A    between atoms: N_27  and  C_37
REMARK                            x       y       z     vdW  Elec       q    Type
REMARK                         _______ _______ _______ _____ _____    ______ ____
ROOT
ATOM      1  N   UNL     1     -24.536  43.710  17.361  0.00  0.00    +0.000 N 
ATOM      2  H   UNL     1     -25.318  44.262  17.012  0.00  0.00    +0.000 HD
ENDROOT
BRANCH   1   3
ATOM      3  C   UNL     1     -23.823  44.380  18.378  0.00  0.00    +0.000 A 
ATOM      4  C   UNL     1     -24.307  45.601  18.858  0.00  0.00    +0.000 A 
ATOM      5  C   UNL     1     -22.555  43.962  18.799  0.00  0.00    +0.000 A 
ATOM      6  C   UNL     1     -22.343  45.896  20.230  0.00  0.00    +0.000 A 
ATOM      7  C   UNL     1     -23.584  46.346  19.788  0.00  0.00    +0.000 A 
ATOM      8  C   UNL     1     -21.826  44.701  19.728  0.00  0.00    +0.000 A 
BRANCH   6  11
ATOM      9  O   UNL     1     -21.714  46.431  22.414  0.00  0.00    +0.000 OA
ATOM     10  N   UNL     1     -20.638  47.566  20.706  0.00  0.00    +0.000 N 
ATOM     11  C   ACE A   0     -21.538  46.653  21.222  0.00  0.00    +0.000 C 
ATOM     12  H   UNL     1     -20.567  47.683  19.699  0.00  0.00    +0.000 HD
ATOM     13  CA  UNL     1     -19.783  48.388  21.419  0.00  0.00    +0.000 C 
BRANCH  13  15
ATOM     14  OXT UNL     1     -19.347  50.051  19.759  0.00  0.00    +0.000 OA
ATOM     15  C   UNL     1     -18.921  49.281  20.607  0.00  0.00    +0.000 C 
BRANCH  15  16
ATOM     16  O   UNL     1     -17.611  49.180  20.880  0.00  0.00    +0.000 OA
ATOM     17  H   UNL     1     -17.203  49.958  20.446  0.00  0.00    +0.000 HD
ENDBRANCH  15  16
ENDBRANCH  13  15
BRANCH  13  18
ATOM     18  CB  UNL     1     -19.729  48.378  22.838  0.00  0.00    +0.000 C 
ATOM     19  CG  UNL     1     -19.677  48.379  24.370  0.00  0.00    +0.000 C 
BRANCH  19  21
ATOM     20  OE2 UNL     1     -18.682  48.791  26.444  0.00  0.00    +0.000 OA
ATOM     21  CD  UNL     1     -19.638  48.395  25.801  0.00  0.00    +0.000 C 
BRANCH  21  22
ATOM     22  OE1 UNL     1     -20.749  47.912  26.385  0.00  0.00    +0.000 OA
ATOM     23  HE1 UNL     1     -21.137  48.699  26.818  0.00  0.00    +0.000 HD
ENDBRANCH  21  22
ENDBRANCH  19  21
ENDBRANCH  13  18
ENDBRANCH   6  11
ENDBRANCH   1   3
BRANCH   1  24
ATOM     24  C   UNL     1     -24.780  42.280  17.506  0.00  0.00    +0.000 C 
BRANCH  24  31
ATOM     25  O   UNL     1     -24.975  38.787  21.435  0.00  0.00    +0.000 OA
ATOM     26  N   UNL     1     -25.066  40.302  18.956  0.00  0.00    +0.000 N 
ATOM     27  N   UNL     1     -25.568  38.575  16.659  0.00  0.00    +0.000 N 
ATOM     28  N   UNL     1     -25.562  36.691  18.077  0.00  0.00    +0.000 NA
ATOM     29  N   UNL     1     -25.416  36.866  20.378  0.00  0.00    +0.000 N 
ATOM     30  N   UNL     1     -25.665  34.805  19.383  0.00  0.00    +0.000 N 
ATOM     31  C   UNL     1     -25.012  40.891  17.698  0.00  0.00    +0.000 C 
ATOM     32  C   UNL     1     -25.236  39.966  16.666  0.00  0.00    +0.000 C 
ATOM     33  C   UNL     1     -25.257  38.895  19.043  0.00  0.00    +0.000 A 
ATOM     34  C   UNL     1     -25.464  38.062  17.965  0.00  0.00    +0.000 A 
ATOM     35  C   UNL     1     -25.206  38.211  20.377  0.00  0.00    +0.000 A 
ATOM     36  C   UNL     1     -25.546  36.146  19.244  0.00  0.00    +0.000 A 
ATOM     37  H   UNL     1     -25.182  37.922  15.984  0.00  0.00    +0.000 HD
ATOM     38  H   UNL     1     -25.333  36.407  21.271  0.00  0.00    +0.000 HD
ATOM     39  H   UNL     1     -25.966  34.355  18.523  0.00  0.00    +0.000 HD
ATOM     40  H   UNL     1     -26.171  34.472  20.193  0.00  0.00    +0.000 HD
BRANCH  26  42
ATOM     41  O   UNL     1     -24.783  41.813  20.960  0.00  0.00    +0.000 OA
ATOM     42  C   UNL     1     -24.895  41.082  20.046  0.00  0.00    +0.000 C 
ENDBRANCH  26  42
ENDBRANCH  24  31
ENDBRANCH   1  24
TORSDOF 10
ENDMDL
MODEL 6
REMARK VINA RESULT:      -6.1     21.102     23.440
REMARK  Name = 135403648_CalciumFolinate.pdbqt.pdb
REMARK  10 active torsions:
REMARK  status: ('A' for Active; 'I' for Inactive)
REMARK    1  A    between atoms: N_1  and  C_3
REMARK    2  A    between atoms: N_1  and  C_24
REMARK    3  A    between atoms: C_6  and  C_11
REMARK    4  A    between atoms: CA_13  and  C_15
REMARK    5  A    between atoms: CA_13  and  CB_18
REMARK    6  A    between atoms: C_15  and  O_16
REMARK    7  A    between atoms: CG_19  and  CD_21
REMARK    8  A    between atoms: CD_21  and  OE1_22
REMARK    9  A    between atoms: C_24  and  C_32
REMARK   10  A    between atoms: N_27  and  C_37
REMARK                            x       y       z     vdW  Elec       q    Type
REMARK                         _______ _______ _______ _____ _____    ______ ____
ROOT
ATOM      1  N   UNL     1     -21.460  52.208  15.188  0.00  0.00    +0.000 N 
ATOM      2  H   UNL     1     -22.286  52.603  14.740  0.00  0.00    +0.000 HD
ENDROOT
BRANCH   1   3
ATOM      3  C   UNL     1     -21.779  51.123  16.032  0.00  0.00    +0.000 A 
ATOM      4  C   UNL     1     -22.929  50.372  15.770  0.00  0.00    +0.000 A 
ATOM      5  C   UNL     1     -21.089  50.879  17.225  0.00  0.00    +0.000 A 
ATOM      6  C   UNL     1     -22.615  49.096  17.796  0.00  0.00    +0.000 A 
ATOM      7  C   UNL     1     -23.336  49.356  16.634  0.00  0.00    +0.000 A 
ATOM      8  C   UNL     1     -21.490  49.866  18.093  0.00  0.00    +0.000 A 
BRANCH   6  11
ATOM      9  O   UNL     1     -24.201  47.817  18.937  0.00  0.00    +0.000 OA
ATOM     10  N   UNL     1     -21.972  47.334  19.346  0.00  0.00    +0.000 N 
ATOM     11  C   ACE A   0     -23.008  48.024  18.744  0.00  0.00    +0.000 C 
ATOM     12  H   UNL     1     -21.011  47.583  19.125  0.00  0.00    +0.000 HD
ATOM     13  CA  UNL     1     -22.079  46.300  20.261  0.00  0.00    +0.000 C 
BRANCH  13  15
ATOM     14  OXT UNL     1     -20.062  46.313  21.543  0.00  0.00    +0.000 OA
ATOM     15  C   UNL     1     -20.797  45.740  20.752  0.00  0.00    +0.000 C 
BRANCH  15  16
ATOM     16  O   UNL     1     -20.498  44.530  20.255  0.00  0.00    +0.000 OA
ATOM     17  H   UNL     1     -19.519  44.491  20.261  0.00  0.00    +0.000 HD
ENDBRANCH  15  16
ENDBRANCH  13  15
BRANCH  13  18
ATOM     18  CB  UNL     1     -23.334  45.805  20.702  0.00  0.00    +0.000 C 
ATOM     19  CG  UNL     1     -24.694  45.274  21.168  0.00  0.00    +0.000 C 
BRANCH  19  21
ATOM     20  OE2 UNL     1     -26.119  43.926  22.440  0.00  0.00    +0.000 OA
ATOM     21  CD  UNL     1     -25.972  44.784  21.587  0.00  0.00    +0.000 C 
BRANCH  21  22
ATOM     22  OE1 UNL     1     -27.012  45.339  20.939  0.00  0.00    +0.000 OA
ATOM     23  HE1 UNL     1     -27.088  44.797  20.128  0.00  0.00    +0.000 HD
ENDBRANCH  21  22
ENDBRANCH  19  21
ENDBRANCH  13  18
ENDBRANCH   6  11
ENDBRANCH   1   3
BRANCH   1  24
ATOM     24  C   UNL     1     -20.266  52.119  14.356  0.00  0.00    +0.000 C 
BRANCH  24  31
ATOM     25  O   UNL     1     -18.892  52.222   9.278  0.00  0.00    +0.000 OA
ATOM     26  N   UNL     1     -19.106  52.158  12.177  0.00  0.00    +0.000 N 
ATOM     27  N   UNL     1     -16.534  51.591  13.432  0.00  0.00    +0.000 N 
ATOM     28  N   UNL     1     -15.544  51.379  11.303  0.00  0.00    +0.000 NA
ATOM     29  N   UNL     1     -16.691  51.833   9.346  0.00  0.00    +0.000 N 
ATOM     30  N   UNL     1     -14.467  51.240   9.278  0.00  0.00    +0.000 N 
ATOM     31  C   UNL     1     -19.100  51.982  13.556  0.00  0.00    +0.000 C 
ATOM     32  C   UNL     1     -17.820  51.682  14.049  0.00  0.00    +0.000 C 
ATOM     33  C   UNL     1     -17.895  51.953  11.458  0.00  0.00    +0.000 A 
ATOM     34  C   UNL     1     -16.680  51.654  12.034  0.00  0.00    +0.000 A 
ATOM     35  C   UNL     1     -17.891  52.023   9.960  0.00  0.00    +0.000 A 
ATOM     36  C   UNL     1     -15.575  51.481  10.019  0.00  0.00    +0.000 A 
ATOM     37  H   UNL     1     -15.849  50.887  13.691  0.00  0.00    +0.000 HD
ATOM     38  H   UNL     1     -16.704  51.834   8.339  0.00  0.00    +0.000 HD
ATOM     39  H   UNL     1     -13.628  51.189   9.850  0.00  0.00    +0.000 HD
ATOM     40  H   UNL     1     -14.339  51.805   8.449  0.00  0.00    +0.000 HD
BRANCH  26  42
ATOM     41  O   UNL     1     -21.295  52.801  11.095  0.00  0.00    +0.000 OA
ATOM     42  C   UNL     1     -20.269  52.479  11.569  0.00  0.00    +0.000 C 
ENDBRANCH  26  42
ENDBRANCH  24  31
ENDBRANCH   1  24
TORSDOF 10
ENDMDL
MODEL 7
REMARK VINA RESULT:      -5.9     26.576     28.576
REMARK  Name = 135403648_CalciumFolinate.pdbqt.pdb
REMARK  10 active torsions:
REMARK  status: ('A' for Active; 'I' for Inactive)
REMARK    1  A    between atoms: N_1  and  C_3
REMARK    2  A    between atoms: N_1  and  C_24
REMARK    3  A    between atoms: C_6  and  C_11
REMARK    4  A    between atoms: CA_13  and  C_15
REMARK    5  A    between atoms: CA_13  and  CB_18
REMARK    6  A    between atoms: C_15  and  O_16
REMARK    7  A    between atoms: CG_19  and  CD_21
REMARK    8  A    between atoms: CD_21  and  OE1_22
REMARK    9  A    between atoms: C_24  and  C_32
REMARK   10  A    between atoms: N_27  and  C_37
REMARK                            x       y       z     vdW  Elec       q    Type
REMARK                         _______ _______ _______ _____ _____    ______ ____
ROOT
ATOM      1  N   UNL     1     -10.199  35.177   1.618  0.00  0.00    +0.000 N 
ATOM      2  H   UNL     1     -10.056  34.227   1.277  0.00  0.00    +0.000 HD
ENDROOT
BRANCH   1   3
ATOM      3  C   UNL     1     -11.345  35.283   2.435  0.00  0.00    +0.000 A 
ATOM      4  C   UNL     1     -11.227  35.044   3.807  0.00  0.00    +0.000 A 
ATOM      5  C   UNL     1     -12.629  35.442   1.900  0.00  0.00    +0.000 A 
ATOM      6  C   UNL     1     -13.617  35.241   4.095  0.00  0.00    +0.000 A 
ATOM      7  C   UNL     1     -12.349  35.039   4.635  0.00  0.00    +0.000 A 
ATOM      8  C   UNL     1     -13.755  35.438   2.721  0.00  0.00    +0.000 A 
BRANCH   6  11
ATOM      9  O   UNL     1     -15.357  34.176   5.230  0.00  0.00    +0.000 OA
ATOM     10  N   UNL     1     -15.304  36.490   5.326  0.00  0.00    +0.000 N 
ATOM     11  C   ACE A   0     -14.839  35.248   4.937  0.00  0.00    +0.000 C 
ATOM     12  H   UNL     1     -14.807  37.325   5.027  0.00  0.00    +0.000 HD
ATOM     13  CA  UNL     1     -16.417  36.758   6.103  0.00  0.00    +0.000 C 
BRANCH  13  15
ATOM     14  OXT UNL     1     -15.858  39.079   6.232  0.00  0.00    +0.000 OA
ATOM     15  C   UNL     1     -16.690  38.192   6.366  0.00  0.00    +0.000 C 
BRANCH  15  16
ATOM     16  O   UNL     1     -17.943  38.450   6.769  0.00  0.00    +0.000 OA
ATOM     17  H   UNL     1     -18.477  37.704   6.423  0.00  0.00    +0.000 HD
ENDBRANCH  15  16
ENDBRANCH  13  15
BRANCH  13  18
ATOM     18  CB  UNL     1     -17.247  35.729   6.620  0.00  0.00    +0.000 C 
ATOM     19  CG  UNL     1     -18.138  34.618   7.188  0.00  0.00    +0.000 C 
BRANCH  19  21
ATOM     20  OE2 UNL     1     -19.961  33.156   7.185  0.00  0.00    +0.000 OA
ATOM     21  CD  UNL     1     -18.963  33.585   7.736  0.00  0.00    +0.000 C 
BRANCH  21  22
ATOM     22  OE1 UNL     1     -18.552  33.133   8.935  0.00  0.00    +0.000 OA
ATOM     23  HE1 UNL     1     -17.815  32.531   8.709  0.00  0.00    +0.000 HD
ENDBRANCH  21  22
ENDBRANCH  19  21
ENDBRANCH  13  18
ENDBRANCH   6  11
ENDBRANCH   1   3
BRANCH   1  24
ATOM     24  C   UNL     1      -8.995  35.903   2.005  0.00  0.00    +0.000 C 
BRANCH  24  31
ATOM     25  O   UNL     1      -6.590  40.467   0.972  0.00  0.00    +0.000 OA
ATOM     26  N   UNL     1      -7.521  37.882   1.921  0.00  0.00    +0.000 N 
ATOM     27  N   UNL     1      -5.561  36.609   3.667  0.00  0.00    +0.000 N 
ATOM     28  N   UNL     1      -4.086  38.417   3.327  0.00  0.00    +0.000 NA
ATOM     29  N   UNL     1      -4.690  40.308   2.139  0.00  0.00    +0.000 N 
ATOM     30  N   UNL     1      -2.617  40.172   3.132  0.00  0.00    +0.000 N 
ATOM     31  C   UNL     1      -7.797  36.586   2.344  0.00  0.00    +0.000 C 
ATOM     32  C   UNL     1      -6.775  36.060   3.150  0.00  0.00    +0.000 C 
ATOM     33  C   UNL     1      -6.272  38.463   2.275  0.00  0.00    +0.000 A 
ATOM     34  C   UNL     1      -5.322  37.862   3.072  0.00  0.00    +0.000 A 
ATOM     35  C   UNL     1      -5.893  39.813   1.741  0.00  0.00    +0.000 A 
ATOM     36  C   UNL     1      -3.814  39.593   2.876  0.00  0.00    +0.000 A 
ATOM     37  H   UNL     1      -4.700  36.074   3.735  0.00  0.00    +0.000 HD
ATOM     38  H   UNL     1      -4.422  41.193   1.739  0.00  0.00    +0.000 HD
ATOM     39  H   UNL     1      -2.099  39.679   3.854  0.00  0.00    +0.000 HD
ATOM     40  H   UNL     1      -2.613  41.174   3.268  0.00  0.00    +0.000 HD
BRANCH  26  42
ATOM     41  O   UNL     1      -9.273  39.075   0.550  0.00  0.00    +0.000 OA
ATOM     42  C   UNL     1      -8.433  38.523   1.159  0.00  0.00    +0.000 C 
ENDBRANCH  26  42
ENDBRANCH  24  31
ENDBRANCH   1  24
TORSDOF 10
ENDMDL
MODEL 8
REMARK VINA RESULT:      -5.9     29.327     31.221
REMARK  Name = 135403648_CalciumFolinate.pdbqt.pdb
REMARK  10 active torsions:
REMARK  status: ('A' for Active; 'I' for Inactive)
REMARK    1  A    between atoms: N_1  and  C_3
REMARK    2  A    between atoms: N_1  and  C_24
REMARK    3  A    between atoms: C_6  and  C_11
REMARK    4  A    between atoms: CA_13  and  C_15
REMARK    5  A    between atoms: CA_13  and  CB_18
REMARK    6  A    between atoms: C_15  and  O_16
REMARK    7  A    between atoms: CG_19  and  CD_21
REMARK    8  A    between atoms: CD_21  and  OE1_22
REMARK    9  A    between atoms: C_24  and  C_32
REMARK   10  A    between atoms: N_27  and  C_37
REMARK                            x       y       z     vdW  Elec       q    Type
REMARK                         _______ _______ _______ _____ _____    ______ ____
ROOT
ATOM      1  N   UNL     1     -17.651  34.854   5.962  0.00  0.00    +0.000 N 
ATOM      2  H   UNL     1     -16.760  34.428   6.214  0.00  0.00    +0.000 HD
ENDROOT
BRANCH   1   3
ATOM      3  C   UNL     1     -18.730  34.298   6.682  0.00  0.00    +0.000 A 
ATOM      4  C   UNL     1     -18.464  33.509   7.805  0.00  0.00    +0.000 A 
ATOM      5  C   UNL     1     -20.047  34.357   6.214  0.00  0.00    +0.000 A 
ATOM      6  C   UNL     1     -20.804  32.961   8.033  0.00  0.00    +0.000 A 
ATOM      7  C   UNL     1     -19.492  32.858   8.486  0.00  0.00    +0.000 A 
ATOM      8  C   UNL     1     -21.080  33.710   6.889  0.00  0.00    +0.000 A 
BRANCH   6  11
ATOM      9  O   UNL     1     -21.986  31.065   8.713  0.00  0.00    +0.000 OA
ATOM     10  N   UNL     1     -22.849  33.120   9.344  0.00  0.00    +0.000 N 
ATOM     11  C   ACE A   0     -21.932  32.289   8.727  0.00  0.00    +0.000 C 
ATOM     12  H   UNL     1     -22.721  34.128   9.296  0.00  0.00    +0.000 HD
ATOM     13  CA  UNL     1     -23.978  32.739  10.047  0.00  0.00    +0.000 C 
BRANCH  13  15
ATOM     14  OXT UNL     1     -25.998  33.958  10.430  0.00  0.00    +0.000 OA
ATOM     15  C   UNL     1     -24.794  33.846  10.604  0.00  0.00    +0.000 C 
BRANCH  15  16
ATOM     16  O   UNL     1     -24.096  34.732  11.331  0.00  0.00    +0.000 OA
ATOM     17  H   UNL     1     -24.431  35.608  11.048  0.00  0.00    +0.000 HD
ENDBRANCH  15  16
ENDBRANCH  13  15
BRANCH  13  18
ATOM     18  CB  UNL     1     -24.336  31.377  10.227  0.00  0.00    +0.000 C 
ATOM     19  CG  UNL     1     -24.727  29.909  10.432  0.00  0.00    +0.000 C 
BRANCH  19  21
ATOM     20  OE2 UNL     1     -25.957  28.191  11.430  0.00  0.00    +0.000 OA
ATOM     21  CD  UNL     1     -25.098  28.543  10.641  0.00  0.00    +0.000 C 
BRANCH  21  22
ATOM     22  OE1 UNL     1     -24.397  27.665   9.901  0.00  0.00    +0.000 OA
ATOM     23  HE1 UNL     1     -25.074  27.272   9.314  0.00  0.00    +0.000 HD
ENDBRANCH  21  22
ENDBRANCH  19  21
ENDBRANCH  13  18
ENDBRANCH   6  11
ENDBRANCH   1   3
BRANCH   1  24
ATOM     24  C   UNL     1     -17.628  36.295   5.739  0.00  0.00    +0.000 C 
BRANCH  24  31
ATOM     25  O   UNL     1     -20.585  40.480   6.930  0.00  0.00    +0.000 OA
ATOM     26  N   UNL     1     -18.595  38.542   6.073  0.00  0.00    +0.000 N 
ATOM     27  N   UNL     1     -16.541  39.775   4.409  0.00  0.00    +0.000 N 
ATOM     28  N   UNL     1     -17.668  41.841   4.553  0.00  0.00    +0.000 NA
ATOM     29  N   UNL     1     -19.526  42.154   5.893  0.00  0.00    +0.000 N 
ATOM     30  N   UNL     1     -18.641  43.916   4.705  0.00  0.00    +0.000 N 
ATOM     31  C   UNL     1     -17.652  37.695   5.501  0.00  0.00    +0.000 C 
ATOM     32  C   UNL     1     -16.734  38.388   4.697  0.00  0.00    +0.000 C 
ATOM     33  C   UNL     1     -18.565  39.924   5.737  0.00  0.00    +0.000 A 
ATOM     34  C   UNL     1     -17.620  40.515   4.927  0.00  0.00    +0.000 A 
ATOM     35  C   UNL     1     -19.634  40.844   6.245  0.00  0.00    +0.000 A 
ATOM     36  C   UNL     1     -18.585  42.605   5.037  0.00  0.00    +0.000 A 
ATOM     37  H   UNL     1     -16.281  40.114   3.488  0.00  0.00    +0.000 HD
ATOM     38  H   UNL     1     -20.274  42.757   6.198  0.00  0.00    +0.000 HD
ATOM     39  H   UNL     1     -17.795  44.229   4.236  0.00  0.00    +0.000 HD
ATOM     40  H   UNL     1     -18.945  44.558   5.425  0.00  0.00    +0.000 HD
BRANCH  26  42
ATOM     41  O   UNL     1     -20.314  37.487   7.593  0.00  0.00    +0.000 OA
ATOM     42  C   UNL     1     -19.527  38.013   6.896  0.00  0.00    +0.000 C 
ENDBRANCH  26  42
ENDBRANCH  24  31
ENDBRANCH   1  24
TORSDOF 10
ENDMDL
MODEL 9
REMARK VINA RESULT:      -5.8     23.243     23.961
REMARK  Name = 135403648_CalciumFolinate.pdbqt.pdb
REMARK  10 active torsions:
REMARK  status: ('A' for Active; 'I' for Inactive)
REMARK    1  A    between atoms: N_1  and  C_3
REMARK    2  A    between atoms: N_1  and  C_24
REMARK    3  A    between atoms: C_6  and  C_11
REMARK    4  A    between atoms: CA_13  and  C_15
REMARK    5  A    between atoms: CA_13  and  CB_18
REMARK    6  A    between atoms: C_15  and  O_16
REMARK    7  A    between atoms: CG_19  and  CD_21
REMARK    8  A    between atoms: CD_21  and  OE1_22
REMARK    9  A    between atoms: C_24  and  C_32
REMARK   10  A    between atoms: N_27  and  C_37
REMARK                            x       y       z     vdW  Elec       q    Type
REMARK                         _______ _______ _______ _____ _____    ______ ____
ROOT
ATOM      1  N   UNL     1       9.008  43.275   6.808  0.00  0.00    +0.000 N 
ATOM      2  H   UNL     1       9.474  42.668   7.481  0.00  0.00    +0.000 HD
ENDROOT
BRANCH   1   3
ATOM      3  C   UNL     1       7.973  42.609   6.118  0.00  0.00    +0.000 A 
ATOM      4  C   UNL     1       6.968  43.363   5.505  0.00  0.00    +0.000 A 
ATOM      5  C   UNL     1       7.813  41.219   6.176  0.00  0.00    +0.000 A 
ATOM      6  C   UNL     1       5.750  41.359   4.928  0.00  0.00    +0.000 A 
ATOM      7  C   UNL     1       5.873  42.745   4.900  0.00  0.00    +0.000 A 
ATOM      8  C   UNL     1       6.723  40.595   5.574  0.00  0.00    +0.000 A 
BRANCH   6  11
ATOM      9  O   UNL     1       3.570  41.282   4.094  0.00  0.00    +0.000 OA
ATOM     10  N   UNL     1       4.806  39.326   3.980  0.00  0.00    +0.000 N 
ATOM     11  C   ACE A   0       4.605  40.656   4.295  0.00  0.00    +0.000 C 
ATOM     12  H   UNL     1       5.702  38.892   4.191  0.00  0.00    +0.000 HD
ATOM     13  CA  UNL     1       3.900  38.462   3.391  0.00  0.00    +0.000 C 
BRANCH  13  15
ATOM     14  OXT UNL     1       5.486  36.803   2.724  0.00  0.00    +0.000 OA
ATOM     15  C   UNL     1       4.380  37.077   3.168  0.00  0.00    +0.000 C 
BRANCH  15  16
ATOM     16  O   UNL     1       3.492  36.126   3.498  0.00  0.00    +0.000 OA
ATOM     17  H   UNL     1       2.905  36.049   2.717  0.00  0.00    +0.000 HD
ENDBRANCH  15  16
ENDBRANCH  13  15
BRANCH  13  18
ATOM     18  CB  UNL     1       2.592  38.873   3.020  0.00  0.00    +0.000 C 
ATOM     19  CG  UNL     1       1.181  39.326   2.627  0.00  0.00    +0.000 C 
BRANCH  19  21
ATOM     20  OE2 UNL     1      -0.867  40.380   3.021  0.00  0.00    +0.000 OA
ATOM     21  CD  UNL     1      -0.133  39.766   2.268  0.00  0.00    +0.000 C 
BRANCH  21  22
ATOM     22  OE1 UNL     1      -0.505  39.422   1.022  0.00  0.00    +0.000 OA
ATOM     23  HE1 UNL     1       0.217  39.775   0.465  0.00  0.00    +0.000 HD
ENDBRANCH  21  22
ENDBRANCH  19  21
ENDBRANCH  13  18
ENDBRANCH   6  11
ENDBRANCH   1   3
BRANCH   1  24
ATOM     24  C   UNL     1       8.790  44.652   7.235  0.00  0.00    +0.000 C 
BRANCH  24  31
ATOM     25  O   UNL     1      10.803  48.321  10.423  0.00  0.00    +0.000 OA
ATOM     26  N   UNL     1       9.375  46.707   8.471  0.00  0.00    +0.000 N 
ATOM     27  N   UNL     1       7.091  48.139   7.358  0.00  0.00    +0.000 N 
ATOM     28  N   UNL     1       7.554  49.971   8.768  0.00  0.00    +0.000 NA
ATOM     29  N   UNL     1       9.432  50.060  10.115  0.00  0.00    +0.000 N 
ATOM     30  N   UNL     1       7.974  51.840  10.034  0.00  0.00    +0.000 N 
ATOM     31  C   UNL     1       8.540  45.998   7.615  0.00  0.00    +0.000 C 
ATOM     32  C   UNL     1       7.459  46.771   7.165  0.00  0.00    +0.000 C 
ATOM     33  C   UNL     1       9.015  48.036   8.829  0.00  0.00    +0.000 A 
ATOM     34  C   UNL     1       7.922  48.714   8.336  0.00  0.00    +0.000 A 
ATOM     35  C   UNL     1       9.830  48.789   9.838  0.00  0.00    +0.000 A 
ATOM     36  C   UNL     1       8.299  50.596   9.612  0.00  0.00    +0.000 A 
ATOM     37  H   UNL     1       6.128  48.436   7.484  0.00  0.00    +0.000 HD
ATOM     38  H   UNL     1       9.955  50.543  10.828  0.00  0.00    +0.000 HD
ATOM     39  H   UNL     1       7.241  52.258   9.467  0.00  0.00    +0.000 HD
ATOM     40  H   UNL     1       8.739  52.478  10.211  0.00  0.00    +0.000 HD
BRANCH  26  42
ATOM     41  O   UNL     1      11.390  45.503   9.402  0.00  0.00    +0.000 OA
ATOM     42  C   UNL     1      10.475  46.094   8.960  0.00  0.00    +0.000 C 
ENDBRANCH  26  42
ENDBRANCH  24  31
ENDBRANCH   1  24
TORSDOF 10
ENDMDL
