MODEL 1
REMARK VINA RESULT:      -8.4      0.000      0.000
REMARK  Name = 14132199_RiccardinD.pdbqt.pdb
REMARK  3 active torsions:
REMARK  status: ('A' for Active; 'I' for Inactive)
REMARK    1  A    between atoms: C_11  and  O_30
REMARK    2  A    between atoms: C_16  and  O_32
REMARK    3  A    between atoms: C_28  and  O_34
REMARK                            x       y       z     vdW  Elec       q    Type
REMARK                         _______ _______ _______ _____ _____    ______ ____
ROOT
ATOM      1  O   UNL     1      -8.438  46.862  26.312  0.00  0.00    +0.000 OA
ATOM      2  C   UNL     1      -1.631  46.164  27.551  0.00  0.00    +0.000 C 
ATOM      3  C   UNL     1      -0.325  46.578  27.978  0.00  0.00    +0.000 A 
ATOM      4  C   UNL     1      -0.074  47.901  28.426  0.00  0.00    +0.000 A 
ATOM      5  C   UNL     1      -3.088  45.876  27.154  0.00  0.00    +0.000 C 
ATOM      6  C   UNL     1      -4.760  50.986  27.987  0.00  0.00    +0.000 C 
ATOM      7  C   UNL     1      -1.125  48.941  28.347  0.00  0.00    +0.000 A 
ATOM      8  C   UNL     1      -3.397  50.587  28.107  0.00  0.00    +0.000 A 
ATOM      9  C   UNL     1      -6.264  50.908  27.715  0.00  0.00    +0.000 C 
ATOM     10  C   UNL     1      -4.480  45.816  26.851  0.00  0.00    +0.000 A 
ATOM     11  C   UNL     1      -1.711  49.540  29.472  0.00  0.00    +0.000 A 
ATOM     12  C   UNL     1      -7.493  50.296  27.344  0.00  0.00    +0.000 A 
ATOM     13  C   UNL     1      -1.639  49.289  27.091  0.00  0.00    +0.000 A 
ATOM     14  C   UNL     1      -2.851  50.340  29.363  0.00  0.00    +0.000 A 
ATOM     15  C   UNL     1      -2.767  50.094  26.967  0.00  0.00    +0.000 A 
ATOM     16  C   UNL     1       1.214  48.171  28.924  0.00  0.00    +0.000 A 
ATOM     17  C   UNL     1       0.683  45.612  27.987  0.00  0.00    +0.000 A 
ATOM     18  C   UNL     1       2.223  47.209  28.913  0.00  0.00    +0.000 A 
ATOM     19  C   UNL     1       1.960  45.930  28.435  0.00  0.00    +0.000 A 
ATOM     20  C   UNL     1      -7.409  48.945  27.027  0.00  0.00    +0.000 A 
ATOM     21  C   UNL     1      -4.926  46.187  25.582  0.00  0.00    +0.000 A 
ATOM     22  C   UNL     1      -5.397  45.596  27.880  0.00  0.00    +0.000 A 
ATOM     23  C   UNL     1      -8.520  48.207  26.632  0.00  0.00    +0.000 A 
ATOM     24  C   UNL     1      -8.716  50.947  27.274  0.00  0.00    +0.000 A 
ATOM     25  C   UNL     1      -7.174  46.314  26.429  0.00  0.00    +0.000 A 
ATOM     26  C   UNL     1      -6.280  46.427  25.362  0.00  0.00    +0.000 A 
ATOM     27  C   UNL     1      -6.753  45.835  27.670  0.00  0.00    +0.000 A 
ATOM     28  C   UNL     1      -9.745  48.860  26.562  0.00  0.00    +0.000 A 
ATOM     29  C   UNL     1      -9.846  50.219  26.880  0.00  0.00    +0.000 A 
ENDROOT
BRANCH  11  30
ATOM     30  O   UNL     1      -1.164  49.324  30.710  0.00  0.00    +0.000 OA
ATOM     31  H   UNL     1      -0.475  48.638  30.622  0.00  0.00    +0.000 HD
ENDBRANCH  11  30
BRANCH  16  32
ATOM     32  O   UNL     1       1.548  49.384  29.467  0.00  0.00    +0.000 OA
ATOM     33  H   UNL     1       0.843  50.009  29.214  0.00  0.00    +0.000 HD
ENDBRANCH  16  32
BRANCH  28  34
ATOM     34  O   UNL     1     -10.880  48.202  26.184  0.00  0.00    +0.000 OA
ATOM     35  H   UNL     1     -10.849  47.315  26.586  0.00  0.00    +0.000 HD
ENDBRANCH  28  34
TORSDOF 3
ENDMDL
MODEL 2
REMARK VINA RESULT:      -7.7      1.906      3.005
REMARK  Name = 14132199_RiccardinD.pdbqt.pdb
REMARK  3 active torsions:
REMARK  status: ('A' for Active; 'I' for Inactive)
REMARK    1  A    between atoms: C_11  and  O_30
REMARK    2  A    between atoms: C_16  and  O_32
REMARK    3  A    between atoms: C_28  and  O_34
REMARK                            x       y       z     vdW  Elec       q    Type
REMARK                         _______ _______ _______ _____ _____    ______ ____
ROOT
ATOM      1  O   UNL     1      -5.104  45.943  26.432  0.00  0.00    +0.000 OA
ATOM      2  C   UNL     1       1.278  47.654  28.601  0.00  0.00    +0.000 C 
ATOM      3  C   UNL     1       2.299  48.514  29.127  0.00  0.00    +0.000 A 
ATOM      4  C   UNL     1       2.046  49.881  29.413  0.00  0.00    +0.000 A 
ATOM      5  C   UNL     1       0.071  46.865  28.070  0.00  0.00    +0.000 C 
ATOM      6  C   UNL     1      -3.231  51.189  27.959  0.00  0.00    +0.000 C 
ATOM      7  C   UNL     1       0.751  50.502  29.057  0.00  0.00    +0.000 A 
ATOM      8  C   UNL     1      -1.851  51.275  28.305  0.00  0.00    +0.000 A 
ATOM      9  C   UNL     1      -4.568  50.592  27.514  0.00  0.00    +0.000 C 
ATOM     10  C   UNL     1      -1.163  46.320  27.605  0.00  0.00    +0.000 A 
ATOM     11  C   UNL     1      -0.170  50.976  30.004  0.00  0.00    +0.000 A 
ATOM     12  C   UNL     1      -5.465  49.577  27.081  0.00  0.00    +0.000 A 
ATOM     13  C   UNL     1       0.367  50.544  27.709  0.00  0.00    +0.000 A 
ATOM     14  C   UNL     1      -1.469  51.339  29.641  0.00  0.00    +0.000 A 
ATOM     15  C   UNL     1      -0.920  50.916  27.333  0.00  0.00    +0.000 A 
ATOM     16  C   UNL     1       3.084  50.607  30.026  0.00  0.00    +0.000 A 
ATOM     17  C   UNL     1       3.544  47.941  29.399  0.00  0.00    +0.000 A 
ATOM     18  C   UNL     1       4.331  50.035  30.277  0.00  0.00    +0.000 A 
ATOM     19  C   UNL     1       4.564  48.704  29.954  0.00  0.00    +0.000 A 
ATOM     20  C   UNL     1      -4.911  48.306  26.970  0.00  0.00    +0.000 A 
ATOM     21  C   UNL     1      -1.487  46.405  26.250  0.00  0.00    +0.000 A 
ATOM     22  C   UNL     1      -2.120  45.906  28.532  0.00  0.00    +0.000 A 
ATOM     23  C   UNL     1      -5.654  47.210  26.547  0.00  0.00    +0.000 A 
ATOM     24  C   UNL     1      -6.801  49.777  26.767  0.00  0.00    +0.000 A 
ATOM     25  C   UNL     1      -3.769  45.858  26.782  0.00  0.00    +0.000 A 
ATOM     26  C   UNL     1      -2.793  46.162  25.831  0.00  0.00    +0.000 A 
ATOM     27  C   UNL     1      -3.429  45.661  28.121  0.00  0.00    +0.000 A 
ATOM     28  C   UNL     1      -6.993  47.411  26.232  0.00  0.00    +0.000 A 
ATOM     29  C   UNL     1      -7.566  48.684  26.341  0.00  0.00    +0.000 A 
ENDROOT
BRANCH  11  30
ATOM     30  O   UNL     1       0.205  51.067  31.318  0.00  0.00    +0.000 OA
ATOM     31  H   UNL     1      -0.584  50.908  31.871  0.00  0.00    +0.000 HD
ENDBRANCH  11  30
BRANCH  16  32
ATOM     32  O   UNL     1       2.928  51.907  30.430  0.00  0.00    +0.000 OA
ATOM     33  H   UNL     1       2.350  51.889  31.216  0.00  0.00    +0.000 HD
ENDBRANCH  16  32
BRANCH  28  34
ATOM     34  O   UNL     1      -7.786  46.382  25.810  0.00  0.00    +0.000 OA
ATOM     35  H   UNL     1      -8.308  46.709  25.055  0.00  0.00    +0.000 HD
ENDBRANCH  28  34
TORSDOF 3
ENDMDL
MODEL 3
REMARK VINA RESULT:      -7.5     26.602     28.904
REMARK  Name = 14132199_RiccardinD.pdbqt.pdb
REMARK  3 active torsions:
REMARK  status: ('A' for Active; 'I' for Inactive)
REMARK    1  A    between atoms: C_11  and  O_30
REMARK    2  A    between atoms: C_16  and  O_32
REMARK    3  A    between atoms: C_28  and  O_34
REMARK                            x       y       z     vdW  Elec       q    Type
REMARK                         _______ _______ _______ _____ _____    ______ ____
ROOT
ATOM      1  O   UNL     1     -22.038  34.569   6.893  0.00  0.00    +0.000 OA
ATOM      2  C   UNL     1     -19.075  40.704   5.495  0.00  0.00    +0.000 C 
ATOM      3  C   UNL     1     -18.014  41.594   5.120  0.00  0.00    +0.000 A 
ATOM      4  C   UNL     1     -16.699  41.121   4.872  0.00  0.00    +0.000 A 
ATOM      5  C   UNL     1     -20.100  39.618   5.859  0.00  0.00    +0.000 C 
ATOM      6  C   UNL     1     -16.455  35.578   5.814  0.00  0.00    +0.000 C 
ATOM      7  C   UNL     1     -16.344  39.705   5.115  0.00  0.00    +0.000 A 
ATOM      8  C   UNL     1     -16.100  36.945   5.621  0.00  0.00    +0.000 A 
ATOM      9  C   UNL     1     -17.309  34.338   6.087  0.00  0.00    +0.000 C 
ATOM     10  C   UNL     1     -20.886  38.467   6.164  0.00  0.00    +0.000 A 
ATOM     11  C   UNL     1     -15.984  38.808   4.099  0.00  0.00    +0.000 A 
ATOM     12  C   UNL     1     -18.493  33.607   6.375  0.00  0.00    +0.000 A 
ATOM     13  C   UNL     1     -16.459  39.193   6.415  0.00  0.00    +0.000 A 
ATOM     14  C   UNL     1     -15.883  37.436   4.338  0.00  0.00    +0.000 A 
ATOM     15  C   UNL     1     -16.348  37.829   6.669  0.00  0.00    +0.000 A 
ATOM     16  C   UNL     1     -15.761  42.061   4.407  0.00  0.00    +0.000 A 
ATOM     17  C   UNL     1     -18.336  42.943   4.957  0.00  0.00    +0.000 A 
ATOM     18  C   UNL     1     -16.083  43.411   4.264  0.00  0.00    +0.000 A 
ATOM     19  C   UNL     1     -17.369  43.854   4.548  0.00  0.00    +0.000 A 
ATOM     20  C   UNL     1     -19.649  34.372   6.487  0.00  0.00    +0.000 A 
ATOM     21  C   UNL     1     -20.948  38.004   7.479  0.00  0.00    +0.000 A 
ATOM     22  C   UNL     1     -21.405  37.696   5.123  0.00  0.00    +0.000 A 
ATOM     23  C   UNL     1     -20.885  33.808   6.778  0.00  0.00    +0.000 A 
ATOM     24  C   UNL     1     -18.557  32.233   6.554  0.00  0.00    +0.000 A 
ATOM     25  C   UNL     1     -21.860  35.925   6.683  0.00  0.00    +0.000 A 
ATOM     26  C   UNL     1     -21.447  36.731   7.746  0.00  0.00    +0.000 A 
ATOM     27  C   UNL     1     -21.906  36.422   5.381  0.00  0.00    +0.000 A 
ATOM     28  C   UNL     1     -20.948  32.431   6.957  0.00  0.00    +0.000 A 
ATOM     29  C   UNL     1     -19.795  31.646   6.846  0.00  0.00    +0.000 A 
ENDROOT
BRANCH  11  30
ATOM     30  O   UNL     1     -15.743  39.285   2.837  0.00  0.00    +0.000 OA
ATOM     31  H   UNL     1     -14.821  39.064   2.600  0.00  0.00    +0.000 HD
ENDBRANCH  11  30
BRANCH  16  32
ATOM     32  O   UNL     1     -14.488  41.707   4.047  0.00  0.00    +0.000 OA
ATOM     33  H   UNL     1     -14.098  42.480   3.596  0.00  0.00    +0.000 HD
ENDBRANCH  16  32
BRANCH  28  34
ATOM     34  O   UNL     1     -22.127  31.805   7.245  0.00  0.00    +0.000 OA
ATOM     35  H   UNL     1     -22.832  32.476   7.197  0.00  0.00    +0.000 HD
ENDBRANCH  28  34
TORSDOF 3
ENDMDL
MODEL 4
REMARK VINA RESULT:      -6.7     26.559     29.555
REMARK  Name = 14132199_RiccardinD.pdbqt.pdb
REMARK  3 active torsions:
REMARK  status: ('A' for Active; 'I' for Inactive)
REMARK    1  A    between atoms: C_11  and  O_30
REMARK    2  A    between atoms: C_16  and  O_32
REMARK    3  A    between atoms: C_28  and  O_34
REMARK                            x       y       z     vdW  Elec       q    Type
REMARK                         _______ _______ _______ _____ _____    ______ ____
ROOT
ATOM      1  O   UNL     1     -14.983  32.667   3.475  0.00  0.00    +0.000 OA
ATOM      2  C   UNL     1     -20.084  37.300   4.409  0.00  0.00    +0.000 C 
ATOM      3  C   UNL     1     -20.666  38.547   4.815  0.00  0.00    +0.000 A 
ATOM      4  C   UNL     1     -19.897  39.555   5.451  0.00  0.00    +0.000 A 
ATOM      5  C   UNL     1     -19.303  36.036   4.014  0.00  0.00    +0.000 C 
ATOM      6  C   UNL     1     -14.628  37.735   6.221  0.00  0.00    +0.000 C 
ATOM      7  C   UNL     1     -18.490  39.305   5.837  0.00  0.00    +0.000 A 
ATOM      8  C   UNL     1     -15.847  38.467   6.326  0.00  0.00    +0.000 A 
ATOM      9  C   UNL     1     -13.648  36.615   5.862  0.00  0.00    +0.000 C 
ATOM     10  C   UNL     1     -18.401  34.969   3.726  0.00  0.00    +0.000 A 
ATOM     11  C   UNL     1     -17.397  39.974   5.265  0.00  0.00    +0.000 A 
ATOM     12  C   UNL     1     -13.233  35.371   5.314  0.00  0.00    +0.000 A 
ATOM     13  C   UNL     1     -18.211  38.283   6.755  0.00  0.00    +0.000 A 
ATOM     14  C   UNL     1     -16.085  39.549   5.485  0.00  0.00    +0.000 A 
ATOM     15  C   UNL     1     -16.907  37.859   6.993  0.00  0.00    +0.000 A 
ATOM     16  C   UNL     1     -20.540  40.780   5.709  0.00  0.00    +0.000 A 
ATOM     17  C   UNL     1     -22.014  38.754   4.511  0.00  0.00    +0.000 A 
ATOM     18  C   UNL     1     -21.891  40.975   5.422  0.00  0.00    +0.000 A 
ATOM     19  C   UNL     1     -22.631  39.958   4.830  0.00  0.00    +0.000 A 
ATOM     20  C   UNL     1     -14.231  34.640   4.680  0.00  0.00    +0.000 A 
ATOM     21  C   UNL     1     -18.160  33.990   4.690  0.00  0.00    +0.000 A 
ATOM     22  C   UNL     1     -17.610  35.033   2.577  0.00  0.00    +0.000 A 
ATOM     23  C   UNL     1     -13.988  33.398   4.105  0.00  0.00    +0.000 A 
ATOM     24  C   UNL     1     -11.945  34.861   5.384  0.00  0.00    +0.000 A 
ATOM     25  C   UNL     1     -16.224  33.275   3.454  0.00  0.00    +0.000 A 
ATOM     26  C   UNL     1     -17.074  33.129   4.552  0.00  0.00    +0.000 A 
ATOM     27  C   UNL     1     -16.522  34.176   2.431  0.00  0.00    +0.000 A 
ATOM     28  C   UNL     1     -12.697  32.889   4.175  0.00  0.00    +0.000 A 
ATOM     29  C   UNL     1     -11.680  33.612   4.809  0.00  0.00    +0.000 A 
ENDROOT
BRANCH  11  30
ATOM     30  O   UNL     1     -17.621  41.057   4.456  0.00  0.00    +0.000 OA
ATOM     31  H   UNL     1     -18.282  40.802   3.784  0.00  0.00    +0.000 HD
ENDBRANCH  11  30
BRANCH  16  32
ATOM     32  O   UNL     1     -19.878  41.857   6.237  0.00  0.00    +0.000 OA
ATOM     33  H   UNL     1     -20.283  42.037   7.107  0.00  0.00    +0.000 HD
ENDBRANCH  16  32
BRANCH  28  34
ATOM     34  O   UNL     1     -12.381  31.675   3.633  0.00  0.00    +0.000 OA
ATOM     35  H   UNL     1     -12.861  30.996   4.141  0.00  0.00    +0.000 HD
ENDBRANCH  28  34
TORSDOF 3
ENDMDL
MODEL 5
REMARK VINA RESULT:      -6.7     24.729     26.099
REMARK  Name = 14132199_RiccardinD.pdbqt.pdb
REMARK  3 active torsions:
REMARK  status: ('A' for Active; 'I' for Inactive)
REMARK    1  A    between atoms: C_11  and  O_30
REMARK    2  A    between atoms: C_16  and  O_32
REMARK    3  A    between atoms: C_28  and  O_34
REMARK                            x       y       z     vdW  Elec       q    Type
REMARK                         _______ _______ _______ _____ _____    ______ ____
ROOT
ATOM      1  O   UNL     1     -22.884  29.513  24.165  0.00  0.00    +0.000 OA
ATOM      2  C   UNL     1     -16.590  26.572  23.851  0.00  0.00    +0.000 C 
ATOM      3  C   UNL     1     -15.404  26.074  23.215  0.00  0.00    +0.000 A 
ATOM      4  C   UNL     1     -15.260  26.076  21.804  0.00  0.00    +0.000 A 
ATOM      5  C   UNL     1     -17.909  27.165  24.373  0.00  0.00    +0.000 C 
ATOM      6  C   UNL     1     -19.965  28.026  19.409  0.00  0.00    +0.000 C 
ATOM      7  C   UNL     1     -16.384  26.475  20.928  0.00  0.00    +0.000 A 
ATOM      8  C   UNL     1     -18.715  27.376  19.629  0.00  0.00    +0.000 A 
ATOM      9  C   UNL     1     -21.301  28.712  19.702  0.00  0.00    +0.000 C 
ATOM     10  C   UNL     1     -19.177  27.758  24.645  0.00  0.00    +0.000 A 
ATOM     11  C   UNL     1     -16.369  27.619  20.116  0.00  0.00    +0.000 A 
ATOM     12  C   UNL     1     -22.348  29.240  20.505  0.00  0.00    +0.000 A 
ATOM     13  C   UNL     1     -17.572  25.731  20.970  0.00  0.00    +0.000 A 
ATOM     14  C   UNL     1     -17.526  28.084  19.488  0.00  0.00    +0.000 A 
ATOM     15  C   UNL     1     -18.729  26.177  20.338  0.00  0.00    +0.000 A 
ATOM     16  C   UNL     1     -14.016  25.666  21.289  0.00  0.00    +0.000 A 
ATOM     17  C   UNL     1     -14.369  25.633  24.043  0.00  0.00    +0.000 A 
ATOM     18  C   UNL     1     -12.993  25.209  22.119  0.00  0.00    +0.000 A 
ATOM     19  C   UNL     1     -13.173  25.183  23.497  0.00  0.00    +0.000 A 
ATOM     20  C   UNL     1     -22.146  29.148  21.878  0.00  0.00    +0.000 A 
ATOM     21  C   UNL     1     -20.322  26.960  24.661  0.00  0.00    +0.000 A 
ATOM     22  C   UNL     1     -19.290  29.149  24.677  0.00  0.00    +0.000 A 
ATOM     23  C   UNL     1     -23.082  29.607  22.797  0.00  0.00    +0.000 A 
ATOM     24  C   UNL     1     -23.516  29.808  20.017  0.00  0.00    +0.000 A 
ATOM     25  C   UNL     1     -21.681  28.941  24.538  0.00  0.00    +0.000 A 
ATOM     26  C   UNL     1     -21.583  27.551  24.619  0.00  0.00    +0.000 A 
ATOM     27  C   UNL     1     -20.547  29.748  24.635  0.00  0.00    +0.000 A 
ATOM     28  C   UNL     1     -24.252  30.176  22.307  0.00  0.00    +0.000 A 
ATOM     29  C   UNL     1     -24.471  30.278  20.928  0.00  0.00    +0.000 A 
ENDROOT
BRANCH  11  30
ATOM     30  O   UNL     1     -15.197  28.309  19.949  0.00  0.00    +0.000 OA
ATOM     31  H   UNL     1     -14.547  27.707  19.538  0.00  0.00    +0.000 HD
ENDBRANCH  11  30
BRANCH  16  32
ATOM     32  O   UNL     1     -13.728  25.710  19.951  0.00  0.00    +0.000 OA
ATOM     33  H   UNL     1     -12.932  26.267  19.853  0.00  0.00    +0.000 HD
ENDBRANCH  16  32
BRANCH  28  34
ATOM     34  O   UNL     1     -25.219  30.649  23.148  0.00  0.00    +0.000 OA
ATOM     35  H   UNL     1     -25.720  29.881  23.476  0.00  0.00    +0.000 HD
ENDBRANCH  28  34
TORSDOF 3
ENDMDL
MODEL 6
REMARK VINA RESULT:      -6.5     26.246     29.513
REMARK  Name = 14132199_RiccardinD.pdbqt.pdb
REMARK  3 active torsions:
REMARK  status: ('A' for Active; 'I' for Inactive)
REMARK    1  A    between atoms: C_11  and  O_30
REMARK    2  A    between atoms: C_16  and  O_32
REMARK    3  A    between atoms: C_28  and  O_34
REMARK                            x       y       z     vdW  Elec       q    Type
REMARK                         _______ _______ _______ _____ _____    ______ ____
ROOT
ATOM      1  O   UNL     1     -15.241  34.571   1.861  0.00  0.00    +0.000 OA
ATOM      2  C   UNL     1     -19.210  40.221   2.695  0.00  0.00    +0.000 C 
ATOM      3  C   UNL     1     -19.650  41.435   3.319  0.00  0.00    +0.000 A 
ATOM      4  C   UNL     1     -19.049  41.920   4.509  0.00  0.00    +0.000 A 
ATOM      5  C   UNL     1     -18.604  38.921   2.140  0.00  0.00    +0.000 C 
ATOM      6  C   UNL     1     -15.109  38.305   6.265  0.00  0.00    +0.000 C 
ATOM      7  C   UNL     1     -18.028  41.121   5.222  0.00  0.00    +0.000 A 
ATOM      8  C   UNL     1     -16.081  39.347   6.220  0.00  0.00    +0.000 A 
ATOM      9  C   UNL     1     -14.315  37.060   5.863  0.00  0.00    +0.000 C 
ATOM     10  C   UNL     1     -17.898  37.731   1.793  0.00  0.00    +0.000 A 
ATOM     11  C   UNL     1     -16.686  41.511   5.352  0.00  0.00    +0.000 A 
ATOM     12  C   UNL     1     -13.960  35.941   5.061  0.00  0.00    +0.000 A 
ATOM     13  C   UNL     1     -18.383  39.859   5.721  0.00  0.00    +0.000 A 
ATOM     14  C   UNL     1     -15.712  40.629   5.825  0.00  0.00    +0.000 A 
ATOM     15  C   UNL     1     -17.423  38.976   6.206  0.00  0.00    +0.000 A 
ATOM     16  C   UNL     1     -19.482  43.174   4.977  0.00  0.00    +0.000 A 
ATOM     17  C   UNL     1     -20.663  42.155   2.680  0.00  0.00    +0.000 A 
ATOM     18  C   UNL     1     -20.507  43.879   4.346  0.00  0.00    +0.000 A 
ATOM     19  C   UNL     1     -21.104  43.364   3.202  0.00  0.00    +0.000 A 
ATOM     20  C   UNL     1     -14.709  35.784   3.900  0.00  0.00    +0.000 A 
ATOM     21  C   UNL     1     -18.299  36.509   2.334  0.00  0.00    +0.000 A 
ATOM     22  C   UNL     1     -16.694  37.829   1.095  0.00  0.00    +0.000 A 
ATOM     23  C   UNL     1     -14.494  34.732   3.017  0.00  0.00    +0.000 A 
ATOM     24  C   UNL     1     -12.959  35.031   5.364  0.00  0.00    +0.000 A 
ATOM     25  C   UNL     1     -16.203  35.543   1.654  0.00  0.00    +0.000 A 
ATOM     26  C   UNL     1     -17.455  35.403   2.257  0.00  0.00    +0.000 A 
ATOM     27  C   UNL     1     -15.844  36.728   1.013  0.00  0.00    +0.000 A 
ATOM     28  C   UNL     1     -13.490  33.820   3.322  0.00  0.00    +0.000 A 
ATOM     29  C   UNL     1     -12.726  33.966   4.485  0.00  0.00    +0.000 A 
ENDROOT
BRANCH  11  30
ATOM     30  O   UNL     1     -16.318  42.779   4.989  0.00  0.00    +0.000 OA
ATOM     31  H   UNL     1     -16.952  43.406   5.388  0.00  0.00    +0.000 HD
ENDBRANCH  11  30
BRANCH  16  32
ATOM     32  O   UNL     1     -18.914  43.786   6.063  0.00  0.00    +0.000 OA
ATOM     33  H   UNL     1     -18.263  44.425   5.717  0.00  0.00    +0.000 HD
ENDBRANCH  16  32
BRANCH  28  34
ATOM     34  O   UNL     1     -13.219  32.761   2.502  0.00  0.00    +0.000 OA
ATOM     35  H   UNL     1     -13.852  32.054   2.723  0.00  0.00    +0.000 HD
ENDBRANCH  28  34
TORSDOF 3
ENDMDL
MODEL 7
REMARK VINA RESULT:      -6.4     26.969     29.636
REMARK  Name = 14132199_RiccardinD.pdbqt.pdb
REMARK  3 active torsions:
REMARK  status: ('A' for Active; 'I' for Inactive)
REMARK    1  A    between atoms: C_11  and  O_30
REMARK    2  A    between atoms: C_16  and  O_32
REMARK    3  A    between atoms: C_28  and  O_34
REMARK                            x       y       z     vdW  Elec       q    Type
REMARK                         _______ _______ _______ _____ _____    ______ ____
ROOT
ATOM      1  O   UNL     1     -15.755  41.644  -0.892  0.00  0.00    +0.000 OA
ATOM      2  C   UNL     1     -19.150  37.795   3.801  0.00  0.00    +0.000 C 
ATOM      3  C   UNL     1     -19.759  37.504   5.068  0.00  0.00    +0.000 A 
ATOM      4  C   UNL     1     -19.723  38.432   6.140  0.00  0.00    +0.000 A 
ATOM      5  C   UNL     1     -18.475  38.271   2.505  0.00  0.00    +0.000 C 
ATOM      6  C   UNL     1     -16.757  42.973   4.638  0.00  0.00    +0.000 C 
ATOM      7  C   UNL     1     -18.943  39.685   6.033  0.00  0.00    +0.000 A 
ATOM      8  C   UNL     1     -17.425  41.972   5.403  0.00  0.00    +0.000 A 
ATOM      9  C   UNL     1     -16.097  43.673   3.448  0.00  0.00    +0.000 C 
ATOM     10  C   UNL     1     -17.813  38.902   1.410  0.00  0.00    +0.000 A 
ATOM     11  C   UNL     1     -19.523  40.963   6.019  0.00  0.00    +0.000 A 
ATOM     12  C   UNL     1     -15.636  43.818   2.111  0.00  0.00    +0.000 A 
ATOM     13  C   UNL     1     -17.557  39.605   5.841  0.00  0.00    +0.000 A 
ATOM     14  C   UNL     1     -18.781  42.098   5.686  0.00  0.00    +0.000 A 
ATOM     15  C   UNL     1     -16.804  40.731   5.520  0.00  0.00    +0.000 A 
ATOM     16  C   UNL     1     -20.443  38.093   7.301  0.00  0.00    +0.000 A 
ATOM     17  C   UNL     1     -20.437  36.289   5.189  0.00  0.00    +0.000 A 
ATOM     18  C   UNL     1     -21.103  36.870   7.424  0.00  0.00    +0.000 A 
ATOM     19  C   UNL     1     -21.092  35.964   6.371  0.00  0.00    +0.000 A 
ATOM     20  C   UNL     1     -15.897  42.738   1.275  0.00  0.00    +0.000 A 
ATOM     21  C   UNL     1     -16.428  38.791   1.284  0.00  0.00    +0.000 A 
ATOM     22  C   UNL     1     -18.522  39.796   0.605  0.00  0.00    +0.000 A 
ATOM     23  C   UNL     1     -15.499  42.720  -0.057  0.00  0.00    +0.000 A 
ATOM     24  C   UNL     1     -14.960  44.923   1.618  0.00  0.00    +0.000 A 
ATOM     25  C   UNL     1     -16.445  40.602  -0.299  0.00  0.00    +0.000 A 
ATOM     26  C   UNL     1     -15.737  39.635   0.418  0.00  0.00    +0.000 A 
ATOM     27  C   UNL     1     -17.839  40.645  -0.263  0.00  0.00    +0.000 A 
ATOM     28  C   UNL     1     -14.821  43.829  -0.550  0.00  0.00    +0.000 A 
ATOM     29  C   UNL     1     -14.552  44.924   0.278  0.00  0.00    +0.000 A 
ENDROOT
BRANCH  11  30
ATOM     30  O   UNL     1     -20.852  41.101   6.322  0.00  0.00    +0.000 OA
ATOM     31  H   UNL     1     -21.227  41.787   5.737  0.00  0.00    +0.000 HD
ENDBRANCH  11  30
BRANCH  16  32
ATOM     32  O   UNL     1     -20.557  38.946   8.366  0.00  0.00    +0.000 OA
ATOM     33  H   UNL     1     -20.810  38.402   9.136  0.00  0.00    +0.000 HD
ENDBRANCH  16  32
BRANCH  28  34
ATOM     34  O   UNL     1     -14.399  43.885  -1.848  0.00  0.00    +0.000 OA
ATOM     35  H   UNL     1     -13.440  43.710  -1.849  0.00  0.00    +0.000 HD
ENDBRANCH  28  34
TORSDOF 3
ENDMDL
MODEL 8
REMARK VINA RESULT:      -6.4     26.015     28.452
REMARK  Name = 14132199_RiccardinD.pdbqt.pdb
REMARK  3 active torsions:
REMARK  status: ('A' for Active; 'I' for Inactive)
REMARK    1  A    between atoms: C_11  and  O_30
REMARK    2  A    between atoms: C_16  and  O_32
REMARK    3  A    between atoms: C_28  and  O_34
REMARK                            x       y       z     vdW  Elec       q    Type
REMARK                         _______ _______ _______ _____ _____    ______ ____
ROOT
ATOM      1  O   UNL     1     -23.167  28.682  23.103  0.00  0.00    +0.000 OA
ATOM      2  C   UNL     1     -22.831  28.727  16.157  0.00  0.00    +0.000 C 
ATOM      3  C   UNL     1     -22.208  28.587  14.872  0.00  0.00    +0.000 A 
ATOM      4  C   UNL     1     -20.827  28.285  14.744  0.00  0.00    +0.000 A 
ATOM      5  C   UNL     1     -23.347  28.817  17.602  0.00  0.00    +0.000 C 
ATOM      6  C   UNL     1     -18.449  28.025  19.837  0.00  0.00    +0.000 C 
ATOM      7  C   UNL     1     -19.949  28.231  15.934  0.00  0.00    +0.000 A 
ATOM      8  C   UNL     1     -18.651  28.141  18.431  0.00  0.00    +0.000 A 
ATOM      9  C   UNL     1     -18.753  27.998  21.337  0.00  0.00    +0.000 C 
ATOM     10  C   UNL     1     -23.620  28.843  19.002  0.00  0.00    +0.000 A 
ATOM     11  C   UNL     1     -19.330  27.058  16.390  0.00  0.00    +0.000 A 
ATOM     12  C   UNL     1     -19.555  28.084  22.508  0.00  0.00    +0.000 A 
ATOM     13  C   UNL     1     -19.792  29.386  16.712  0.00  0.00    +0.000 A 
ATOM     14  C   UNL     1     -18.704  27.000  17.637  0.00  0.00    +0.000 A 
ATOM     15  C   UNL     1     -19.160  29.345  17.951  0.00  0.00    +0.000 A 
ATOM     16  C   UNL     1     -20.342  28.062  13.442  0.00  0.00    +0.000 A 
ATOM     17  C   UNL     1     -23.026  28.706  13.746  0.00  0.00    +0.000 A 
ATOM     18  C   UNL     1     -21.158  28.202  12.320  0.00  0.00    +0.000 A 
ATOM     19  C   UNL     1     -22.499  28.533  12.472  0.00  0.00    +0.000 A 
ATOM     20  C   UNL     1     -20.907  28.320  22.283  0.00  0.00    +0.000 A 
ATOM     21  C   UNL     1     -23.432  30.026  19.719  0.00  0.00    +0.000 A 
ATOM     22  C   UNL     1     -23.862  27.645  19.675  0.00  0.00    +0.000 A 
ATOM     23  C   UNL     1     -21.820  28.444  23.324  0.00  0.00    +0.000 A 
ATOM     24  C   UNL     1     -19.083  27.963  23.806  0.00  0.00    +0.000 A 
ATOM     25  C   UNL     1     -23.528  28.774  21.771  0.00  0.00    +0.000 A 
ATOM     26  C   UNL     1     -23.397  29.997  21.111  0.00  0.00    +0.000 A 
ATOM     27  C   UNL     1     -23.828  27.608  21.067  0.00  0.00    +0.000 A 
ATOM     28  C   UNL     1     -21.346  28.322  24.625  0.00  0.00    +0.000 A 
ATOM     29  C   UNL     1     -19.989  28.082  24.868  0.00  0.00    +0.000 A 
ENDROOT
BRANCH  11  30
ATOM     30  O   UNL     1     -19.354  25.936  15.604  0.00  0.00    +0.000 OA
ATOM     31  H   UNL     1     -18.432  25.656  15.446  0.00  0.00    +0.000 HD
ENDBRANCH  11  30
BRANCH  16  32
ATOM     32  O   UNL     1     -19.050  27.677  13.199  0.00  0.00    +0.000 OA
ATOM     33  H   UNL     1     -19.061  26.707  13.090  0.00  0.00    +0.000 HD
ENDBRANCH  16  32
BRANCH  28  34
ATOM     34  O   UNL     1     -22.183  28.431  25.700  0.00  0.00    +0.000 OA
ATOM     35  H   UNL     1     -21.843  29.151  26.260  0.00  0.00    +0.000 HD
ENDBRANCH  28  34
TORSDOF 3
ENDMDL
MODEL 9
REMARK VINA RESULT:      -6.2     26.488     28.855
REMARK  Name = 14132199_RiccardinD.pdbqt.pdb
REMARK  3 active torsions:
REMARK  status: ('A' for Active; 'I' for Inactive)
REMARK    1  A    between atoms: C_11  and  O_30
REMARK    2  A    between atoms: C_16  and  O_32
REMARK    3  A    between atoms: C_28  and  O_34
REMARK                            x       y       z     vdW  Elec       q    Type
REMARK                         _______ _______ _______ _____ _____    ______ ____
ROOT
ATOM      1  O   UNL     1      -0.784  37.502   0.924  0.00  0.00    +0.000 OA
ATOM      2  C   UNL     1      -6.392  33.714   2.523  0.00  0.00    +0.000 C 
ATOM      3  C   UNL     1      -7.757  33.485   2.904  0.00  0.00    +0.000 A 
ATOM      4  C   UNL     1      -8.637  34.558   3.198  0.00  0.00    +0.000 A 
ATOM      5  C   UNL     1      -4.973  34.131   2.105  0.00  0.00    +0.000 C 
ATOM      6  C   UNL     1      -5.871  39.446   2.844  0.00  0.00    +0.000 C 
ATOM      7  C   UNL     1      -8.143  35.952   3.246  0.00  0.00    +0.000 A 
ATOM      8  C   UNL     1      -6.836  38.446   3.159  0.00  0.00    +0.000 A 
ATOM      9  C   UNL     1      -4.556  40.086   2.393  0.00  0.00    +0.000 C 
ATOM     10  C   UNL     1      -3.730  34.725   1.735  0.00  0.00    +0.000 A 
ATOM     11  C   UNL     1      -8.537  36.949   2.341  0.00  0.00    +0.000 A 
ATOM     12  C   UNL     1      -3.217  40.119   1.917  0.00  0.00    +0.000 A 
ATOM     13  C   UNL     1      -7.157  36.289   4.185  0.00  0.00    +0.000 A 
ATOM     14  C   UNL     1      -7.879  38.179   2.277  0.00  0.00    +0.000 A 
ATOM     15  C   UNL     1      -6.502  37.516   4.140  0.00  0.00    +0.000 A 
ATOM     16  C   UNL     1      -9.981  34.228   3.454  0.00  0.00    +0.000 A 
ATOM     17  C   UNL     1      -8.204  32.162   2.924  0.00  0.00    +0.000 A 
ATOM     18  C   UNL     1     -10.417  32.904   3.492  0.00  0.00    +0.000 A 
ATOM     19  C   UNL     1      -9.526  31.870   3.236  0.00  0.00    +0.000 A 
ATOM     20  C   UNL     1      -2.654  38.877   1.648  0.00  0.00    +0.000 A 
ATOM     21  C   UNL     1      -2.797  35.044   2.722  0.00  0.00    +0.000 A 
ATOM     22  C   UNL     1      -3.550  35.176   0.426  0.00  0.00    +0.000 A 
ATOM     23  C   UNL     1      -1.348  38.739   1.189  0.00  0.00    +0.000 A 
ATOM     24  C   UNL     1      -2.469  41.271   1.725  0.00  0.00    +0.000 A 
ATOM     25  C   UNL     1      -1.623  36.424   1.139  0.00  0.00    +0.000 A 
ATOM     26  C   UNL     1      -1.730  35.889   2.424  0.00  0.00    +0.000 A 
ATOM     27  C   UNL     1      -2.486  36.021   0.120  0.00  0.00    +0.000 A 
ATOM     28  C   UNL     1      -0.600  39.895   0.997  0.00  0.00    +0.000 A 
ATOM     29  C   UNL     1      -1.153  41.153   1.261  0.00  0.00    +0.000 A 
ENDROOT
BRANCH  11  30
ATOM     30  O   UNL     1      -9.579  36.705   1.486  0.00  0.00    +0.000 OA
ATOM     31  H   UNL     1      -9.597  35.748   1.293  0.00  0.00    +0.000 HD
ENDBRANCH  11  30
BRANCH  16  32
ATOM     32  O   UNL     1     -10.941  35.183   3.662  0.00  0.00    +0.000 OA
ATOM     33  H   UNL     1     -11.544  34.831   4.344  0.00  0.00    +0.000 HD
ENDBRANCH  16  32
BRANCH  28  34
ATOM     34  O   UNL     1       0.689  39.840   0.548  0.00  0.00    +0.000 OA
ATOM     35  H   UNL     1       0.665  39.483  -0.359  0.00  0.00    +0.000 HD
ENDBRANCH  28  34
TORSDOF 3
ENDMDL
