MODEL 1
REMARK VINA RESULT:      -4.5      0.000      0.000
REMARK  Name = 146026348_FluorouracilMononitrate.pdbqt.pdb
REMARK  2 active torsions:
REMARK  status: ('A' for Active; 'I' for Inactive)
REMARK    1  A    between atoms: N_4  and  O_10
REMARK    2  A    between atoms: O_10  and  N_13
REMARK                            x       y       z     vdW  Elec       q    Type
REMARK                         _______ _______ _______ _____ _____    ______ ____
ROOT
ATOM      1  F   UNL     1       7.931  40.816   5.275  0.00  0.00    +0.000 F 
ATOM      2  O   UNL     1       7.180  39.450   7.594  0.00  0.00    +0.000 OA
ATOM      3  O   UNL     1       9.727  42.554   9.994  0.00  0.00    +0.000 OA
ATOM      4  N   UNL     1       8.569  40.881   8.819  0.00  0.00    +0.000 N 
ATOM      5  N   UNL     1       8.446  41.095   6.482  0.00  0.00    +0.000 N 
ATOM      6  C   UNL     1       7.989  40.373   7.623  0.00  0.00    +0.000 A 
ATOM      7  C   UNL     1       9.357  42.024   8.958  0.00  0.00    +0.000 A 
ATOM      8  C   UNL     1       9.669  42.582   7.663  0.00  0.00    +0.000 A 
ATOM      9  C   UNL     1       9.261  42.158   6.625  0.00  0.00    +0.000 A 
ENDROOT
BRANCH   4  10
ATOM     10  O   UNL     1       8.111  40.294  10.013  0.00  0.00    +0.000 OA
BRANCH  10  13
ATOM     11  O   UNL     1       9.941  38.988   9.961  0.00  0.00    +0.000 OA
ATOM     12  O   UNL     1       8.103  38.340  11.058  0.00  0.00    +0.000 OA
ATOM     13  N   UNL     1       8.782  39.099  10.371  0.00  0.00    +0.000 N 
ENDBRANCH  10  13
ENDBRANCH   4  10
TORSDOF 2
ENDMDL
MODEL 2
REMARK VINA RESULT:      -4.2     11.896     13.306
REMARK  Name = 146026348_FluorouracilMononitrate.pdbqt.pdb
REMARK  2 active torsions:
REMARK  status: ('A' for Active; 'I' for Inactive)
REMARK    1  A    between atoms: N_4  and  O_10
REMARK    2  A    between atoms: O_10  and  N_13
REMARK                            x       y       z     vdW  Elec       q    Type
REMARK                         _______ _______ _______ _____ _____    ______ ____
ROOT
ATOM      1  F   UNL     1      -3.767  41.672  -0.808  0.00  0.00    +0.000 F 
ATOM      2  O   UNL     1      -1.500  41.916   0.808  0.00  0.00    +0.000 OA
ATOM      3  O   UNL     1      -3.627  39.076   3.856  0.00  0.00    +0.000 OA
ATOM      4  N   UNL     1      -2.589  40.630   2.433  0.00  0.00    +0.000 N 
ATOM      5  N   UNL     1      -3.703  41.172   0.435  0.00  0.00    +0.000 N 
ATOM      6  C   UNL     1      -2.500  41.312   1.187  0.00  0.00    +0.000 A 
ATOM      7  C   UNL     1      -3.614  39.785   2.863  0.00  0.00    +0.000 A 
ATOM      8  C   UNL     1      -4.709  39.802   1.922  0.00  0.00    +0.000 A 
ATOM      9  C   UNL     1      -4.712  40.406   0.894  0.00  0.00    +0.000 A 
ENDROOT
BRANCH   4  10
ATOM     10  O   UNL     1      -1.417  40.630   3.210  0.00  0.00    +0.000 OA
BRANCH  10  13
ATOM     11  O   UNL     1      -0.728  38.593   2.550  0.00  0.00    +0.000 OA
ATOM     12  O   UNL     1       0.679  40.332   2.555  0.00  0.00    +0.000 OA
ATOM     13  N   UNL     1      -0.399  39.769   2.731  0.00  0.00    +0.000 N 
ENDBRANCH  10  13
ENDBRANCH   4  10
TORSDOF 2
ENDMDL
MODEL 3
REMARK VINA RESULT:      -4.0     14.471     15.079
REMARK  Name = 146026348_FluorouracilMononitrate.pdbqt.pdb
REMARK  2 active torsions:
REMARK  status: ('A' for Active; 'I' for Inactive)
REMARK    1  A    between atoms: N_4  and  O_10
REMARK    2  A    between atoms: O_10  and  N_13
REMARK                            x       y       z     vdW  Elec       q    Type
REMARK                         _______ _______ _______ _____ _____    ______ ____
ROOT
ATOM      1  F   UNL     1       0.989  28.642   8.373  0.00  0.00    +0.000 F 
ATOM      2  O   UNL     1      -0.706  29.316  10.489  0.00  0.00    +0.000 OA
ATOM      3  O   UNL     1       2.769  28.109  13.379  0.00  0.00    +0.000 OA
ATOM      4  N   UNL     1       0.944  28.573  11.974  0.00  0.00    +0.000 N 
ATOM      5  N   UNL     1       1.301  28.407   9.656  0.00  0.00    +0.000 N 
ATOM      6  C   UNL     1       0.395  28.807  10.682  0.00  0.00    +0.000 A 
ATOM      7  C   UNL     1       2.243  28.162  12.279  0.00  0.00    +0.000 A 
ATOM      8  C   UNL     1       2.964  27.831  11.072  0.00  0.00    +0.000 A 
ATOM      9  C   UNL     1       2.529  27.949   9.967  0.00  0.00    +0.000 A 
ENDROOT
BRANCH   4  10
ATOM     10  O   UNL     1       0.165  29.020  13.056  0.00  0.00    +0.000 OA
BRANCH  10  13
ATOM     11  O   UNL     1      -0.085  28.021  15.055  0.00  0.00    +0.000 OA
ATOM     12  O   UNL     1      -1.068  27.186  13.227  0.00  0.00    +0.000 OA
ATOM     13  N   UNL     1      -0.373  27.982  13.856  0.00  0.00    +0.000 N 
ENDBRANCH  10  13
ENDBRANCH   4  10
TORSDOF 2
ENDMDL
MODEL 4
REMARK VINA RESULT:      -3.9     14.987     16.241
REMARK  Name = 146026348_FluorouracilMononitrate.pdbqt.pdb
REMARK  2 active torsions:
REMARK  status: ('A' for Active; 'I' for Inactive)
REMARK    1  A    between atoms: N_4  and  O_10
REMARK    2  A    between atoms: O_10  and  N_13
REMARK                            x       y       z     vdW  Elec       q    Type
REMARK                         _______ _______ _______ _____ _____    ______ ____
ROOT
ATOM      1  F   UNL     1      -7.468  40.079  -0.017  0.00  0.00    +0.000 F 
ATOM      2  O   UNL     1      -8.326  38.594   2.189  0.00  0.00    +0.000 OA
ATOM      3  O   UNL     1      -3.974  38.958   3.862  0.00  0.00    +0.000 OA
ATOM      4  N   UNL     1      -6.126  38.612   2.987  0.00  0.00    +0.000 N 
ATOM      5  N   UNL     1      -6.628  39.633   0.930  0.00  0.00    +0.000 N 
ATOM      6  C   UNL     1      -7.148  38.906   2.041  0.00  0.00    +0.000 A 
ATOM      7  C   UNL     1      -4.809  39.074   2.980  0.00  0.00    +0.000 A 
ATOM      8  C   UNL     1      -4.534  39.796   1.759  0.00  0.00    +0.000 A 
ATOM      9  C   UNL     1      -5.338  40.015   0.905  0.00  0.00    +0.000 A 
ENDROOT
BRANCH   4  10
ATOM     10  O   UNL     1      -6.554  37.977   4.167  0.00  0.00    +0.000 OA
BRANCH  10  13
ATOM     11  O   UNL     1      -7.754  36.077   4.258  0.00  0.00    +0.000 OA
ATOM     12  O   UNL     1      -5.564  36.028   3.804  0.00  0.00    +0.000 OA
ATOM     13  N   UNL     1      -6.636  36.566   4.072  0.00  0.00    +0.000 N 
ENDBRANCH  10  13
ENDBRANCH   4  10
TORSDOF 2
ENDMDL
MODEL 5
REMARK VINA RESULT:      -3.8     27.431     28.499
REMARK  Name = 146026348_FluorouracilMononitrate.pdbqt.pdb
REMARK  2 active torsions:
REMARK  status: ('A' for Active; 'I' for Inactive)
REMARK    1  A    between atoms: N_4  and  O_10
REMARK    2  A    between atoms: O_10  and  N_13
REMARK                            x       y       z     vdW  Elec       q    Type
REMARK                         _______ _______ _______ _____ _____    ______ ____
ROOT
ATOM      1  F   UNL     1     -20.449  33.465   7.013  0.00  0.00    +0.000 F 
ATOM      2  O   UNL     1     -18.046  34.789   7.542  0.00  0.00    +0.000 OA
ATOM      3  O   UNL     1     -20.541  38.728   7.906  0.00  0.00    +0.000 OA
ATOM      4  N   UNL     1     -19.231  36.808   7.574  0.00  0.00    +0.000 N 
ATOM      5  N   UNL     1     -20.361  34.800   7.108  0.00  0.00    +0.000 N 
ATOM      6  C   UNL     1     -19.103  35.400   7.410  0.00  0.00    +0.000 A 
ATOM      7  C   UNL     1     -20.411  37.552   7.611  0.00  0.00    +0.000 A 
ATOM      8  C   UNL     1     -21.544  36.715   7.290  0.00  0.00    +0.000 A 
ATOM      9  C   UNL     1     -21.485  35.542   7.081  0.00  0.00    +0.000 A 
ENDROOT
BRANCH   4  10
ATOM     10  O   UNL     1     -18.060  37.482   7.966  0.00  0.00    +0.000 OA
BRANCH  10  13
ATOM     11  O   UNL     1     -17.731  38.830   6.197  0.00  0.00    +0.000 OA
ATOM     12  O   UNL     1     -16.177  37.342   6.806  0.00  0.00    +0.000 OA
ATOM     13  N   UNL     1     -17.255  37.927   6.889  0.00  0.00    +0.000 N 
ENDBRANCH  10  13
ENDBRANCH   4  10
TORSDOF 2
ENDMDL
MODEL 6
REMARK VINA RESULT:      -3.7     15.195     15.999
REMARK  Name = 146026348_FluorouracilMononitrate.pdbqt.pdb
REMARK  2 active torsions:
REMARK  status: ('A' for Active; 'I' for Inactive)
REMARK    1  A    between atoms: N_4  and  O_10
REMARK    2  A    between atoms: O_10  and  N_13
REMARK                            x       y       z     vdW  Elec       q    Type
REMARK                         _______ _______ _______ _____ _____    ______ ____
ROOT
ATOM      1  F   UNL     1       5.083  57.131  12.101  0.00  0.00    +0.000 F 
ATOM      2  O   UNL     1       6.424  56.424  14.449  0.00  0.00    +0.000 OA
ATOM      3  O   UNL     1       3.025  53.302  15.202  0.00  0.00    +0.000 OA
ATOM      4  N   UNL     1       4.665  54.964  14.948  0.00  0.00    +0.000 N 
ATOM      5  N   UNL     1       4.568  56.284  13.006  0.00  0.00    +0.000 N 
ATOM      6  C   UNL     1       5.327  55.951  14.166  0.00  0.00    +0.000 A 
ATOM      7  C   UNL     1       3.510  54.255  14.614  0.00  0.00    +0.000 A 
ATOM      8  C   UNL     1       2.938  54.769  13.391  0.00  0.00    +0.000 A 
ATOM      9  C   UNL     1       3.419  55.638  12.730  0.00  0.00    +0.000 A 
ENDROOT
BRANCH   4  10
ATOM     10  O   UNL     1       5.377  54.498  16.068  0.00  0.00    +0.000 OA
BRANCH  10  13
ATOM     11  O   UNL     1       6.711  53.164  14.845  0.00  0.00    +0.000 OA
ATOM     12  O   UNL     1       5.824  52.443  16.767  0.00  0.00    +0.000 OA
ATOM     13  N   UNL     1       6.030  53.256  15.869  0.00  0.00    +0.000 N 
ENDBRANCH  10  13
ENDBRANCH   4  10
TORSDOF 2
ENDMDL
MODEL 7
REMARK VINA RESULT:      -3.7     12.721     13.950
REMARK  Name = 146026348_FluorouracilMononitrate.pdbqt.pdb
REMARK  2 active torsions:
REMARK  status: ('A' for Active; 'I' for Inactive)
REMARK    1  A    between atoms: N_4  and  O_10
REMARK    2  A    between atoms: O_10  and  N_13
REMARK                            x       y       z     vdW  Elec       q    Type
REMARK                         _______ _______ _______ _____ _____    ______ ____
ROOT
ATOM      1  F   UNL     1      -2.864  41.813  -1.906  0.00  0.00    +0.000 F 
ATOM      2  O   UNL     1      -4.866  41.041  -0.115  0.00  0.00    +0.000 OA
ATOM      3  O   UNL     1      -1.569  40.943   3.201  0.00  0.00    +0.000 OA
ATOM      4  N   UNL     1      -3.225  40.823   1.539  0.00  0.00    +0.000 N 
ATOM      5  N   UNL     1      -2.606  41.439  -0.644  0.00  0.00    +0.000 N 
ATOM      6  C   UNL     1      -3.685  41.086   0.218  0.00  0.00    +0.000 A 
ATOM      7  C   UNL     1      -1.936  41.016   2.039  0.00  0.00    +0.000 A 
ATOM      8  C   UNL     1      -1.032  41.385   0.975  0.00  0.00    +0.000 A 
ATOM      9  C   UNL     1      -1.354  41.557  -0.161  0.00  0.00    +0.000 A 
ENDROOT
BRANCH   4  10
ATOM     10  O   UNL     1      -4.226  40.556   2.490  0.00  0.00    +0.000 OA
BRANCH  10  13
ATOM     11  O   UNL     1      -4.942  38.506   1.904  0.00  0.00    +0.000 OA
ATOM     12  O   UNL     1      -3.969  38.856   3.887  0.00  0.00    +0.000 OA
ATOM     13  N   UNL     1      -4.400  39.181   2.783  0.00  0.00    +0.000 N 
ENDBRANCH  10  13
ENDBRANCH   4  10
TORSDOF 2
ENDMDL
MODEL 8
REMARK VINA RESULT:      -3.7     17.832     19.185
REMARK  Name = 146026348_FluorouracilMononitrate.pdbqt.pdb
REMARK  2 active torsions:
REMARK  status: ('A' for Active; 'I' for Inactive)
REMARK    1  A    between atoms: N_4  and  O_10
REMARK    2  A    between atoms: O_10  and  N_13
REMARK                            x       y       z     vdW  Elec       q    Type
REMARK                         _______ _______ _______ _____ _____    ______ ____
ROOT
ATOM      1  F   UNL     1      11.627  47.423  26.766  0.00  0.00    +0.000 F 
ATOM      2  O   UNL     1      10.101  49.752  27.007  0.00  0.00    +0.000 OA
ATOM      3  O   UNL     1       9.254  49.419  22.419  0.00  0.00    +0.000 OA
ATOM      4  N   UNL     1       9.783  49.716  24.688  0.00  0.00    +0.000 N 
ATOM      5  N   UNL     1      11.115  48.070  25.707  0.00  0.00    +0.000 N 
ATOM      6  C   UNL     1      10.322  49.236  25.914  0.00  0.00    +0.000 A 
ATOM      7  C   UNL     1       9.842  49.098  23.438  0.00  0.00    +0.000 A 
ATOM      8  C   UNL     1      10.691  47.930  23.493  0.00  0.00    +0.000 A 
ATOM      9  C   UNL     1      11.219  47.520  24.482  0.00  0.00    +0.000 A 
ENDROOT
BRANCH   4  10
ATOM     10  O   UNL     1       8.907  50.812  24.797  0.00  0.00    +0.000 OA
BRANCH  10  13
ATOM     11  O   UNL     1      10.394  52.268  23.944  0.00  0.00    +0.000 OA
ATOM     12  O   UNL     1       9.166  52.803  25.735  0.00  0.00    +0.000 OA
ATOM     13  N   UNL     1       9.553  52.073  24.826  0.00  0.00    +0.000 N 
ENDBRANCH  10  13
ENDBRANCH   4  10
TORSDOF 2
ENDMDL
MODEL 9
REMARK VINA RESULT:      -3.6      2.771      3.711
REMARK  Name = 146026348_FluorouracilMononitrate.pdbqt.pdb
REMARK  2 active torsions:
REMARK  status: ('A' for Active; 'I' for Inactive)
REMARK    1  A    between atoms: N_4  and  O_10
REMARK    2  A    between atoms: O_10  and  N_13
REMARK                            x       y       z     vdW  Elec       q    Type
REMARK                         _______ _______ _______ _____ _____    ______ ____
ROOT
ATOM      1  F   UNL     1      10.368  35.890   6.536  0.00  0.00    +0.000 F 
ATOM      2  O   UNL     1       9.972  36.895   9.113  0.00  0.00    +0.000 OA
ATOM      3  O   UNL     1       6.904  39.891   7.247  0.00  0.00    +0.000 OA
ATOM      4  N   UNL     1       8.552  38.517   8.202  0.00  0.00    +0.000 N 
ATOM      5  N   UNL     1       9.627  36.981   6.785  0.00  0.00    +0.000 N 
ATOM      6  C   UNL     1       9.449  37.415   8.131  0.00  0.00    +0.000 A 
ATOM      7  C   UNL     1       7.788  39.054   7.165  0.00  0.00    +0.000 A 
ATOM      8  C   UNL     1       8.141  38.438   5.907  0.00  0.00    +0.000 A 
ATOM      9  C   UNL     1       8.932  37.553   5.783  0.00  0.00    +0.000 A 
ENDROOT
BRANCH   4  10
ATOM     10  O   UNL     1       8.237  38.961   9.499  0.00  0.00    +0.000 OA
BRANCH  10  13
ATOM     11  O   UNL     1      10.076  40.213   9.825  0.00  0.00    +0.000 OA
ATOM     12  O   UNL     1       8.036  41.070  10.147  0.00  0.00    +0.000 OA
ATOM     13  N   UNL     1       8.843  40.190   9.858  0.00  0.00    +0.000 N 
ENDBRANCH  10  13
ENDBRANCH   4  10
TORSDOF 2
ENDMDL
