MODEL 1
REMARK VINA RESULT:      -7.2      0.000      0.000
REMARK  Name = 179268_Nortopsentin.pdbqt.pdb
REMARK  2 active torsions:
REMARK  status: ('A' for Active; 'I' for Inactive)
REMARK    1  A    between atoms: C_3  and  C_9
REMARK    2  A    between atoms: C_4  and  C_20
REMARK                            x       y       z     vdW  Elec       q    Type
REMARK                         _______ _______ _______ _____ _____    ______ ____
ROOT
ATOM      1  N   UNL     1      -2.741  45.869  28.187  0.00  0.00    +0.000 N 
ATOM      2  N   UNL     1      -1.483  46.657  26.547  0.00  0.00    +0.000 NA
ATOM      3  C   UNL     1      -3.612  46.312  27.230  0.00  0.00    +0.000 A 
ATOM      4  C   UNL     1      -1.464  46.095  27.737  0.00  0.00    +0.000 A 
ATOM      5  C   UNL     1      -2.811  46.797  26.222  0.00  0.00    +0.000 A 
ATOM      6  H   UNL     1      -2.980  45.448  29.072  0.00  0.00    +0.000 HD
ENDROOT
BRANCH   3   9
ATOM      7 BR   UNL     1      -9.883  48.403  24.240  0.00  0.00    +0.000 Br
ATOM      8  N   UNL     1      -7.129  45.768  27.990  0.00  0.00    +0.000 N 
ATOM      9  C   UNL     1      -5.087  46.272  27.281  0.00  0.00    +0.000 A 
ATOM     10  C   UNL     1      -6.024  46.889  26.403  0.00  0.00    +0.000 A 
ATOM     11  C   UNL     1      -7.298  46.554  26.873  0.00  0.00    +0.000 A 
ATOM     12  C   UNL     1      -5.798  45.593  28.242  0.00  0.00    +0.000 A 
ATOM     13  C   UNL     1      -5.925  47.698  25.255  0.00  0.00    +0.000 A 
ATOM     14  C   UNL     1      -8.477  46.987  26.255  0.00  0.00    +0.000 A 
ATOM     15  C   UNL     1      -7.087  48.141  24.622  0.00  0.00    +0.000 A 
ATOM     16  C   UNL     1      -8.335  47.786  25.121  0.00  0.00    +0.000 A 
ATOM     17  H   UNL     1      -7.879  45.375  28.543  0.00  0.00    +0.000 HD
ENDBRANCH   3   9
BRANCH   4  20
ATOM     18 BR   UNL     1       1.367  42.560  33.394  0.00  0.00    +0.000 Br
ATOM     19  N   UNL     1       1.906  45.663  29.072  0.00  0.00    +0.000 N 
ATOM     20  C   UNL     1      -0.234  45.750  28.493  0.00  0.00    +0.000 A 
ATOM     21  C   UNL     1      -0.126  44.948  29.663  0.00  0.00    +0.000 A 
ATOM     22  C   UNL     1       1.229  44.911  30.004  0.00  0.00    +0.000 A 
ATOM     23  C   UNL     1       1.030  46.175  28.153  0.00  0.00    +0.000 A 
ATOM     24  C   UNL     1      -1.044  44.247  30.469  0.00  0.00    +0.000 A 
ATOM     25  C   UNL     1       1.715  44.209  31.111  0.00  0.00    +0.000 A 
ATOM     26  C   UNL     1      -0.579  43.540  31.580  0.00  0.00    +0.000 A 
ATOM     27  C   UNL     1       0.775  43.527  31.885  0.00  0.00    +0.000 A 
ATOM     28  H   UNL     1       2.906  45.813  29.068  0.00  0.00    +0.000 HD
ENDBRANCH   4  20
TORSDOF 2
ENDMDL
MODEL 2
REMARK VINA RESULT:      -7.0     26.533     28.684
REMARK  Name = 179268_Nortopsentin.pdbqt.pdb
REMARK  2 active torsions:
REMARK  status: ('A' for Active; 'I' for Inactive)
REMARK    1  A    between atoms: C_3  and  C_9
REMARK    2  A    between atoms: C_4  and  C_20
REMARK                            x       y       z     vdW  Elec       q    Type
REMARK                         _______ _______ _______ _____ _____    ______ ____
ROOT
ATOM      1  N   UNL     1     -17.448  39.344   6.037  0.00  0.00    +0.000 N 
ATOM      2  N   UNL     1     -16.008  37.694   6.351  0.00  0.00    +0.000 NA
ATOM      3  C   UNL     1     -16.224  39.849   5.697  0.00  0.00    +0.000 A 
ATOM      4  C   UNL     1     -17.276  38.040   6.428  0.00  0.00    +0.000 A 
ATOM      5  C   UNL     1     -15.345  38.809   5.899  0.00  0.00    +0.000 A 
ATOM      6  H   UNL     1     -18.330  39.832   6.011  0.00  0.00    +0.000 HD
ENDROOT
BRANCH   3   9
ATOM      7 BR   UNL     1     -15.414  44.290   0.016  0.00  0.00    +0.000 Br
ATOM      8  N   UNL     1     -15.414  43.373   5.284  0.00  0.00    +0.000 N 
ATOM      9  C   UNL     1     -15.923  41.213   5.219  0.00  0.00    +0.000 A 
ATOM     10  C   UNL     1     -15.865  41.694   3.879  0.00  0.00    +0.000 A 
ATOM     11  C   UNL     1     -15.543  43.054   3.952  0.00  0.00    +0.000 A 
ATOM     12  C   UNL     1     -15.642  42.268   6.055  0.00  0.00    +0.000 A 
ATOM     13  C   UNL     1     -16.052  41.117   2.608  0.00  0.00    +0.000 A 
ATOM     14  C   UNL     1     -15.399  43.864   2.820  0.00  0.00    +0.000 A 
ATOM     15  C   UNL     1     -15.914  41.907   1.467  0.00  0.00    +0.000 A 
ATOM     16  C   UNL     1     -15.593  43.254   1.581  0.00  0.00    +0.000 A 
ATOM     17  H   UNL     1     -15.185  44.290   5.643  0.00  0.00    +0.000 HD
ENDBRANCH   3   9
BRANCH   4  20
ATOM     18 BR   UNL     1     -24.413  36.782   6.469  0.00  0.00    +0.000 Br
ATOM     19  N   UNL     1     -19.419  35.437   7.830  0.00  0.00    +0.000 N 
ATOM     20  C   UNL     1     -18.374  37.145   6.873  0.00  0.00    +0.000 A 
ATOM     21  C   UNL     1     -19.769  37.292   6.635  0.00  0.00    +0.000 A 
ATOM     22  C   UNL     1     -20.401  36.207   7.248  0.00  0.00    +0.000 A 
ATOM     23  C   UNL     1     -18.190  35.997   7.609  0.00  0.00    +0.000 A 
ATOM     24  C   UNL     1     -20.562  38.240   5.960  0.00  0.00    +0.000 A 
ATOM     25  C   UNL     1     -21.785  36.017   7.221  0.00  0.00    +0.000 A 
ATOM     26  C   UNL     1     -21.948  38.071   5.922  0.00  0.00    +0.000 A 
ATOM     27  C   UNL     1     -22.537  36.978   6.543  0.00  0.00    +0.000 A 
ATOM     28  H   UNL     1     -19.585  34.584   8.346  0.00  0.00    +0.000 HD
ENDBRANCH   4  20
TORSDOF 2
ENDMDL
MODEL 3
REMARK VINA RESULT:      -7.0      2.088      2.798
REMARK  Name = 179268_Nortopsentin.pdbqt.pdb
REMARK  2 active torsions:
REMARK  status: ('A' for Active; 'I' for Inactive)
REMARK    1  A    between atoms: C_3  and  C_9
REMARK    2  A    between atoms: C_4  and  C_20
REMARK                            x       y       z     vdW  Elec       q    Type
REMARK                         _______ _______ _______ _____ _____    ______ ____
ROOT
ATOM      1  N   UNL     1      -2.424  45.988  28.287  0.00  0.00    +0.000 N 
ATOM      2  N   UNL     1      -1.216  46.524  26.513  0.00  0.00    +0.000 NA
ATOM      3  C   UNL     1      -3.323  46.249  27.291  0.00  0.00    +0.000 A 
ATOM      4  C   UNL     1      -1.162  46.165  27.779  0.00  0.00    +0.000 A 
ATOM      5  C   UNL     1      -2.553  46.580  26.199  0.00  0.00    +0.000 A 
ATOM      6  H   UNL     1      -2.636  45.712  29.234  0.00  0.00    +0.000 HD
ENDROOT
BRANCH   3   9
ATOM      7 BR   UNL     1      -9.702  48.169  24.415  0.00  0.00    +0.000 Br
ATOM      8  N   UNL     1      -6.810  45.662  28.150  0.00  0.00    +0.000 N 
ATOM      9  C   UNL     1      -4.796  46.186  27.379  0.00  0.00    +0.000 A 
ATOM     10  C   UNL     1      -5.765  46.767  26.512  0.00  0.00    +0.000 A 
ATOM     11  C   UNL     1      -7.021  46.421  27.022  0.00  0.00    +0.000 A 
ATOM     12  C   UNL     1      -5.470  45.515  28.372  0.00  0.00    +0.000 A 
ATOM     13  C   UNL     1      -5.708  47.553  25.345  0.00  0.00    +0.000 A 
ATOM     14  C   UNL     1      -8.222  46.821  26.424  0.00  0.00    +0.000 A 
ATOM     15  C   UNL     1      -6.893  47.962  24.733  0.00  0.00    +0.000 A 
ATOM     16  C   UNL     1      -8.122  47.598  25.270  0.00  0.00    +0.000 A 
ATOM     17  H   UNL     1      -7.539  45.269  28.730  0.00  0.00    +0.000 HD
ENDBRANCH   3   9
BRANCH   4  20
ATOM     18 BR   UNL     1       4.864  49.235  30.381  0.00  0.00    +0.000 Br
ATOM     19  N   UNL     1       1.677  44.988  29.749  0.00  0.00    +0.000 N 
ATOM     20  C   UNL     1       0.090  45.976  28.554  0.00  0.00    +0.000 A 
ATOM     21  C   UNL     1       1.086  46.947  28.852  0.00  0.00    +0.000 A 
ATOM     22  C   UNL     1       2.070  46.299  29.603  0.00  0.00    +0.000 A 
ATOM     23  C   UNL     1       0.481  44.782  29.117  0.00  0.00    +0.000 A 
ATOM     24  C   UNL     1       1.252  48.315  28.560  0.00  0.00    +0.000 A 
ATOM     25  C   UNL     1       3.214  46.947  30.079  0.00  0.00    +0.000 A 
ATOM     26  C   UNL     1       2.387  48.981  29.025  0.00  0.00    +0.000 A 
ATOM     27  C   UNL     1       3.343  48.302  29.769  0.00  0.00    +0.000 A 
ATOM     28  H   UNL     1       2.199  44.282  30.250  0.00  0.00    +0.000 HD
ENDBRANCH   4  20
TORSDOF 2
ENDMDL
MODEL 4
REMARK VINA RESULT:      -6.7     23.786     25.564
REMARK  Name = 179268_Nortopsentin.pdbqt.pdb
REMARK  2 active torsions:
REMARK  status: ('A' for Active; 'I' for Inactive)
REMARK    1  A    between atoms: C_3  and  C_9
REMARK    2  A    between atoms: C_4  and  C_20
REMARK                            x       y       z     vdW  Elec       q    Type
REMARK                         _______ _______ _______ _____ _____    ______ ____
ROOT
ATOM      1  N   UNL     1     -24.904  43.840  17.073  0.00  0.00    +0.000 N 
ATOM      2  N   UNL     1     -26.741  44.108  18.276  0.00  0.00    +0.000 NA
ATOM      3  C   UNL     1     -25.625  44.813  16.438  0.00  0.00    +0.000 A 
ATOM      4  C   UNL     1     -25.612  43.439  18.178  0.00  0.00    +0.000 A 
ATOM      5  C   UNL     1     -26.761  44.964  17.201  0.00  0.00    +0.000 A 
ATOM      6  H   UNL     1     -24.009  43.471  16.790  0.00  0.00    +0.000 HD
ENDROOT
BRANCH   3   9
ATOM      7 BR   UNL     1     -26.149  45.231   9.213  0.00  0.00    +0.000 Br
ATOM      8  N   UNL     1     -24.325  47.066  13.893  0.00  0.00    +0.000 N 
ATOM      9  C   UNL     1     -25.255  45.536  15.205  0.00  0.00    +0.000 A 
ATOM     10  C   UNL     1     -25.615  45.242  13.859  0.00  0.00    +0.000 A 
ATOM     11  C   UNL     1     -25.016  46.219  13.058  0.00  0.00    +0.000 A 
ATOM     12  C   UNL     1     -24.464  46.661  15.191  0.00  0.00    +0.000 A 
ATOM     13  C   UNL     1     -26.389  44.244  13.233  0.00  0.00    +0.000 A 
ATOM     14  C   UNL     1     -25.151  46.251  11.665  0.00  0.00    +0.000 A 
ATOM     15  C   UNL     1     -26.537  44.257  11.846  0.00  0.00    +0.000 A 
ATOM     16  C   UNL     1     -25.926  45.246  11.085  0.00  0.00    +0.000 A 
ATOM     17  H   UNL     1     -23.791  47.871  13.593  0.00  0.00    +0.000 HD
ENDBRANCH   3   9
BRANCH   4  20
ATOM     18 BR   UNL     1     -23.718  36.506  19.103  0.00  0.00    +0.000 Br
ATOM     19  N   UNL     1     -24.532  41.428  21.028  0.00  0.00    +0.000 N 
ATOM     20  C   UNL     1     -25.160  42.395  19.131  0.00  0.00    +0.000 A 
ATOM     21  C   UNL     1     -24.880  41.027  18.858  0.00  0.00    +0.000 A 
ATOM     22  C   UNL     1     -24.489  40.444  20.066  0.00  0.00    +0.000 A 
ATOM     23  C   UNL     1     -24.938  42.612  20.472  0.00  0.00    +0.000 A 
ATOM     24  C   UNL     1     -24.919  40.222  17.702  0.00  0.00    +0.000 A 
ATOM     25  C   UNL     1     -24.133  39.097  20.181  0.00  0.00    +0.000 A 
ATOM     26  C   UNL     1     -24.569  38.873  17.795  0.00  0.00    +0.000 A 
ATOM     27  C   UNL     1     -24.185  38.332  19.015  0.00  0.00    +0.000 A 
ATOM     28  H   UNL     1     -24.299  41.293  22.002  0.00  0.00    +0.000 HD
ENDBRANCH   4  20
TORSDOF 2
ENDMDL
MODEL 5
REMARK VINA RESULT:      -6.7     23.052     23.847
REMARK  Name = 179268_Nortopsentin.pdbqt.pdb
REMARK  2 active torsions:
REMARK  status: ('A' for Active; 'I' for Inactive)
REMARK    1  A    between atoms: C_3  and  C_9
REMARK    2  A    between atoms: C_4  and  C_20
REMARK                            x       y       z     vdW  Elec       q    Type
REMARK                         _______ _______ _______ _____ _____    ______ ____
ROOT
ATOM      1  N   UNL     1       0.419  28.381  14.265  0.00  0.00    +0.000 N 
ATOM      2  N   UNL     1      -0.975  26.684  14.535  0.00  0.00    +0.000 NA
ATOM      3  C   UNL     1       0.324  27.779  13.041  0.00  0.00    +0.000 A 
ATOM      4  C   UNL     1      -0.379  27.690  15.141  0.00  0.00    +0.000 A 
ATOM      5  C   UNL     1      -0.545  26.729  13.231  0.00  0.00    +0.000 A 
ATOM      6  H   UNL     1       0.975  29.190  14.498  0.00  0.00    +0.000 HD
ENDROOT
BRANCH   3   9
ATOM      7 BR   UNL     1       6.469  27.782   9.183  0.00  0.00    +0.000 Br
ATOM      8  N   UNL     1       1.314  29.068   9.785  0.00  0.00    +0.000 N 
ATOM      9  C   UNL     1       1.010  28.178  11.795  0.00  0.00    +0.000 A 
ATOM     10  C   UNL     1       2.362  27.951  11.412  0.00  0.00    +0.000 A 
ATOM     11  C   UNL     1       2.524  28.521  10.145  0.00  0.00    +0.000 A 
ATOM     12  C   UNL     1       0.395  28.866  10.775  0.00  0.00    +0.000 A 
ATOM     13  C   UNL     1       3.471  27.319  12.009  0.00  0.00    +0.000 A 
ATOM     14  C   UNL     1       3.736  28.492   9.445  0.00  0.00    +0.000 A 
ATOM     15  C   UNL     1       4.688  27.278  11.329  0.00  0.00    +0.000 A 
ATOM     16  C   UNL     1       4.808  27.857  10.071  0.00  0.00    +0.000 A 
ATOM     17  H   UNL     1       1.130  29.550   8.915  0.00  0.00    +0.000 HD
ENDBRANCH   3   9
BRANCH   4  20
ATOM     18 BR   UNL     1      -4.435  26.964  21.103  0.00  0.00    +0.000 Br
ATOM     19  N   UNL     1      -0.149  28.919  18.571  0.00  0.00    +0.000 N 
ATOM     20  C   UNL     1      -0.547  28.035  16.575  0.00  0.00    +0.000 A 
ATOM     21  C   UNL     1      -1.596  27.638  17.451  0.00  0.00    +0.000 A 
ATOM     22  C   UNL     1      -1.320  28.207  18.697  0.00  0.00    +0.000 A 
ATOM     23  C   UNL     1       0.326  28.822  17.292  0.00  0.00    +0.000 A 
ATOM     24  C   UNL     1      -2.754  26.848  17.311  0.00  0.00    +0.000 A 
ATOM     25  C   UNL     1      -2.143  28.030  19.813  0.00  0.00    +0.000 A 
ATOM     26  C   UNL     1      -3.591  26.659  18.413  0.00  0.00    +0.000 A 
ATOM     27  C   UNL     1      -3.282  27.243  19.635  0.00  0.00    +0.000 A 
ATOM     28  H   UNL     1       0.293  29.439  19.318  0.00  0.00    +0.000 HD
ENDBRANCH   4  20
TORSDOF 2
ENDMDL
MODEL 6
REMARK VINA RESULT:      -6.6      2.792      9.144
REMARK  Name = 179268_Nortopsentin.pdbqt.pdb
REMARK  2 active torsions:
REMARK  status: ('A' for Active; 'I' for Inactive)
REMARK    1  A    between atoms: C_3  and  C_9
REMARK    2  A    between atoms: C_4  and  C_20
REMARK                            x       y       z     vdW  Elec       q    Type
REMARK                         _______ _______ _______ _____ _____    ______ ____
ROOT
ATOM      1  N   UNL     1      -4.192  48.274  26.536  0.00  0.00    +0.000 N 
ATOM      2  N   UNL     1      -4.608  46.302  25.624  0.00  0.00    +0.000 NA
ATOM      3  C   UNL     1      -3.161  47.462  26.920  0.00  0.00    +0.000 A 
ATOM      4  C   UNL     1      -5.046  47.537  25.755  0.00  0.00    +0.000 A 
ATOM      5  C   UNL     1      -3.439  46.243  26.344  0.00  0.00    +0.000 A 
ATOM      6  H   UNL     1      -4.316  49.245  26.777  0.00  0.00    +0.000 HD
ENDROOT
BRANCH   3   9
ATOM      7 BR   UNL     1       3.547  45.812  29.139  0.00  0.00    +0.000 Br
ATOM      8  N   UNL     1      -0.771  48.964  29.217  0.00  0.00    +0.000 N 
ATOM      9  C   UNL     1      -2.008  47.825  27.768  0.00  0.00    +0.000 A 
ATOM     10  C   UNL     1      -0.762  47.149  27.913  0.00  0.00    +0.000 A 
ATOM     11  C   UNL     1      -0.007  47.888  28.830  0.00  0.00    +0.000 A 
ATOM     12  C   UNL     1      -1.980  48.934  28.580  0.00  0.00    +0.000 A 
ATOM     13  C   UNL     1      -0.195  45.984  27.362  0.00  0.00    +0.000 A 
ATOM     14  C   UNL     1       1.286  47.522  29.223  0.00  0.00    +0.000 A 
ATOM     15  C   UNL     1       1.092  45.600  27.739  0.00  0.00    +0.000 A 
ATOM     16  C   UNL     1       1.811  46.362  28.653  0.00  0.00    +0.000 A 
ATOM     17  H   UNL     1      -0.483  49.675  29.876  0.00  0.00    +0.000 HD
ENDBRANCH   3   9
BRANCH   4  20
ATOM     18 BR   UNL     1     -12.160  48.675  26.531  0.00  0.00    +0.000 Br
ATOM     19  N   UNL     1      -7.657  49.000  23.665  0.00  0.00    +0.000 N 
ATOM     20  C   UNL     1      -6.290  48.065  25.141  0.00  0.00    +0.000 A 
ATOM     21  C   UNL     1      -7.597  48.089  25.703  0.00  0.00    +0.000 A 
ATOM     22  C   UNL     1      -8.435  48.681  24.755  0.00  0.00    +0.000 A 
ATOM     23  C   UNL     1      -6.358  48.631  23.888  0.00  0.00    +0.000 A 
ATOM     24  C   UNL     1      -8.155  47.668  26.926  0.00  0.00    +0.000 A 
ATOM     25  C   UNL     1      -9.803  48.874  24.963  0.00  0.00    +0.000 A 
ATOM     26  C   UNL     1      -9.520  47.850  27.155  0.00  0.00    +0.000 A 
ATOM     27  C   UNL     1     -10.319  48.443  26.186  0.00  0.00    +0.000 A 
ATOM     28  H   UNL     1      -7.999  49.442  22.822  0.00  0.00    +0.000 HD
ENDBRANCH   4  20
TORSDOF 2
ENDMDL
MODEL 7
REMARK VINA RESULT:      -6.6      6.527      8.156
REMARK  Name = 179268_Nortopsentin.pdbqt.pdb
REMARK  2 active torsions:
REMARK  status: ('A' for Active; 'I' for Inactive)
REMARK    1  A    between atoms: C_3  and  C_9
REMARK    2  A    between atoms: C_4  and  C_20
REMARK                            x       y       z     vdW  Elec       q    Type
REMARK                         _______ _______ _______ _____ _____    ______ ____
ROOT
ATOM      1  N   UNL     1      -0.429  50.727  26.722  0.00  0.00    +0.000 N 
ATOM      2  N   UNL     1      -1.142  52.448  27.915  0.00  0.00    +0.000 NA
ATOM      3  C   UNL     1      -1.643  50.352  27.226  0.00  0.00    +0.000 A 
ATOM      4  C   UNL     1      -0.161  52.000  27.161  0.00  0.00    +0.000 A 
ATOM      5  C   UNL     1      -2.068  51.434  27.963  0.00  0.00    +0.000 A 
ATOM      6  H   UNL     1       0.175  50.177  26.131  0.00  0.00    +0.000 HD
ENDROOT
BRANCH   3   9
ATOM      7 BR   UNL     1      -7.898  46.930  25.878  0.00  0.00    +0.000 Br
ATOM      8  N   UNL     1      -2.635  46.874  26.822  0.00  0.00    +0.000 N 
ATOM      9  C   UNL     1      -2.336  49.065  27.018  0.00  0.00    +0.000 A 
ATOM     10  C   UNL     1      -3.715  48.829  26.754  0.00  0.00    +0.000 A 
ATOM     11  C   UNL     1      -3.873  47.444  26.636  0.00  0.00    +0.000 A 
ATOM     12  C   UNL     1      -1.701  47.845  27.053  0.00  0.00    +0.000 A 
ATOM     13  C   UNL     1      -4.851  49.648  26.603  0.00  0.00    +0.000 A 
ATOM     14  C   UNL     1      -5.107  46.837  26.375  0.00  0.00    +0.000 A 
ATOM     15  C   UNL     1      -6.091  49.064  26.342  0.00  0.00    +0.000 A 
ATOM     16  C   UNL     1      -6.206  47.684  26.232  0.00  0.00    +0.000 A 
ATOM     17  H   UNL     1      -2.441  45.882  26.792  0.00  0.00    +0.000 HD
ENDBRANCH   3   9
BRANCH   4  20
ATOM     18 BR   UNL     1       2.797  57.233  23.115  0.00  0.00    +0.000 Br
ATOM     19  N   UNL     1       3.182  53.436  26.861  0.00  0.00    +0.000 N 
ATOM     20  C   UNL     1       1.068  52.762  26.827  0.00  0.00    +0.000 A 
ATOM     21  C   UNL     1       1.213  53.809  25.874  0.00  0.00    +0.000 A 
ATOM     22  C   UNL     1       2.550  54.213  25.917  0.00  0.00    +0.000 A 
ATOM     23  C   UNL     1       2.295  52.555  27.417  0.00  0.00    +0.000 A 
ATOM     24  C   UNL     1       0.341  54.456  24.977  0.00  0.00    +0.000 A 
ATOM     25  C   UNL     1       3.063  55.232  25.109  0.00  0.00    +0.000 A 
ATOM     26  C   UNL     1       0.833  55.476  24.161  0.00  0.00    +0.000 A 
ATOM     27  C   UNL     1       2.168  55.849  24.233  0.00  0.00    +0.000 A 
ATOM     28  H   UNL     1       4.160  53.508  27.106  0.00  0.00    +0.000 HD
ENDBRANCH   4  20
TORSDOF 2
ENDMDL
MODEL 8
REMARK VINA RESULT:      -6.6      4.473      8.425
REMARK  Name = 179268_Nortopsentin.pdbqt.pdb
REMARK  2 active torsions:
REMARK  status: ('A' for Active; 'I' for Inactive)
REMARK    1  A    between atoms: C_3  and  C_9
REMARK    2  A    between atoms: C_4  and  C_20
REMARK                            x       y       z     vdW  Elec       q    Type
REMARK                         _______ _______ _______ _____ _____    ______ ____
ROOT
ATOM      1  N   UNL     1      -2.726  48.306  27.901  0.00  0.00    +0.000 N 
ATOM      2  N   UNL     1      -1.729  46.437  27.264  0.00  0.00    +0.000 NA
ATOM      3  C   UNL     1      -1.396  48.486  28.166  0.00  0.00    +0.000 A 
ATOM      4  C   UNL     1      -2.887  47.057  27.357  0.00  0.00    +0.000 A 
ATOM      5  C   UNL     1      -0.796  47.314  27.763  0.00  0.00    +0.000 A 
ATOM      6  H   UNL     1      -3.469  48.967  28.071  0.00  0.00    +0.000 HD
ENDROOT
BRANCH   3   9
ATOM      7 BR   UNL     1       1.468  55.058  27.051  0.00  0.00    +0.000 Br
ATOM      8  N   UNL     1       0.098  51.032  30.293  0.00  0.00    +0.000 N 
ATOM      9  C   UNL     1      -0.757  49.679  28.755  0.00  0.00    +0.000 A 
ATOM     10  C   UNL     1      -0.309  50.863  28.102  0.00  0.00    +0.000 A 
ATOM     11  C   UNL     1       0.223  51.694  29.093  0.00  0.00    +0.000 A 
ATOM     12  C   UNL     1      -0.492  49.815  30.098  0.00  0.00    +0.000 A 
ATOM     13  C   UNL     1      -0.300  51.318  26.769  0.00  0.00    +0.000 A 
ATOM     14  C   UNL     1       0.764  52.956  28.820  0.00  0.00    +0.000 A 
ATOM     15  C   UNL     1       0.235  52.573  26.474  0.00  0.00    +0.000 A 
ATOM     16  C   UNL     1       0.754  53.369  27.488  0.00  0.00    +0.000 A 
ATOM     17  H   UNL     1       0.399  51.391  31.189  0.00  0.00    +0.000 HD
ENDBRANCH   3   9
BRANCH   4  20
ATOM     18 BR   UNL     1      -9.251  48.276  24.114  0.00  0.00    +0.000 Br
ATOM     19  N   UNL     1      -5.825  45.021  26.618  0.00  0.00    +0.000 N 
ATOM     20  C   UNL     1      -4.190  46.487  26.933  0.00  0.00    +0.000 A 
ATOM     21  C   UNL     1      -5.253  47.150  26.257  0.00  0.00    +0.000 A 
ATOM     22  C   UNL     1      -6.266  46.206  26.073  0.00  0.00    +0.000 A 
ATOM     23  C   UNL     1      -4.571  45.181  27.141  0.00  0.00    +0.000 A 
ATOM     24  C   UNL     1      -5.457  48.460  25.782  0.00  0.00    +0.000 A 
ATOM     25  C   UNL     1      -7.475  46.502  25.438  0.00  0.00    +0.000 A 
ATOM     26  C   UNL     1      -6.658  48.778  25.145  0.00  0.00    +0.000 A 
ATOM     27  C   UNL     1      -7.641  47.810  24.981  0.00  0.00    +0.000 A 
ATOM     28  H   UNL     1      -6.354  44.159  26.629  0.00  0.00    +0.000 HD
ENDBRANCH   4  20
TORSDOF 2
ENDMDL
MODEL 9
REMARK VINA RESULT:      -6.5      7.119      9.491
REMARK  Name = 179268_Nortopsentin.pdbqt.pdb
REMARK  2 active torsions:
REMARK  status: ('A' for Active; 'I' for Inactive)
REMARK    1  A    between atoms: C_3  and  C_9
REMARK    2  A    between atoms: C_4  and  C_20
REMARK                            x       y       z     vdW  Elec       q    Type
REMARK                         _______ _______ _______ _____ _____    ______ ____
ROOT
ATOM      1  N   UNL     1       0.124  51.409  26.698  0.00  0.00    +0.000 N 
ATOM      2  N   UNL     1      -1.468  52.073  28.083  0.00  0.00    +0.000 NA
ATOM      3  C   UNL     1       0.311  52.753  26.862  0.00  0.00    +0.000 A 
ATOM      4  C   UNL     1      -0.961  51.035  27.450  0.00  0.00    +0.000 A 
ATOM      5  C   UNL     1      -0.687  53.145  27.725  0.00  0.00    +0.000 A 
ATOM      6  H   UNL     1       0.677  50.788  26.126  0.00  0.00    +0.000 HD
ENDROOT
BRANCH   3   9
ATOM      7 BR   UNL     1       1.962  57.839  21.958  0.00  0.00    +0.000 Br
ATOM      8  N   UNL     1       3.368  54.444  25.842  0.00  0.00    +0.000 N 
ATOM      9  C   UNL     1       1.359  53.590  26.244  0.00  0.00    +0.000 A 
ATOM     10  C   UNL     1       1.229  54.556  25.205  0.00  0.00    +0.000 A 
ATOM     11  C   UNL     1       2.507  55.075  24.974  0.00  0.00    +0.000 A 
ATOM     12  C   UNL     1       2.683  53.547  26.612  0.00  0.00    +0.000 A 
ATOM     13  C   UNL     1       0.157  55.045  24.433  0.00  0.00    +0.000 A 
ATOM     14  C   UNL     1       2.768  56.058  24.012  0.00  0.00    +0.000 A 
ATOM     15  C   UNL     1       0.395  56.025  23.469  0.00  0.00    +0.000 A 
ATOM     16  C   UNL     1       1.680  56.515  23.270  0.00  0.00    +0.000 A 
ATOM     17  H   UNL     1       4.362  54.618  25.904  0.00  0.00    +0.000 HD
ENDBRANCH   3   9
BRANCH   4  20
ATOM     18 BR   UNL     1      -6.532  46.583  26.166  0.00  0.00    +0.000 Br
ATOM     19  N   UNL     1      -1.577  47.474  27.967  0.00  0.00    +0.000 N 
ATOM     20  C   UNL     1      -1.485  49.649  27.538  0.00  0.00    +0.000 A 
ATOM     21  C   UNL     1      -2.761  49.172  27.128  0.00  0.00    +0.000 A 
ATOM     22  C   UNL     1      -2.791  47.804  27.409  0.00  0.00    +0.000 A 
ATOM     23  C   UNL     1      -0.780  48.584  28.050  0.00  0.00    +0.000 A 
ATOM     24  C   UNL     1      -3.897  49.765  26.543  0.00  0.00    +0.000 A 
ATOM     25  C   UNL     1      -3.898  46.995  27.137  0.00  0.00    +0.000 A 
ATOM     26  C   UNL     1      -5.014  48.976  26.264  0.00  0.00    +0.000 A 
ATOM     27  C   UNL     1      -5.004  47.619  26.559  0.00  0.00    +0.000 A 
ATOM     28  H   UNL     1      -1.315  46.546  28.272  0.00  0.00    +0.000 HD
ENDBRANCH   4  20
TORSDOF 2
ENDMDL
