REMARK  Name = 21574552_Mertensene.pdbqt.pdb
REMARK  1 active torsions:
REMARK  status: ('A' for Active; 'I' for Inactive)
REMARK    1  A    between atoms: C_4  and  C_13
REMARK                            x       y       z     vdW  Elec       q    Type
REMARK                         _______ _______ _______ _____ _____    ______ ____
ROOT
ATOM      1 BR   UNL     1       1.210  -2.969   0.494  0.00  0.00    +0.000 Br
ATOM      2 CL   UNL     1      -1.493   2.313   0.885  0.00  0.00    +0.000 Cl
ATOM      3 CL   UNL     1      -3.522  -0.389   1.314  0.00  0.00    +0.000 Cl
ATOM      4  C   UNL     1       0.818  -0.286  -0.763  0.00  0.00    +0.000 C 
ATOM      5  C   UNL     1      -0.259   0.710  -0.752  0.00  0.00    +0.000 C 
ATOM      6  C   UNL     1      -1.619   0.989  -0.299  0.00  0.00    +0.000 C 
ATOM      7  C   UNL     1       0.210  -1.509  -0.031  0.00  0.00    +0.000 C 
ATOM      8  C   UNL     1      -2.097  -0.306   0.372  0.00  0.00    +0.000 C 
ATOM      9  C   UNL     1      -1.132  -1.354   0.426  0.00  0.00    +0.000 C 
ATOM     10  C   UNL     1       1.162  -0.680  -2.217  0.00  0.00    +0.000 C 
ATOM     11  C   UNL     1      -2.549   1.428  -1.435  0.00  0.00    +0.000 C 
ENDROOT
BRANCH   4  13
ATOM     12 CL   UNL     1       4.332   1.218   1.462  0.00  0.00    +0.000 Cl
ATOM     13  C   UNL     1       1.991   0.214  -0.029  0.00  0.00    +0.000 C 
ATOM     14  C   UNL     1       2.946   0.622   0.573  0.00  0.00    +0.000 C 
ENDBRANCH   4  13
TORSDOF 1
