MODEL 1
REMARK VINA RESULT:      -5.1      0.000      0.000
REMARK  Name = 21574552_Mertensene.pdbqt.pdb
REMARK  1 active torsions:
REMARK  status: ('A' for Active; 'I' for Inactive)
REMARK    1  A    between atoms: C_4  and  C_13
REMARK                            x       y       z     vdW  Elec       q    Type
REMARK                         _______ _______ _______ _____ _____    ______ ____
ROOT
ATOM      1 BR   UNL     1      -1.209  46.710  29.995  0.00  0.00    +0.000 Br
ATOM      2 CL   UNL     1      -5.348  46.978  25.734  0.00  0.00    +0.000 Cl
ATOM      3 CL   UNL     1      -5.837  44.556  28.079  0.00  0.00    +0.000 Cl
ATOM      4  C   UNL     1      -1.736  46.859  27.056  0.00  0.00    +0.000 C 
ATOM      5  C   UNL     1      -2.842  46.445  26.185  0.00  0.00    +0.000 C 
ATOM      6  C   UNL     1      -4.125  45.749  26.138  0.00  0.00    +0.000 C 
ATOM      7  C   UNL     1      -2.106  46.271  28.442  0.00  0.00    +0.000 C 
ATOM      8  C   UNL     1      -4.342  45.201  27.555  0.00  0.00    +0.000 C 
ATOM      9  C   UNL     1      -3.330  45.541  28.499  0.00  0.00    +0.000 C 
ATOM     10  C   UNL     1      -0.412  46.227  26.571  0.00  0.00    +0.000 C 
ATOM     11  C   UNL     1      -4.166  44.643  25.078  0.00  0.00    +0.000 C 
ENDROOT
BRANCH   4  13
ATOM     12 CL   UNL     1      -1.516  51.269  27.300  0.00  0.00    +0.000 Cl
ATOM     13  C   UNL     1      -1.659  48.326  27.131  0.00  0.00    +0.000 C 
ATOM     14  C   UNL     1      -1.598  49.523  27.195  0.00  0.00    +0.000 C 
ENDBRANCH   4  13
TORSDOF 1
ENDMDL
MODEL 2
REMARK VINA RESULT:      -4.6     13.899     15.301
REMARK  Name = 21574552_Mertensene.pdbqt.pdb
REMARK  1 active torsions:
REMARK  status: ('A' for Active; 'I' for Inactive)
REMARK    1  A    between atoms: C_4  and  C_13
REMARK                            x       y       z     vdW  Elec       q    Type
REMARK                         _______ _______ _______ _____ _____    ______ ____
ROOT
ATOM      1 BR   UNL     1       6.124  53.463  16.524  0.00  0.00    +0.000 Br
ATOM      2 CL   UNL     1       2.737  58.109  18.039  0.00  0.00    +0.000 Cl
ATOM      3 CL   UNL     1       5.258  57.383  20.212  0.00  0.00    +0.000 Cl
ATOM      4  C   UNL     1       3.340  54.490  16.879  0.00  0.00    +0.000 C 
ATOM      5  C   UNL     1       2.723  55.528  17.712  0.00  0.00    +0.000 C 
ATOM      6  C   UNL     1       2.962  56.502  18.773  0.00  0.00    +0.000 C 
ATOM      7  C   UNL     1       4.800  54.412  17.392  0.00  0.00    +0.000 C 
ATOM      8  C   UNL     1       4.421  56.290  19.198  0.00  0.00    +0.000 C 
ATOM      9  C   UNL     1       5.132  55.302  18.455  0.00  0.00    +0.000 C 
ATOM     10  C   UNL     1       2.642  53.132  17.117  0.00  0.00    +0.000 C 
ATOM     11  C   UNL     1       1.991  56.355  19.949  0.00  0.00    +0.000 C 
ENDROOT
BRANCH   4  13
ATOM     12 CL   UNL     1       3.297  55.664  12.615  0.00  0.00    +0.000 Cl
ATOM     13  C   UNL     1       3.320  54.885  15.462  0.00  0.00    +0.000 C 
ATOM     14  C   UNL     1       3.306  55.205  14.305  0.00  0.00    +0.000 C 
ENDBRANCH   4  13
TORSDOF 1
ENDMDL
MODEL 3
REMARK VINA RESULT:      -4.5     13.578     15.090
REMARK  Name = 21574552_Mertensene.pdbqt.pdb
REMARK  1 active torsions:
REMARK  status: ('A' for Active; 'I' for Inactive)
REMARK    1  A    between atoms: C_4  and  C_13
REMARK                            x       y       z     vdW  Elec       q    Type
REMARK                         _______ _______ _______ _____ _____    ______ ____
ROOT
ATOM      1 BR   UNL     1       2.428  56.821  19.746  0.00  0.00    +0.000 Br
ATOM      2 CL   UNL     1       4.646  54.288  14.844  0.00  0.00    +0.000 Cl
ATOM      3 CL   UNL     1       2.213  52.503  16.425  0.00  0.00    +0.000 Cl
ATOM      4  C   UNL     1       4.902  56.050  18.257  0.00  0.00    +0.000 C 
ATOM      5  C   UNL     1       5.232  55.011  17.275  0.00  0.00    +0.000 C 
ATOM      6  C   UNL     1       4.727  53.839  16.565  0.00  0.00    +0.000 C 
ATOM      7  C   UNL     1       3.464  55.695  18.714  0.00  0.00    +0.000 C 
ATOM      8  C   UNL     1       3.324  53.592  17.137  0.00  0.00    +0.000 C 
ATOM      9  C   UNL     1       2.886  54.543  18.104  0.00  0.00    +0.000 C 
ATOM     10  C   UNL     1       5.859  55.960  19.466  0.00  0.00    +0.000 C 
ATOM     11  C   UNL     1       5.635  52.613  16.714  0.00  0.00    +0.000 C 
ENDROOT
BRANCH   4  13
ATOM     12 CL   UNL     1       4.973  60.055  16.383  0.00  0.00    +0.000 Cl
ATOM     13  C   UNL     1       4.922  57.380  17.628  0.00  0.00    +0.000 C 
ATOM     14  C   UNL     1       4.940  58.466  17.118  0.00  0.00    +0.000 C 
ENDBRANCH   4  13
TORSDOF 1
ENDMDL
MODEL 4
REMARK VINA RESULT:      -4.2     23.876     26.346
REMARK  Name = 21574552_Mertensene.pdbqt.pdb
REMARK  1 active torsions:
REMARK  status: ('A' for Active; 'I' for Inactive)
REMARK    1  A    between atoms: C_4  and  C_13
REMARK                            x       y       z     vdW  Elec       q    Type
REMARK                         _______ _______ _______ _____ _____    ______ ____
ROOT
ATOM      1 BR   UNL     1     -27.982  35.398  17.773  0.00  0.00    +0.000 Br
ATOM      2 CL   UNL     1     -23.883  38.896  20.287  0.00  0.00    +0.000 Cl
ATOM      3 CL   UNL     1     -24.498  39.518  16.995  0.00  0.00    +0.000 Cl
ATOM      4  C   UNL     1     -25.517  35.511  19.459  0.00  0.00    +0.000 C 
ATOM      5  C   UNL     1     -24.391  36.445  19.577  0.00  0.00    +0.000 C 
ATOM      6  C   UNL     1     -23.778  37.648  19.021  0.00  0.00    +0.000 C 
ATOM      7  C   UNL     1     -26.308  36.026  18.229  0.00  0.00    +0.000 C 
ATOM      8  C   UNL     1     -24.641  38.020  17.808  0.00  0.00    +0.000 C 
ATOM      9  C   UNL     1     -25.774  37.183  17.589  0.00  0.00    +0.000 C 
ATOM     10  C   UNL     1     -24.997  34.085  19.170  0.00  0.00    +0.000 C 
ATOM     11  C   UNL     1     -22.306  37.448  18.644  0.00  0.00    +0.000 C 
ENDROOT
BRANCH   4  13
ATOM     12 CL   UNL     1     -28.036  35.683  23.090  0.00  0.00    +0.000 Cl
ATOM     13  C   UNL     1     -26.360  35.564  20.663  0.00  0.00    +0.000 C 
ATOM     14  C   UNL     1     -27.045  35.609  21.648  0.00  0.00    +0.000 C 
ENDBRANCH   4  13
TORSDOF 1
ENDMDL
MODEL 5
REMARK VINA RESULT:      -4.1      6.028      6.789
REMARK  Name = 21574552_Mertensene.pdbqt.pdb
REMARK  1 active torsions:
REMARK  status: ('A' for Active; 'I' for Inactive)
REMARK    1  A    between atoms: C_4  and  C_13
REMARK                            x       y       z     vdW  Elec       q    Type
REMARK                         _______ _______ _______ _____ _____    ______ ____
ROOT
ATOM      1 BR   UNL     1     -11.412  49.194  28.126  0.00  0.00    +0.000 Br
ATOM      2 CL   UNL     1      -7.145  48.774  24.006  0.00  0.00    +0.000 Cl
ATOM      3 CL   UNL     1      -9.588  46.409  23.809  0.00  0.00    +0.000 Cl
ATOM      4  C   UNL     1      -8.470  49.156  27.599  0.00  0.00    +0.000 C 
ATOM      5  C   UNL     1      -7.617  48.573  26.557  0.00  0.00    +0.000 C 
ATOM      6  C   UNL     1      -7.599  47.723  25.370  0.00  0.00    +0.000 C 
ATOM      7  C   UNL     1      -9.879  48.584  27.298  0.00  0.00    +0.000 C 
ATOM      8  C   UNL     1      -9.037  47.211  25.215  0.00  0.00    +0.000 C 
ATOM      9  C   UNL     1      -9.967  47.712  26.173  0.00  0.00    +0.000 C 
ATOM     10  C   UNL     1      -8.010  48.673  28.993  0.00  0.00    +0.000 C 
ATOM     11  C   UNL     1      -6.586  46.577  25.471  0.00  0.00    +0.000 C 
ENDROOT
BRANCH   4  13
ATOM     12 CL   UNL     1      -8.524  53.565  27.266  0.00  0.00    +0.000 Cl
ATOM     13  C   UNL     1      -8.484  50.623  27.494  0.00  0.00    +0.000 C 
ATOM     14  C   UNL     1      -8.497  51.820  27.406  0.00  0.00    +0.000 C 
ENDBRANCH   4  13
TORSDOF 1
ENDMDL
MODEL 6
REMARK VINA RESULT:      -4.0      3.344      5.075
REMARK  Name = 21574552_Mertensene.pdbqt.pdb
REMARK  1 active torsions:
REMARK  status: ('A' for Active; 'I' for Inactive)
REMARK    1  A    between atoms: C_4  and  C_13
REMARK                            x       y       z     vdW  Elec       q    Type
REMARK                         _______ _______ _______ _____ _____    ______ ____
ROOT
ATOM      1 BR   UNL     1      -6.353  45.959  27.617  0.00  0.00    +0.000 Br
ATOM      2 CL   UNL     1      -1.957  49.742  26.303  0.00  0.00    +0.000 Cl
ATOM      3 CL   UNL     1      -1.121  47.241  28.458  0.00  0.00    +0.000 Cl
ATOM      4  C   UNL     1      -5.536  48.824  27.381  0.00  0.00    +0.000 C 
ATOM      5  C   UNL     1      -4.264  49.546  27.492  0.00  0.00    +0.000 C 
ATOM      6  C   UNL     1      -2.845  49.416  27.812  0.00  0.00    +0.000 C 
ATOM      7  C   UNL     1      -5.191  47.379  27.821  0.00  0.00    +0.000 C 
ATOM      8  C   UNL     1      -2.660  47.959  28.256  0.00  0.00    +0.000 C 
ATOM      9  C   UNL     1      -3.832  47.150  28.188  0.00  0.00    +0.000 C 
ATOM     10  C   UNL     1      -6.573  49.422  28.358  0.00  0.00    +0.000 C 
ATOM     11  C   UNL     1      -2.381  50.409  28.883  0.00  0.00    +0.000 C 
ENDROOT
BRANCH   4  13
ATOM     12 CL   UNL     1      -6.957  48.828  23.193  0.00  0.00    +0.000 Cl
ATOM     13  C   UNL     1      -6.013  48.831  25.989  0.00  0.00    +0.000 C 
ATOM     14  C   UNL     1      -6.401  48.834  24.853  0.00  0.00    +0.000 C 
ENDBRANCH   4  13
TORSDOF 1
ENDMDL
MODEL 7
REMARK VINA RESULT:      -3.8     17.534     19.095
REMARK  Name = 21574552_Mertensene.pdbqt.pdb
REMARK  1 active torsions:
REMARK  status: ('A' for Active; 'I' for Inactive)
REMARK    1  A    between atoms: C_4  and  C_13
REMARK                            x       y       z     vdW  Elec       q    Type
REMARK                         _______ _______ _______ _____ _____    ______ ____
ROOT
ATOM      1 BR   UNL     1      10.046  31.528  26.421  0.00  0.00    +0.000 Br
ATOM      2 CL   UNL     1      11.311  35.575  22.251  0.00  0.00    +0.000 Cl
ATOM      3 CL   UNL     1      12.528  36.264  25.357  0.00  0.00    +0.000 Cl
ATOM      4  C   UNL     1       8.971  33.231  24.212  0.00  0.00    +0.000 C 
ATOM      5  C   UNL     1       9.365  34.511  23.612  0.00  0.00    +0.000 C 
ATOM      6  C   UNL     1      10.290  35.637  23.708  0.00  0.00    +0.000 C 
ATOM      7  C   UNL     1       9.904  33.086  25.441  0.00  0.00    +0.000 C 
ATOM      8  C   UNL     1      11.118  35.375  24.974  0.00  0.00    +0.000 C 
ATOM      9  C   UNL     1      10.828  34.153  25.647  0.00  0.00    +0.000 C 
ATOM     10  C   UNL     1       7.503  33.298  24.689  0.00  0.00    +0.000 C 
ATOM     11  C   UNL     1       9.577  36.993  23.755  0.00  0.00    +0.000 C 
ENDROOT
BRANCH   4  13
ATOM     12 CL   UNL     1       9.679  29.920  21.367  0.00  0.00    +0.000 Cl
ATOM     13  C   UNL     1       9.201  32.127  23.267  0.00  0.00    +0.000 C 
ATOM     14  C   UNL     1       9.391  31.227  22.496  0.00  0.00    +0.000 C 
ENDBRANCH   4  13
TORSDOF 1
ENDMDL
MODEL 8
REMARK VINA RESULT:      -3.7     25.572     27.664
REMARK  Name = 21574552_Mertensene.pdbqt.pdb
REMARK  1 active torsions:
REMARK  status: ('A' for Active; 'I' for Inactive)
REMARK    1  A    between atoms: C_4  and  C_13
REMARK                            x       y       z     vdW  Elec       q    Type
REMARK                         _______ _______ _______ _____ _____    ______ ____
ROOT
ATOM      1 BR   UNL     1     -18.212  27.555  18.755  0.00  0.00    +0.000 Br
ATOM      2 CL   UNL     1     -22.908  27.875  15.121  0.00  0.00    +0.000 Cl
ATOM      3 CL   UNL     1     -20.623  25.477  14.329  0.00  0.00    +0.000 Cl
ATOM      4  C   UNL     1     -19.964  29.341  17.120  0.00  0.00    +0.000 C 
ATOM      5  C   UNL     1     -20.791  29.159  15.922  0.00  0.00    +0.000 C 
ATOM      6  C   UNL     1     -21.178  28.218  14.874  0.00  0.00    +0.000 C 
ATOM      7  C   UNL     1     -19.199  28.001  17.260  0.00  0.00    +0.000 C 
ATOM      8  C   UNL     1     -20.328  26.964  15.119  0.00  0.00    +0.000 C 
ATOM      9  C   UNL     1     -19.481  27.020  16.264  0.00  0.00    +0.000 C 
ATOM     10  C   UNL     1     -18.952  30.487  16.898  0.00  0.00    +0.000 C 
ATOM     11  C   UNL     1     -20.982  28.782  13.463  0.00  0.00    +0.000 C 
ENDROOT
BRANCH   4  13
ATOM     12 CL   UNL     1     -22.504  30.005  20.680  0.00  0.00    +0.000 Cl
ATOM     13  C   UNL     1     -20.812  29.568  18.302  0.00  0.00    +0.000 C 
ATOM     14  C   UNL     1     -21.501  29.750  19.267  0.00  0.00    +0.000 C 
ENDBRANCH   4  13
TORSDOF 1
ENDMDL
MODEL 9
REMARK VINA RESULT:      -3.6     25.351     26.029
REMARK  Name = 21574552_Mertensene.pdbqt.pdb
REMARK  1 active torsions:
REMARK  status: ('A' for Active; 'I' for Inactive)
REMARK    1  A    between atoms: C_4  and  C_13
REMARK                            x       y       z     vdW  Elec       q    Type
REMARK                         _______ _______ _______ _____ _____    ______ ____
ROOT
ATOM      1 BR   UNL     1     -16.837  26.592  19.040  0.00  0.00    +0.000 Br
ATOM      2 CL   UNL     1     -20.494  29.979  22.284  0.00  0.00    +0.000 Cl
ATOM      3 CL   UNL     1     -18.520  27.854  24.070  0.00  0.00    +0.000 Cl
ATOM      4  C   UNL     1     -19.634  27.584  19.396  0.00  0.00    +0.000 C 
ATOM      5  C   UNL     1     -20.426  28.047  20.541  0.00  0.00    +0.000 C 
ATOM      6  C   UNL     1     -20.434  28.223  21.991  0.00  0.00    +0.000 C 
ATOM      7  C   UNL     1     -18.325  27.051  20.032  0.00  0.00    +0.000 C 
ATOM      8  C   UNL     1     -19.105  27.629  22.479  0.00  0.00    +0.000 C 
ATOM      9  C   UNL     1     -18.243  27.145  21.452  0.00  0.00    +0.000 C 
ATOM     10  C   UNL     1     -20.363  26.426  18.680  0.00  0.00    +0.000 C 
ATOM     11  C   UNL     1     -21.643  27.567  22.666  0.00  0.00    +0.000 C 
ENDROOT
BRANCH   4  13
ATOM     12 CL   UNL     1     -18.766  30.951  16.662  0.00  0.00    +0.000 Cl
ATOM     13  C   UNL     1     -19.338  28.703  18.487  0.00  0.00    +0.000 C 
ATOM     14  C   UNL     1     -19.100  29.616  17.745  0.00  0.00    +0.000 C 
ENDBRANCH   4  13
TORSDOF 1
ENDMDL
