MODEL 1
REMARK VINA RESULT:      -8.5      0.000      0.000
REMARK  Name = 222284_BetaSitosterol.pdbqt.pdb
REMARK  5 active torsions:
REMARK  status: ('A' for Active; 'I' for Inactive)
REMARK    1  A    between atoms: C_5  and  C_22
REMARK    2  A    between atoms: C_19  and  O_20
REMARK    3  A    between atoms: C_22  and  C_24
REMARK    4  A    between atoms: C_25  and  C_26
REMARK    5  A    between atoms: C_26  and  C_30
REMARK                            x       y       z     vdW  Elec       q    Type
REMARK                         _______ _______ _______ _____ _____    ______ ____
ROOT
ATOM      1  C   UNL     1      -5.950  46.182  27.748  0.00  0.00    +0.000 C 
ATOM      2  C   UNL     1      -6.469  46.216  26.222  0.00  0.00    +0.000 C 
ATOM      3  C   UNL     1      -7.783  46.780  25.853  0.00  0.00    +0.000 C 
ATOM      4  C   UNL     1      -8.662  47.628  26.738  0.00  0.00    +0.000 C 
ATOM      5  C   UNL     1      -4.492  46.601  27.642  0.00  0.00    +0.000 C 
ATOM      6  C   UNL     1      -6.791  47.148  28.458  0.00  0.00    +0.000 C 
ATOM      7  C   UNL     1     -10.072  48.130  26.325  0.00  0.00    +0.000 C 
ATOM      8  C   UNL     1      -5.328  46.469  25.396  0.00  0.00    +0.000 C 
ATOM      9  C   UNL     1      -8.070  47.816  28.017  0.00  0.00    +0.000 C 
ATOM     10  C   UNL     1      -4.134  46.744  26.271  0.00  0.00    +0.000 C 
ATOM     11  C   UNL     1      -8.283  46.667  24.532  0.00  0.00    +0.000 C 
ATOM     12  C   UNL     1      -6.087  44.729  28.273  0.00  0.00    +0.000 C 
ATOM     13  C   UNL     1     -10.365  48.050  24.701  0.00  0.00    +0.000 C 
ATOM     14  C   UNL     1     -10.219  49.580  26.645  0.00  0.00    +0.000 C 
ATOM     15  C   UNL     1      -9.541  47.306  24.027  0.00  0.00    +0.000 C 
ATOM     16  C   UNL     1     -11.149  47.254  27.029  0.00  0.00    +0.000 C 
ATOM     17  C   UNL     1     -10.809  49.282  24.090  0.00  0.00    +0.000 C 
ATOM     18  C   UNL     1     -10.651  50.819  25.841  0.00  0.00    +0.000 C 
ATOM     19  C   UNL     1     -10.994  50.650  24.468  0.00  0.00    +0.000 C 
ENDROOT
BRANCH  19  20
ATOM     20  O   UNL     1     -11.920  51.449  23.864  0.00  0.00    +0.000 OA
ATOM     21  H   UNL     1     -12.775  50.996  23.771  0.00  0.00    +0.000 HD
ENDBRANCH  19  20
BRANCH   5  22
ATOM     22  C   UNL     1      -3.635  46.867  28.756  0.00  0.00    +0.000 C 
ATOM     23  C   UNL     1      -3.942  47.935  29.774  0.00  0.00    +0.000 C 
BRANCH  22  24
ATOM     24  C   UNL     1      -2.444  46.127  28.989  0.00  0.00    +0.000 C 
ATOM     25  C   UNL     1      -1.149  45.348  29.258  0.00  0.00    +0.000 C 
BRANCH  25  26
ATOM     26  C   UNL     1       0.066  44.640  29.508  0.00  0.00    +0.000 C 
ATOM     27  C   UNL     1       1.184  44.751  28.596  0.00  0.00    +0.000 C 
ATOM     28  C   UNL     1       1.137  45.624  27.356  0.00  0.00    +0.000 C 
ATOM     29  C   UNL     1       2.483  43.996  28.769  0.00  0.00    +0.000 C 
BRANCH  26  30
ATOM     30  C   UNL     1       0.187  43.825  30.664  0.00  0.00    +0.000 C 
ATOM     31  C   UNL     1       0.264  42.932  31.908  0.00  0.00    +0.000 C 
ENDBRANCH  26  30
ENDBRANCH  25  26
ENDBRANCH  22  24
ENDBRANCH   5  22
TORSDOF 5
ENDMDL
MODEL 2
REMARK VINA RESULT:      -8.0      3.663      5.346
REMARK  Name = 222284_BetaSitosterol.pdbqt.pdb
REMARK  5 active torsions:
REMARK  status: ('A' for Active; 'I' for Inactive)
REMARK    1  A    between atoms: C_5  and  C_22
REMARK    2  A    between atoms: C_19  and  O_20
REMARK    3  A    between atoms: C_22  and  C_24
REMARK    4  A    between atoms: C_25  and  C_26
REMARK    5  A    between atoms: C_26  and  C_30
REMARK                            x       y       z     vdW  Elec       q    Type
REMARK                         _______ _______ _______ _____ _____    ______ ____
ROOT
ATOM      1  C   UNL     1      -3.124  47.338  28.096  0.00  0.00    +0.000 C 
ATOM      2  C   UNL     1      -4.013  46.533  27.018  0.00  0.00    +0.000 C 
ATOM      3  C   UNL     1      -5.416  46.896  26.732  0.00  0.00    +0.000 C 
ATOM      4  C   UNL     1      -6.102  48.174  27.147  0.00  0.00    +0.000 C 
ATOM      5  C   UNL     1      -1.775  47.487  27.409  0.00  0.00    +0.000 C 
ATOM      6  C   UNL     1      -3.826  48.607  28.298  0.00  0.00    +0.000 C 
ATOM      7  C   UNL     1      -7.604  48.470  26.886  0.00  0.00    +0.000 C 
ATOM      8  C   UNL     1      -3.141  46.162  25.947  0.00  0.00    +0.000 C 
ATOM      9  C   UNL     1      -5.221  49.010  27.886  0.00  0.00    +0.000 C 
ATOM     10  C   UNL     1      -1.788  46.782  26.171  0.00  0.00    +0.000 C 
ATOM     11  C   UNL     1      -6.224  46.089  25.894  0.00  0.00    +0.000 C 
ATOM     12  C   UNL     1      -3.016  46.472  29.377  0.00  0.00    +0.000 C 
ATOM     13  C   UNL     1      -8.291  47.496  25.742  0.00  0.00    +0.000 C 
ATOM     14  C   UNL     1      -7.770  49.846  26.333  0.00  0.00    +0.000 C 
ATOM     15  C   UNL     1      -7.613  46.430  25.444  0.00  0.00    +0.000 C 
ATOM     16  C   UNL     1      -8.400  48.260  28.206  0.00  0.00    +0.000 C 
ATOM     17  C   UNL     1      -8.965  48.186  24.665  0.00  0.00    +0.000 C 
ATOM     18  C   UNL     1      -8.482  50.429  25.100  0.00  0.00    +0.000 C 
ATOM     19  C   UNL     1      -9.148  49.531  24.214  0.00  0.00    +0.000 C 
ENDROOT
BRANCH  19  20
ATOM     20  O   UNL     1     -10.253  49.915  23.513  0.00  0.00    +0.000 OA
ATOM     21  H   UNL     1     -10.779  49.149  23.228  0.00  0.00    +0.000 HD
ENDBRANCH  19  20
BRANCH   5  22
ATOM     22  C   UNL     1      -0.686  48.268  27.909  0.00  0.00    +0.000 C 
ATOM     23  C   UNL     1       0.495  47.650  28.614  0.00  0.00    +0.000 C 
BRANCH  22  24
ATOM     24  C   UNL     1      -0.634  49.680  27.756  0.00  0.00    +0.000 C 
ATOM     25  C   UNL     1      -0.603  51.208  27.604  0.00  0.00    +0.000 C 
BRANCH  25  26
ATOM     26  C   UNL     1      -0.593  52.628  27.457  0.00  0.00    +0.000 C 
ATOM     27  C   UNL     1      -1.478  53.456  28.247  0.00  0.00    +0.000 C 
ATOM     28  C   UNL     1      -2.436  52.876  29.270  0.00  0.00    +0.000 C 
ATOM     29  C   UNL     1      -1.557  54.961  28.113  0.00  0.00    +0.000 C 
BRANCH  26  30
ATOM     30  C   UNL     1       0.298  53.239  26.535  0.00  0.00    +0.000 C 
ATOM     31  C   UNL     1       1.226  53.942  25.537  0.00  0.00    +0.000 C 
ENDBRANCH  26  30
ENDBRANCH  25  26
ENDBRANCH  22  24
ENDBRANCH   5  22
TORSDOF 5
ENDMDL
MODEL 3
REMARK VINA RESULT:      -7.5      2.361      3.972
REMARK  Name = 222284_BetaSitosterol.pdbqt.pdb
REMARK  5 active torsions:
REMARK  status: ('A' for Active; 'I' for Inactive)
REMARK    1  A    between atoms: C_5  and  C_22
REMARK    2  A    between atoms: C_19  and  O_20
REMARK    3  A    between atoms: C_22  and  C_24
REMARK    4  A    between atoms: C_25  and  C_26
REMARK    5  A    between atoms: C_26  and  C_30
REMARK                            x       y       z     vdW  Elec       q    Type
REMARK                         _______ _______ _______ _____ _____    ______ ____
ROOT
ATOM      1  C   UNL     1      -5.857  46.353  27.569  0.00  0.00    +0.000 C 
ATOM      2  C   UNL     1      -6.640  46.187  26.169  0.00  0.00    +0.000 C 
ATOM      3  C   UNL     1      -7.939  46.842  25.914  0.00  0.00    +0.000 C 
ATOM      4  C   UNL     1      -8.554  47.940  26.746  0.00  0.00    +0.000 C 
ATOM      5  C   UNL     1      -4.409  46.555  27.149  0.00  0.00    +0.000 C 
ATOM      6  C   UNL     1      -6.456  47.530  28.202  0.00  0.00    +0.000 C 
ATOM      7  C   UNL     1      -9.961  48.540  26.476  0.00  0.00    +0.000 C 
ATOM      8  C   UNL     1      -5.650  46.141  25.137  0.00  0.00    +0.000 C 
ATOM      9  C   UNL     1      -7.724  48.271  27.851  0.00  0.00    +0.000 C 
ATOM     10  C   UNL     1      -4.296  46.408  25.736  0.00  0.00    +0.000 C 
ATOM     11  C   UNL     1      -8.680  46.566  24.739  0.00  0.00    +0.000 C 
ATOM     12  C   UNL     1      -6.036  45.045  28.382  0.00  0.00    +0.000 C 
ATOM     13  C   UNL     1     -10.552  48.215  24.968  0.00  0.00    +0.000 C 
ATOM     14  C   UNL     1      -9.905  50.030  26.527  0.00  0.00    +0.000 C 
ATOM     15  C   UNL     1      -9.941  47.264  24.328  0.00  0.00    +0.000 C 
ATOM     16  C   UNL     1     -10.971  47.948  27.502  0.00  0.00    +0.000 C 
ATOM     17  C   UNL     1     -10.978  49.368  24.209  0.00  0.00    +0.000 C 
ATOM     18  C   UNL     1     -10.354  51.154  25.577  0.00  0.00    +0.000 C 
ATOM     19  C   UNL     1     -10.957  50.793  24.337  0.00  0.00    +0.000 C 
ENDROOT
BRANCH  19  20
ATOM     20  O   UNL     1     -11.896  51.587  23.746  0.00  0.00    +0.000 OA
ATOM     21  H   UNL     1     -12.294  52.204  24.383  0.00  0.00    +0.000 HD
ENDBRANCH  19  20
BRANCH   5  22
ATOM     22  C   UNL     1      -3.342  46.898  28.036  0.00  0.00    +0.000 C 
ATOM     23  C   UNL     1      -2.713  45.896  28.971  0.00  0.00    +0.000 C 
BRANCH  22  24
ATOM     24  C   UNL     1      -2.787  48.206  28.082  0.00  0.00    +0.000 C 
ATOM     25  C   UNL     1      -2.175  49.613  28.158  0.00  0.00    +0.000 C 
BRANCH  25  26
ATOM     26  C   UNL     1      -1.612  50.922  28.246  0.00  0.00    +0.000 C 
ATOM     27  C   UNL     1      -2.451  52.067  28.528  0.00  0.00    +0.000 C 
ATOM     28  C   UNL     1      -3.945  51.942  28.759  0.00  0.00    +0.000 C 
ATOM     29  C   UNL     1      -1.935  53.487  28.590  0.00  0.00    +0.000 C 
BRANCH  26  30
ATOM     30  C   UNL     1      -0.216  51.107  28.065  0.00  0.00    +0.000 C 
ATOM     31  C   UNL     1       1.281  51.350  27.840  0.00  0.00    +0.000 C 
ENDBRANCH  26  30
ENDBRANCH  25  26
ENDBRANCH  22  24
ENDBRANCH   5  22
TORSDOF 5
ENDMDL
MODEL 4
REMARK VINA RESULT:      -7.2      3.419     10.553
REMARK  Name = 222284_BetaSitosterol.pdbqt.pdb
REMARK  5 active torsions:
REMARK  status: ('A' for Active; 'I' for Inactive)
REMARK    1  A    between atoms: C_5  and  C_22
REMARK    2  A    between atoms: C_19  and  O_20
REMARK    3  A    between atoms: C_22  and  C_24
REMARK    4  A    between atoms: C_25  and  C_26
REMARK    5  A    between atoms: C_26  and  C_30
REMARK                            x       y       z     vdW  Elec       q    Type
REMARK                         _______ _______ _______ _____ _____    ______ ____
ROOT
ATOM      1  C   UNL     1      -8.175  49.018  25.432  0.00  0.00    +0.000 C 
ATOM      2  C   UNL     1      -7.320  47.670  25.196  0.00  0.00    +0.000 C 
ATOM      3  C   UNL     1      -5.936  47.523  25.691  0.00  0.00    +0.000 C 
ATOM      4  C   UNL     1      -5.252  48.425  26.688  0.00  0.00    +0.000 C 
ATOM      5  C   UNL     1      -9.554  48.506  25.818  0.00  0.00    +0.000 C 
ATOM      6  C   UNL     1      -7.483  49.722  26.513  0.00  0.00    +0.000 C 
ATOM      7  C   UNL     1      -3.767  48.268  27.114  0.00  0.00    +0.000 C 
ATOM      8  C   UNL     1      -8.232  46.572  25.293  0.00  0.00    +0.000 C 
ATOM      9  C   UNL     1      -6.113  49.479  27.098  0.00  0.00    +0.000 C 
ATOM     10  C   UNL     1      -9.583  47.085  25.713  0.00  0.00    +0.000 C 
ATOM     11  C   UNL     1      -5.153  46.394  25.347  0.00  0.00    +0.000 C 
ATOM     12  C   UNL     1      -8.215  49.805  24.097  0.00  0.00    +0.000 C 
ATOM     13  C   UNL     1      -3.115  46.795  26.748  0.00  0.00    +0.000 C 
ATOM     14  C   UNL     1      -3.645  48.355  28.599  0.00  0.00    +0.000 C 
ATOM     15  C   UNL     1      -3.790  46.090  25.891  0.00  0.00    +0.000 C 
ATOM     16  C   UNL     1      -2.913  49.344  26.383  0.00  0.00    +0.000 C 
ATOM     17  C   UNL     1      -2.498  46.099  27.853  0.00  0.00    +0.000 C 
ATOM     18  C   UNL     1      -2.995  47.470  29.677  0.00  0.00    +0.000 C 
ATOM     19  C   UNL     1      -2.354  46.264  29.267  0.00  0.00    +0.000 C 
ENDROOT
BRANCH  19  20
ATOM     20  O   UNL     1      -1.285  45.761  29.950  0.00  0.00    +0.000 OA
ATOM     21  H   UNL     1      -1.060  44.865  29.648  0.00  0.00    +0.000 HD
ENDBRANCH  19  20
BRANCH   5  22
ATOM     22  C   UNL     1     -10.631  49.327  26.275  0.00  0.00    +0.000 C 
ATOM     23  C   UNL     1     -10.802  49.705  27.724  0.00  0.00    +0.000 C 
BRANCH  22  24
ATOM     24  C   UNL     1     -11.606  49.859  25.387  0.00  0.00    +0.000 C 
ATOM     25  C   UNL     1     -12.664  50.456  24.448  0.00  0.00    +0.000 C 
BRANCH  25  26
ATOM     26  C   UNL     1     -13.660  51.013  23.589  0.00  0.00    +0.000 C 
ATOM     27  C   UNL     1     -15.006  50.483  23.583  0.00  0.00    +0.000 C 
ATOM     28  C   UNL     1     -15.435  49.341  24.485  0.00  0.00    +0.000 C 
ATOM     29  C   UNL     1     -16.100  50.990  22.669  0.00  0.00    +0.000 C 
BRANCH  26  30
ATOM     30  C   UNL     1     -13.333  52.101  22.737  0.00  0.00    +0.000 C 
ATOM     31  C   UNL     1     -12.999  53.246  21.774  0.00  0.00    +0.000 C 
ENDBRANCH  26  30
ENDBRANCH  25  26
ENDBRANCH  22  24
ENDBRANCH   5  22
TORSDOF 5
ENDMDL
MODEL 5
REMARK VINA RESULT:      -7.2      3.625      9.357
REMARK  Name = 222284_BetaSitosterol.pdbqt.pdb
REMARK  5 active torsions:
REMARK  status: ('A' for Active; 'I' for Inactive)
REMARK    1  A    between atoms: C_5  and  C_22
REMARK    2  A    between atoms: C_19  and  O_20
REMARK    3  A    between atoms: C_22  and  C_24
REMARK    4  A    between atoms: C_25  and  C_26
REMARK    5  A    between atoms: C_26  and  C_30
REMARK                            x       y       z     vdW  Elec       q    Type
REMARK                         _______ _______ _______ _____ _____    ______ ____
ROOT
ATOM      1  C   UNL     1      -6.483  48.216  25.384  0.00  0.00    +0.000 C 
ATOM      2  C   UNL     1      -5.333  47.098  25.552  0.00  0.00    +0.000 C 
ATOM      3  C   UNL     1      -4.018  47.410  26.147  0.00  0.00    +0.000 C 
ATOM      4  C   UNL     1      -3.669  48.659  26.917  0.00  0.00    +0.000 C 
ATOM      5  C   UNL     1      -7.752  47.493  25.808  0.00  0.00    +0.000 C 
ATOM      6  C   UNL     1      -6.093  49.302  26.286  0.00  0.00    +0.000 C 
ATOM      7  C   UNL     1      -2.245  48.970  27.455  0.00  0.00    +0.000 C 
ATOM      8  C   UNL     1      -5.988  45.867  25.874  0.00  0.00    +0.000 C 
ATOM      9  C   UNL     1      -4.781  49.541  26.992  0.00  0.00    +0.000 C 
ATOM     10  C   UNL     1      -7.458  46.124  26.070  0.00  0.00    +0.000 C 
ATOM     11  C   UNL     1      -2.972  46.455  26.151  0.00  0.00    +0.000 C 
ATOM     12  C   UNL     1      -6.539  48.632  23.891  0.00  0.00    +0.000 C 
ATOM     13  C   UNL     1      -1.249  47.654  27.517  0.00  0.00    +0.000 C 
ATOM     14  C   UNL     1      -2.319  49.432  28.872  0.00  0.00    +0.000 C 
ATOM     15  C   UNL     1      -1.648  46.625  26.833  0.00  0.00    +0.000 C 
ATOM     16  C   UNL     1      -1.568  50.015  26.523  0.00  0.00    +0.000 C 
ATOM     17  C   UNL     1      -0.628  47.407  28.798  0.00  0.00    +0.000 C 
ATOM     18  C   UNL     1      -1.621  49.009  30.177  0.00  0.00    +0.000 C 
ATOM     19  C   UNL     1      -0.688  47.932  30.128  0.00  0.00    +0.000 C 
ENDROOT
BRANCH  19  20
ATOM     20  O   UNL     1       0.377  47.876  30.978  0.00  0.00    +0.000 OA
ATOM     21  H   UNL     1       0.172  47.357  31.774  0.00  0.00    +0.000 HD
ENDBRANCH  19  20
BRANCH   5  22
ATOM     22  C   UNL     1      -9.029  48.115  25.975  0.00  0.00    +0.000 C 
ATOM     23  C   UNL     1     -10.317  47.330  25.965  0.00  0.00    +0.000 C 
BRANCH  22  24
ATOM     24  C   UNL     1      -9.169  49.514  26.181  0.00  0.00    +0.000 C 
ATOM     25  C   UNL     1      -9.303  51.024  26.427  0.00  0.00    +0.000 C 
BRANCH  25  26
ATOM     26  C   UNL     1      -9.430  52.425  26.674  0.00  0.00    +0.000 C 
ATOM     27  C   UNL     1      -8.520  53.098  27.575  0.00  0.00    +0.000 C 
ATOM     28  C   UNL     1      -7.390  52.373  28.282  0.00  0.00    +0.000 C 
ATOM     29  C   UNL     1      -8.621  54.567  27.922  0.00  0.00    +0.000 C 
BRANCH  26  30
ATOM     30  C   UNL     1     -10.451  53.169  26.027  0.00  0.00    +0.000 C 
ATOM     31  C   UNL     1     -11.515  53.998  25.298  0.00  0.00    +0.000 C 
ENDBRANCH  26  30
ENDBRANCH  25  26
ENDBRANCH  22  24
ENDBRANCH   5  22
TORSDOF 5
ENDMDL
MODEL 6
REMARK VINA RESULT:      -7.2      3.689      8.945
REMARK  Name = 222284_BetaSitosterol.pdbqt.pdb
REMARK  5 active torsions:
REMARK  status: ('A' for Active; 'I' for Inactive)
REMARK    1  A    between atoms: C_5  and  C_22
REMARK    2  A    between atoms: C_19  and  O_20
REMARK    3  A    between atoms: C_22  and  C_24
REMARK    4  A    between atoms: C_25  and  C_26
REMARK    5  A    between atoms: C_26  and  C_30
REMARK                            x       y       z     vdW  Elec       q    Type
REMARK                         _______ _______ _______ _____ _____    ______ ____
ROOT
ATOM      1  C   UNL     1      -6.402  48.107  25.307  0.00  0.00    +0.000 C 
ATOM      2  C   UNL     1      -5.194  47.050  25.467  0.00  0.00    +0.000 C 
ATOM      3  C   UNL     1      -3.916  47.414  26.111  0.00  0.00    +0.000 C 
ATOM      4  C   UNL     1      -3.660  48.651  26.935  0.00  0.00    +0.000 C 
ATOM      5  C   UNL     1      -7.638  47.297  25.668  0.00  0.00    +0.000 C 
ATOM      6  C   UNL     1      -6.100  49.178  26.258  0.00  0.00    +0.000 C 
ATOM      7  C   UNL     1      -2.272  49.023  27.525  0.00  0.00    +0.000 C 
ATOM      8  C   UNL     1      -5.785  45.773  25.727  0.00  0.00    +0.000 C 
ATOM      9  C   UNL     1      -4.823  49.465  27.010  0.00  0.00    +0.000 C 
ATOM     10  C   UNL     1      -7.272  45.938  25.889  0.00  0.00    +0.000 C 
ATOM     11  C   UNL     1      -2.816  46.521  26.111  0.00  0.00    +0.000 C 
ATOM     12  C   UNL     1      -6.442  48.574  23.829  0.00  0.00    +0.000 C 
ATOM     13  C   UNL     1      -1.203  47.765  27.568  0.00  0.00    +0.000 C 
ATOM     14  C   UNL     1      -2.410  49.426  28.955  0.00  0.00    +0.000 C 
ATOM     15  C   UNL     1      -1.523  46.741  26.837  0.00  0.00    +0.000 C 
ATOM     16  C   UNL     1      -1.632  50.140  26.651  0.00  0.00    +0.000 C 
ATOM     17  C   UNL     1      -0.603  47.506  28.857  0.00  0.00    +0.000 C 
ATOM     18  C   UNL     1      -1.724  48.996  30.263  0.00  0.00    +0.000 C 
ATOM     19  C   UNL     1      -0.729  47.976  30.203  0.00  0.00    +0.000 C 
ENDROOT
BRANCH  19  20
ATOM     20  O   UNL     1       0.314  47.950  31.081  0.00  0.00    +0.000 OA
ATOM     21  H   UNL     1       0.118  47.391  31.851  0.00  0.00    +0.000 HD
ENDBRANCH  19  20
BRANCH   5  22
ATOM     22  C   UNL     1      -8.953  47.837  25.820  0.00  0.00    +0.000 C 
ATOM     23  C   UNL     1      -9.916  47.957  24.666  0.00  0.00    +0.000 C 
BRANCH  22  24
ATOM     24  C   UNL     1      -9.449  48.281  27.076  0.00  0.00    +0.000 C 
ATOM     25  C   UNL     1      -9.974  48.737  28.446  0.00  0.00    +0.000 C 
BRANCH  25  26
ATOM     26  C   UNL     1     -10.468  49.143  29.723  0.00  0.00    +0.000 C 
ATOM     27  C   UNL     1      -9.654  48.990  30.909  0.00  0.00    +0.000 C 
ATOM     28  C   UNL     1      -8.250  48.418  30.864  0.00  0.00    +0.000 C 
ATOM     29  C   UNL     1     -10.127  49.353  32.300  0.00  0.00    +0.000 C 
BRANCH  26  30
ATOM     30  C   UNL     1     -11.765  49.710  29.833  0.00  0.00    +0.000 C 
ATOM     31  C   UNL     1     -13.142  50.370  29.963  0.00  0.00    +0.000 C 
ENDBRANCH  26  30
ENDBRANCH  25  26
ENDBRANCH  22  24
ENDBRANCH   5  22
TORSDOF 5
ENDMDL
MODEL 7
REMARK VINA RESULT:      -7.1      5.592      7.032
REMARK  Name = 222284_BetaSitosterol.pdbqt.pdb
REMARK  5 active torsions:
REMARK  status: ('A' for Active; 'I' for Inactive)
REMARK    1  A    between atoms: C_5  and  C_22
REMARK    2  A    between atoms: C_19  and  O_20
REMARK    3  A    between atoms: C_22  and  C_24
REMARK    4  A    between atoms: C_25  and  C_26
REMARK    5  A    between atoms: C_26  and  C_30
REMARK                            x       y       z     vdW  Elec       q    Type
REMARK                         _______ _______ _______ _____ _____    ______ ____
ROOT
ATOM      1  C   UNL     1      -2.757  50.460  28.348  0.00  0.00    +0.000 C 
ATOM      2  C   UNL     1      -2.935  49.096  27.507  0.00  0.00    +0.000 C 
ATOM      3  C   UNL     1      -4.266  48.529  27.206  0.00  0.00    +0.000 C 
ATOM      4  C   UNL     1      -5.587  49.239  27.363  0.00  0.00    +0.000 C 
ATOM      5  C   UNL     1      -1.672  51.210  27.592  0.00  0.00    +0.000 C 
ATOM      6  C   UNL     1      -4.068  51.111  28.300  0.00  0.00    +0.000 C 
ATOM      7  C   UNL     1      -6.963  48.567  27.106  0.00  0.00    +0.000 C 
ATOM      8  C   UNL     1      -1.913  49.083  26.506  0.00  0.00    +0.000 C 
ATOM      9  C   UNL     1      -5.403  50.555  27.868  0.00  0.00    +0.000 C 
ATOM     10  C   UNL     1      -1.173  50.393  26.537  0.00  0.00    +0.000 C 
ATOM     11  C   UNL     1      -4.398  47.257  26.596  0.00  0.00    +0.000 C 
ATOM     12  C   UNL     1      -2.296  50.087  29.781  0.00  0.00    +0.000 C 
ATOM     13  C   UNL     1      -6.874  47.170  26.228  0.00  0.00    +0.000 C 
ATOM     14  C   UNL     1      -7.826  49.458  26.276  0.00  0.00    +0.000 C 
ATOM     15  C   UNL     1      -5.689  46.647  26.140  0.00  0.00    +0.000 C 
ATOM     16  C   UNL     1      -7.617  48.210  28.472  0.00  0.00    +0.000 C 
ATOM     17  C   UNL     1      -7.718  47.120  25.057  0.00  0.00    +0.000 C 
ATOM     18  C   UNL     1      -8.627  49.270  24.976  0.00  0.00    +0.000 C 
ATOM     19  C   UNL     1      -8.587  47.998  24.333  0.00  0.00    +0.000 C 
ENDROOT
BRANCH  19  20
ATOM     20  O   UNL     1      -9.647  47.534  23.611  0.00  0.00    +0.000 OA
ATOM     21  H   UNL     1     -10.492  47.751  24.039  0.00  0.00    +0.000 HD
ENDBRANCH  19  20
BRANCH   5  22
ATOM     22  C   UNL     1      -1.264  52.553  27.866  0.00  0.00    +0.000 C 
ATOM     23  C   UNL     1      -1.753  53.316  29.071  0.00  0.00    +0.000 C 
BRANCH  22  24
ATOM     24  C   UNL     1      -0.353  53.253  27.030  0.00  0.00    +0.000 C 
ATOM     25  C   UNL     1       0.652  53.990  26.132  0.00  0.00    +0.000 C 
BRANCH  25  26
ATOM     26  C   UNL     1       1.600  54.673  25.310  0.00  0.00    +0.000 C 
ATOM     27  C   UNL     1       1.157  55.511  24.217  0.00  0.00    +0.000 C 
ATOM     28  C   UNL     1      -0.311  55.724  23.898  0.00  0.00    +0.000 C 
ATOM     29  C   UNL     1       2.102  56.227  23.277  0.00  0.00    +0.000 C 
BRANCH  26  30
ATOM     30  C   UNL     1       2.989  54.538  25.570  0.00  0.00    +0.000 C 
ATOM     31  C   UNL     1       4.483  54.423  25.894  0.00  0.00    +0.000 C 
ENDBRANCH  26  30
ENDBRANCH  25  26
ENDBRANCH  22  24
ENDBRANCH   5  22
TORSDOF 5
ENDMDL
MODEL 8
REMARK VINA RESULT:      -7.0      3.205      5.783
REMARK  Name = 222284_BetaSitosterol.pdbqt.pdb
REMARK  5 active torsions:
REMARK  status: ('A' for Active; 'I' for Inactive)
REMARK    1  A    between atoms: C_5  and  C_22
REMARK    2  A    between atoms: C_19  and  O_20
REMARK    3  A    between atoms: C_22  and  C_24
REMARK    4  A    between atoms: C_25  and  C_26
REMARK    5  A    between atoms: C_26  and  C_30
REMARK                            x       y       z     vdW  Elec       q    Type
REMARK                         _______ _______ _______ _____ _____    ______ ____
ROOT
ATOM      1  C   UNL     1      -9.398  49.540  26.215  0.00  0.00    +0.000 C 
ATOM      2  C   UNL     1     -10.671  48.694  26.727  0.00  0.00    +0.000 C 
ATOM      3  C   UNL     1     -12.058  49.154  26.509  0.00  0.00    +0.000 C 
ATOM      4  C   UNL     1     -12.487  50.256  25.573  0.00  0.00    +0.000 C 
ATOM      5  C   UNL     1      -8.473  48.482  25.633  0.00  0.00    +0.000 C 
ATOM      6  C   UNL     1      -9.934  50.468  25.217  0.00  0.00    +0.000 C 
ATOM      7  C   UNL     1     -13.953  50.752  25.441  0.00  0.00    +0.000 C 
ATOM      8  C   UNL     1     -10.347  47.309  26.569  0.00  0.00    +0.000 C 
ATOM      9  C   UNL     1     -11.367  50.835  24.917  0.00  0.00    +0.000 C 
ATOM     10  C   UNL     1      -9.023  47.188  25.863  0.00  0.00    +0.000 C 
ATOM     11  C   UNL     1     -13.155  48.474  27.093  0.00  0.00    +0.000 C 
ATOM     12  C   UNL     1      -8.758  50.241  27.441  0.00  0.00    +0.000 C 
ATOM     13  C   UNL     1     -15.074  49.706  26.056  0.00  0.00    +0.000 C 
ATOM     14  C   UNL     1     -14.328  50.874  24.002  0.00  0.00    +0.000 C 
ATOM     15  C   UNL     1     -14.599  48.784  26.837  0.00  0.00    +0.000 C 
ATOM     16  C   UNL     1     -14.106  52.095  26.212  0.00  0.00    +0.000 C 
ATOM     17  C   UNL     1     -16.138  49.336  25.151  0.00  0.00    +0.000 C 
ATOM     18  C   UNL     1     -15.495  50.349  23.148  0.00  0.00    +0.000 C 
ATOM     19  C   UNL     1     -16.485  49.539  23.778  0.00  0.00    +0.000 C 
ENDROOT
BRANCH  19  20
ATOM     20  O   UNL     1     -17.781  49.541  23.351  0.00  0.00    +0.000 OA
ATOM     21  H   UNL     1     -18.032  48.682  22.971  0.00  0.00    +0.000 HD
ENDBRANCH  19  20
BRANCH   5  22
ATOM     22  C   UNL     1      -7.269  48.756  24.914  0.00  0.00    +0.000 C 
ATOM     23  C   UNL     1      -7.261  49.067  23.438  0.00  0.00    +0.000 C 
BRANCH  22  24
ATOM     24  C   UNL     1      -5.996  48.773  25.546  0.00  0.00    +0.000 C 
ATOM     25  C   UNL     1      -4.612  48.812  26.211  0.00  0.00    +0.000 C 
BRANCH  25  26
ATOM     26  C   UNL     1      -3.317  48.847  26.811  0.00  0.00    +0.000 C 
ATOM     27  C   UNL     1      -2.908  49.980  27.613  0.00  0.00    +0.000 C 
ATOM     28  C   UNL     1      -3.820  51.164  27.873  0.00  0.00    +0.000 C 
ATOM     29  C   UNL     1      -1.538  50.109  28.241  0.00  0.00    +0.000 C 
BRANCH  26  30
ATOM     30  C   UNL     1      -2.421  47.760  26.629  0.00  0.00    +0.000 C 
ATOM     31  C   UNL     1      -1.420  46.620  26.407  0.00  0.00    +0.000 C 
ENDBRANCH  26  30
ENDBRANCH  25  26
ENDBRANCH  22  24
ENDBRANCH   5  22
TORSDOF 5
ENDMDL
MODEL 9
REMARK VINA RESULT:      -6.8     20.287     23.679
REMARK  Name = 222284_BetaSitosterol.pdbqt.pdb
REMARK  5 active torsions:
REMARK  status: ('A' for Active; 'I' for Inactive)
REMARK    1  A    between atoms: C_5  and  C_22
REMARK    2  A    between atoms: C_19  and  O_20
REMARK    3  A    between atoms: C_22  and  C_24
REMARK    4  A    between atoms: C_25  and  C_26
REMARK    5  A    between atoms: C_26  and  C_30
REMARK                            x       y       z     vdW  Elec       q    Type
REMARK                         _______ _______ _______ _____ _____    ______ ____
ROOT
ATOM      1  C   UNL     1     -25.340  44.641  17.815  0.00  0.00    +0.000 C 
ATOM      2  C   UNL     1     -24.731  43.929  19.127  0.00  0.00    +0.000 C 
ATOM      3  C   UNL     1     -24.818  42.469  19.338  0.00  0.00    +0.000 C 
ATOM      4  C   UNL     1     -25.193  41.445  18.296  0.00  0.00    +0.000 C 
ATOM      5  C   UNL     1     -24.268  45.645  17.420  0.00  0.00    +0.000 C 
ATOM      6  C   UNL     1     -25.521  43.560  16.844  0.00  0.00    +0.000 C 
ATOM      7  C   UNL     1     -25.344  39.928  18.594  0.00  0.00    +0.000 C 
ATOM      8  C   UNL     1     -23.528  44.627  19.464  0.00  0.00    +0.000 C 
ATOM      9  C   UNL     1     -25.481  42.065  17.050  0.00  0.00    +0.000 C 
ATOM     10  C   UNL     1     -23.230  45.645  18.396  0.00  0.00    +0.000 C 
ATOM     11  C   UNL     1     -24.410  41.881  20.560  0.00  0.00    +0.000 C 
ATOM     12  C   UNL     1     -26.660  45.348  18.218  0.00  0.00    +0.000 C 
ATOM     13  C   UNL     1     -24.642  39.449  20.010  0.00  0.00    +0.000 C 
ATOM     14  C   UNL     1     -24.638  39.125  17.553  0.00  0.00    +0.000 C 
ATOM     15  C   UNL     1     -24.342  40.409  20.831  0.00  0.00    +0.000 C 
ATOM     16  C   UNL     1     -26.857  39.579  18.690  0.00  0.00    +0.000 C 
ATOM     17  C   UNL     1     -23.713  38.347  19.898  0.00  0.00    +0.000 C 
ATOM     18  C   UNL     1     -23.592  37.998  17.593  0.00  0.00    +0.000 C 
ATOM     19  C   UNL     1     -23.113  37.562  18.863  0.00  0.00    +0.000 C 
ENDROOT
BRANCH  19  20
ATOM     20  O   UNL     1     -22.718  36.273  19.069  0.00  0.00    +0.000 OA
ATOM     21  H   UNL     1     -22.849  35.728  18.275  0.00  0.00    +0.000 HD
ENDBRANCH  19  20
BRANCH   5  22
ATOM     22  C   UNL     1     -24.279  46.423  16.220  0.00  0.00    +0.000 C 
ATOM     23  C   UNL     1     -23.764  47.839  16.170  0.00  0.00    +0.000 C 
BRANCH  22  24
ATOM     24  C   UNL     1     -24.758  45.905  14.987  0.00  0.00    +0.000 C 
ATOM     25  C   UNL     1     -25.262  45.365  13.640  0.00  0.00    +0.000 C 
BRANCH  25  26
ATOM     26  C   UNL     1     -25.734  44.882  12.382  0.00  0.00    +0.000 C 
ATOM     27  C   UNL     1     -26.397  43.600  12.288  0.00  0.00    +0.000 C 
ATOM     28  C   UNL     1     -26.643  42.720  13.499  0.00  0.00    +0.000 C 
ATOM     29  C   UNL     1     -26.881  43.002  10.985  0.00  0.00    +0.000 C 
BRANCH  26  30
ATOM     30  C   UNL     1     -25.559  45.666  11.211  0.00  0.00    +0.000 C 
ATOM     31  C   UNL     1     -25.317  46.509   9.954  0.00  0.00    +0.000 C 
ENDBRANCH  26  30
ENDBRANCH  25  26
ENDBRANCH  22  24
ENDBRANCH   5  22
TORSDOF 5
ENDMDL
