MODEL 1
REMARK VINA RESULT:      -6.5      0.000      0.000
REMARK  Name = 25023738_BI-D-1870.pdbqt.pdb
REMARK  4 active torsions:
REMARK  status: ('A' for Active; 'I' for Inactive)
REMARK    1  A    between atoms: N_2  and  C_26
REMARK    2  A    between atoms: N_14  and  C_16
REMARK    3  A    between atoms: C_20  and  O_24
REMARK    4  A    between atoms: C_27  and  C_28
REMARK                            x       y       z     vdW  Elec       q    Type
REMARK                         _______ _______ _______ _____ _____    ______ ____
ROOT
ATOM      1  O   UNL     1     -24.581  37.038   5.492  0.00  0.00    +0.000 OA
ATOM      2  N   UNL     1     -21.297  38.556   5.515  0.00  0.00    +0.000 N 
ATOM      3  N   UNL     1     -24.003  39.276   5.198  0.00  0.00    +0.000 N 
ATOM      4  N   UNL     1     -20.655  40.835   5.219  0.00  0.00    +0.000 NA
ATOM      5  N   UNL     1     -22.232  42.527   4.841  0.00  0.00    +0.000 NA
ATOM      6  C   UNL     1     -22.253  37.567   5.591  0.00  0.00    +0.000 C 
ATOM      7  C   UNL     1     -21.636  39.905   5.284  0.00  0.00    +0.000 A 
ATOM      8  C   UNL     1     -23.713  37.914   5.426  0.00  0.00    +0.000 C 
ATOM      9  C   UNL     1     -22.962  40.242   5.131  0.00  0.00    +0.000 A 
ATOM     10  C   UNL     1     -21.838  36.121   5.842  0.00  0.00    +0.000 C 
ATOM     11  C   UNL     1     -25.352  39.801   5.014  0.00  0.00    +0.000 C 
ATOM     12  C   UNL     1     -23.189  41.584   4.910  0.00  0.00    +0.000 A 
ATOM     13  C   UNL     1     -20.974  42.119   5.000  0.00  0.00    +0.000 A 
ATOM     14  N   UNL     1     -19.997  43.102   4.927  0.00  0.00    +0.000 N 
ATOM     15  H   UNL     1     -20.409  44.011   4.757  0.00  0.00    +0.000 HD
ENDROOT
BRANCH  14  16
ATOM     16  C   UNL     1     -18.604  43.035   5.047  0.00  0.00    +0.000 A 
ATOM     17  C   UNL     1     -17.804  43.602   4.045  0.00  0.00    +0.000 A 
ATOM     18  C   UNL     1     -16.414  43.556   4.131  0.00  0.00    +0.000 A 
ATOM     19  F   UNL     1     -15.683  44.109   3.152  0.00  0.00    +0.000 F 
ATOM     20  C   UNL     1     -15.795  42.944   5.213  0.00  0.00    +0.000 A 
ATOM     21  C   UNL     1     -16.580  42.380   6.208  0.00  0.00    +0.000 A 
ATOM     22  F   UNL     1     -15.994  41.788   7.259  0.00  0.00    +0.000 F 
ATOM     23  C   UNL     1     -17.969  42.424   6.131  0.00  0.00    +0.000 A 
BRANCH  20  24
ATOM     24  O   UNL     1     -14.431  42.902   5.290  0.00  0.00    +0.000 OA
ATOM     25  H   UNL     1     -14.144  43.583   5.928  0.00  0.00    +0.000 HD
ENDBRANCH  20  24
ENDBRANCH  14  16
BRANCH   2  26
ATOM     26  C   UNL     1     -19.883  38.224   5.672  0.00  0.00    +0.000 C 
ATOM     27  C   UNL     1     -18.399  37.873   5.833  0.00  0.00    +0.000 C 
BRANCH  27  28
ATOM     28  C   UNL     1     -17.031  37.553   5.985  0.00  0.00    +0.000 C 
ATOM     29  C   UNL     1     -16.580  36.130   5.864  0.00  0.00    +0.000 C 
ATOM     30  C   UNL     1     -16.046  38.630   6.319  0.00  0.00    +0.000 C 
ENDBRANCH  27  28
ENDBRANCH   2  26
TORSDOF 4
ENDMDL
MODEL 2
REMARK VINA RESULT:      -6.2     24.359     26.890
REMARK  Name = 25023738_BI-D-1870.pdbqt.pdb
REMARK  4 active torsions:
REMARK  status: ('A' for Active; 'I' for Inactive)
REMARK    1  A    between atoms: N_2  and  C_26
REMARK    2  A    between atoms: N_14  and  C_16
REMARK    3  A    between atoms: C_20  and  O_24
REMARK    4  A    between atoms: C_27  and  C_28
REMARK                            x       y       z     vdW  Elec       q    Type
REMARK                         _______ _______ _______ _____ _____    ______ ____
ROOT
ATOM      1  O   UNL     1     -11.073  51.808  25.510  0.00  0.00    +0.000 OA
ATOM      2  N   UNL     1      -7.956  50.277  26.521  0.00  0.00    +0.000 N 
ATOM      3  N   UNL     1     -10.324  49.635  25.135  0.00  0.00    +0.000 N 
ATOM      4  N   UNL     1      -7.144  48.062  26.163  0.00  0.00    +0.000 NA
ATOM      5  N   UNL     1      -8.395  46.458  24.999  0.00  0.00    +0.000 NA
ATOM      6  C   UNL     1      -8.920  51.252  26.380  0.00  0.00    +0.000 C 
ATOM      7  C   UNL     1      -8.124  48.980  25.995  0.00  0.00    +0.000 A 
ATOM      8  C   UNL     1     -10.201  50.945  25.644  0.00  0.00    +0.000 C 
ATOM      9  C   UNL     1      -9.287  48.680  25.320  0.00  0.00    +0.000 A 
ATOM     10  C   UNL     1      -8.692  52.640  26.968  0.00  0.00    +0.000 C 
ATOM     11  C   UNL     1     -11.487  49.154  24.397  0.00  0.00    +0.000 C 
ATOM     12  C   UNL     1      -9.355  47.388  24.844  0.00  0.00    +0.000 A 
ATOM     13  C   UNL     1      -7.302  46.827  25.663  0.00  0.00    +0.000 A 
ATOM     14  N   UNL     1      -6.319  45.858  25.815  0.00  0.00    +0.000 N 
ATOM     15  H   UNL     1      -6.599  44.988  25.379  0.00  0.00    +0.000 HD
ENDROOT
BRANCH  14  16
ATOM     16  C   UNL     1      -5.069  45.896  26.441  0.00  0.00    +0.000 A 
ATOM     17  C   UNL     1      -4.101  46.800  25.981  0.00  0.00    +0.000 A 
ATOM     18  C   UNL     1      -2.844  46.866  26.580  0.00  0.00    +0.000 A 
ATOM     19  F   UNL     1      -1.947  47.745  26.110  0.00  0.00    +0.000 F 
ATOM     20  C   UNL     1      -2.527  46.034  27.645  0.00  0.00    +0.000 A 
ATOM     21  C   UNL     1      -3.479  45.136  28.105  0.00  0.00    +0.000 A 
ATOM     22  F   UNL     1      -3.184  44.327  29.134  0.00  0.00    +0.000 F 
ATOM     23  C   UNL     1      -4.737  45.064  27.513  0.00  0.00    +0.000 A 
BRANCH  20  24
ATOM     24  O   UNL     1      -1.292  46.104  28.227  0.00  0.00    +0.000 OA
ATOM     25  H   UNL     1      -1.399  45.932  29.182  0.00  0.00    +0.000 HD
ENDBRANCH  20  24
ENDBRANCH  14  16
BRANCH   2  26
ATOM     26  C   UNL     1      -6.715  50.568  27.235  0.00  0.00    +0.000 C 
ATOM     27  C   UNL     1      -5.413  50.871  27.987  0.00  0.00    +0.000 C 
BRANCH  27  28
ATOM     28  C   UNL     1      -4.213  51.152  28.677  0.00  0.00    +0.000 C 
ATOM     29  C   UNL     1      -2.900  51.050  27.962  0.00  0.00    +0.000 C 
ATOM     30  C   UNL     1      -4.252  51.501  30.133  0.00  0.00    +0.000 C 
ENDBRANCH  27  28
ENDBRANCH   2  26
TORSDOF 4
ENDMDL
MODEL 3
REMARK VINA RESULT:      -6.1      1.683      2.566
REMARK  Name = 25023738_BI-D-1870.pdbqt.pdb
REMARK  4 active torsions:
REMARK  status: ('A' for Active; 'I' for Inactive)
REMARK    1  A    between atoms: N_2  and  C_26
REMARK    2  A    between atoms: N_14  and  C_16
REMARK    3  A    between atoms: C_20  and  O_24
REMARK    4  A    between atoms: C_27  and  C_28
REMARK                            x       y       z     vdW  Elec       q    Type
REMARK                         _______ _______ _______ _____ _____    ______ ____
ROOT
ATOM      1  O   UNL     1     -21.720  33.890   6.240  0.00  0.00    +0.000 OA
ATOM      2  N   UNL     1     -19.649  36.833   5.868  0.00  0.00    +0.000 N 
ATOM      3  N   UNL     1     -22.366  36.089   5.824  0.00  0.00    +0.000 N 
ATOM      4  N   UNL     1     -20.261  39.099   5.442  0.00  0.00    +0.000 NA
ATOM      5  N   UNL     1     -22.498  39.752   5.189  0.00  0.00    +0.000 NA
ATOM      6  C   UNL     1     -19.971  35.509   6.074  0.00  0.00    +0.000 C 
ATOM      7  C   UNL     1     -20.635  37.814   5.638  0.00  0.00    +0.000 A 
ATOM      8  C   UNL     1     -21.416  35.073   6.057  0.00  0.00    +0.000 C 
ATOM      9  C   UNL     1     -21.960  37.436   5.619  0.00  0.00    +0.000 A 
ATOM     10  C   UNL     1     -18.869  34.485   6.318  0.00  0.00    +0.000 C 
ATOM     11  C   UNL     1     -23.807  35.860   5.773  0.00  0.00    +0.000 C 
ATOM     12  C   UNL     1     -22.845  38.466   5.387  0.00  0.00    +0.000 A 
ATOM     13  C   UNL     1     -21.197  40.034   5.223  0.00  0.00    +0.000 A 
ATOM     14  N   UNL     1     -20.853  41.364   5.018  0.00  0.00    +0.000 N 
ATOM     15  H   UNL     1     -21.678  41.932   4.869  0.00  0.00    +0.000 HD
ENDROOT
BRANCH  14  16
ATOM     16  C   UNL     1     -19.611  42.006   4.989  0.00  0.00    +0.000 A 
ATOM     17  C   UNL     1     -19.293  42.830   3.901  0.00  0.00    +0.000 A 
ATOM     18  C   UNL     1     -18.065  43.486   3.838  0.00  0.00    +0.000 A 
ATOM     19  F   UNL     1     -17.798  44.266   2.780  0.00  0.00    +0.000 F 
ATOM     20  C   UNL     1     -17.132  43.335   4.855  0.00  0.00    +0.000 A 
ATOM     21  C   UNL     1     -17.439  42.520   5.936  0.00  0.00    +0.000 A 
ATOM     22  F   UNL     1     -16.547  42.366   6.925  0.00  0.00    +0.000 F 
ATOM     23  C   UNL     1     -18.664  41.862   6.007  0.00  0.00    +0.000 A 
BRANCH  20  24
ATOM     24  O   UNL     1     -15.930  43.981   4.786  0.00  0.00    +0.000 OA
ATOM     25  H   UNL     1     -15.805  44.475   5.619  0.00  0.00    +0.000 HD
ENDBRANCH  20  24
ENDBRANCH  14  16
BRANCH   2  26
ATOM     26  C   UNL     1     -18.252  37.260   5.881  0.00  0.00    +0.000 C 
ATOM     27  C   UNL     1     -16.786  37.711   5.899  0.00  0.00    +0.000 C 
BRANCH  27  28
ATOM     28  C   UNL     1     -15.435  38.123   5.911  0.00  0.00    +0.000 C 
ATOM     29  C   UNL     1     -15.098  39.580   5.819  0.00  0.00    +0.000 C 
ATOM     30  C   UNL     1     -14.343  37.099   5.964  0.00  0.00    +0.000 C 
ENDBRANCH  27  28
ENDBRANCH   2  26
TORSDOF 4
ENDMDL
MODEL 4
REMARK VINA RESULT:      -5.9      2.809      4.043
REMARK  Name = 25023738_BI-D-1870.pdbqt.pdb
REMARK  4 active torsions:
REMARK  status: ('A' for Active; 'I' for Inactive)
REMARK    1  A    between atoms: N_2  and  C_26
REMARK    2  A    between atoms: N_14  and  C_16
REMARK    3  A    between atoms: C_20  and  O_24
REMARK    4  A    between atoms: C_27  and  C_28
REMARK                            x       y       z     vdW  Elec       q    Type
REMARK                         _______ _______ _______ _____ _____    ______ ____
ROOT
ATOM      1  O   UNL     1     -20.979  32.456   7.037  0.00  0.00    +0.000 OA
ATOM      2  N   UNL     1     -18.655  35.094   6.183  0.00  0.00    +0.000 N 
ATOM      3  N   UNL     1     -21.315  34.761   7.053  0.00  0.00    +0.000 N 
ATOM      4  N   UNL     1     -18.951  37.462   6.184  0.00  0.00    +0.000 NA
ATOM      5  N   UNL     1     -20.983  38.456   6.798  0.00  0.00    +0.000 NA
ATOM      6  C   UNL     1     -19.125  33.815   6.385  0.00  0.00    +0.000 C 
ATOM      7  C   UNL     1     -19.465  36.229   6.398  0.00  0.00    +0.000 A 
ATOM      8  C   UNL     1     -20.544  33.596   6.851  0.00  0.00    +0.000 C 
ATOM      9  C   UNL     1     -20.763  36.051   6.823  0.00  0.00    +0.000 A 
ATOM     10  C   UNL     1     -18.212  32.619   6.138  0.00  0.00    +0.000 C 
ATOM     11  C   UNL     1     -22.704  34.750   7.501  0.00  0.00    +0.000 C 
ATOM     12  C   UNL     1     -21.470  37.219   7.005  0.00  0.00    +0.000 A 
ATOM     13  C   UNL     1     -19.719  38.542   6.388  0.00  0.00    +0.000 A 
ATOM     14  N   UNL     1     -19.228  39.824   6.179  0.00  0.00    +0.000 N 
ATOM     15  H   UNL     1     -19.936  40.520   6.379  0.00  0.00    +0.000 HD
ENDROOT
BRANCH  14  16
ATOM     16  C   UNL     1     -17.973  40.280   5.759  0.00  0.00    +0.000 A 
ATOM     17  C   UNL     1     -17.892  41.456   5.002  0.00  0.00    +0.000 A 
ATOM     18  C   UNL     1     -16.660  41.941   4.567  0.00  0.00    +0.000 A 
ATOM     19  F   UNL     1     -16.624  43.070   3.844  0.00  0.00    +0.000 F 
ATOM     20  C   UNL     1     -15.488  41.264   4.876  0.00  0.00    +0.000 A 
ATOM     21  C   UNL     1     -15.560  40.098   5.624  0.00  0.00    +0.000 A 
ATOM     22  F   UNL     1     -14.435  39.435   5.930  0.00  0.00    +0.000 F 
ATOM     23  C   UNL     1     -16.787  39.608   6.064  0.00  0.00    +0.000 A 
BRANCH  20  24
ATOM     24  O   UNL     1     -14.283  41.745   4.445  0.00  0.00    +0.000 OA
ATOM     25  H   UNL     1     -13.979  41.180   3.708  0.00  0.00    +0.000 HD
ENDBRANCH  20  24
ENDBRANCH  14  16
BRANCH   2  26
ATOM     26  C   UNL     1     -17.284  35.311   5.730  0.00  0.00    +0.000 C 
ATOM     27  C   UNL     1     -15.843  35.532   5.255  0.00  0.00    +0.000 C 
BRANCH  27  28
ATOM     28  C   UNL     1     -14.516  35.742   4.816  0.00  0.00    +0.000 C 
ATOM     29  C   UNL     1     -14.145  35.448   3.395  0.00  0.00    +0.000 C 
ATOM     30  C   UNL     1     -13.474  36.207   5.786  0.00  0.00    +0.000 C 
ENDBRANCH  27  28
ENDBRANCH   2  26
TORSDOF 4
ENDMDL
MODEL 5
REMARK VINA RESULT:      -5.9     23.891     26.498
REMARK  Name = 25023738_BI-D-1870.pdbqt.pdb
REMARK  4 active torsions:
REMARK  status: ('A' for Active; 'I' for Inactive)
REMARK    1  A    between atoms: N_2  and  C_26
REMARK    2  A    between atoms: N_14  and  C_16
REMARK    3  A    between atoms: C_20  and  O_24
REMARK    4  A    between atoms: C_27  and  C_28
REMARK                            x       y       z     vdW  Elec       q    Type
REMARK                         _______ _______ _______ _____ _____    ______ ____
ROOT
ATOM      1  O   UNL     1     -11.139  53.441  25.804  0.00  0.00    +0.000 OA
ATOM      2  N   UNL     1      -8.514  51.082  26.599  0.00  0.00    +0.000 N 
ATOM      3  N   UNL     1     -10.897  51.233  25.102  0.00  0.00    +0.000 N 
ATOM      4  N   UNL     1      -8.222  48.817  25.908  0.00  0.00    +0.000 NA
ATOM      5  N   UNL     1      -9.753  47.747  24.493  0.00  0.00    +0.000 NA
ATOM      6  C   UNL     1      -9.218  52.267  26.601  0.00  0.00    +0.000 C 
ATOM      7  C   UNL     1      -8.954  49.955  25.874  0.00  0.00    +0.000 A 
ATOM      8  C   UNL     1     -10.498  52.386  25.812  0.00  0.00    +0.000 C 
ATOM      9  C   UNL     1     -10.120  50.043  25.147  0.00  0.00    +0.000 A 
ATOM     10  C   UNL     1      -8.703  53.458  27.402  0.00  0.00    +0.000 C 
ATOM     11  C   UNL     1     -12.103  51.157  24.285  0.00  0.00    +0.000 C 
ATOM     12  C   UNL     1     -10.463  48.890  24.475  0.00  0.00    +0.000 A 
ATOM     13  C   UNL     1      -8.638  47.744  25.220  0.00  0.00    +0.000 A 
ATOM     14  N   UNL     1      -7.915  46.558  25.229  0.00  0.00    +0.000 N 
ATOM     15  H   UNL     1      -8.368  45.854  24.660  0.00  0.00    +0.000 HD
ENDROOT
BRANCH  14  16
ATOM     16  C   UNL     1      -6.721  46.205  25.868  0.00  0.00    +0.000 A 
ATOM     17  C   UNL     1      -6.773  45.418  27.026  0.00  0.00    +0.000 A 
ATOM     18  C   UNL     1      -5.604  45.046  27.689  0.00  0.00    +0.000 A 
ATOM     19  F   UNL     1      -5.696  44.292  28.795  0.00  0.00    +0.000 F 
ATOM     20  C   UNL     1      -4.365  45.451  27.212  0.00  0.00    +0.000 A 
ATOM     21  C   UNL     1      -4.306  46.232  26.067  0.00  0.00    +0.000 A 
ATOM     22  F   UNL     1      -3.114  46.629  25.596  0.00  0.00    +0.000 F 
ATOM     23  C   UNL     1      -5.468  46.606  25.398  0.00  0.00    +0.000 A 
BRANCH  20  24
ATOM     24  O   UNL     1      -3.224  45.084  27.868  0.00  0.00    +0.000 OA
ATOM     25  H   UNL     1      -2.984  45.803  28.483  0.00  0.00    +0.000 HD
ENDBRANCH  20  24
ENDBRANCH  14  16
BRANCH   2  26
ATOM     26  C   UNL     1      -7.275  50.962  27.363  0.00  0.00    +0.000 C 
ATOM     27  C   UNL     1      -5.976  50.831  28.168  0.00  0.00    +0.000 C 
BRANCH  27  28
ATOM     28  C   UNL     1      -4.777  50.715  28.906  0.00  0.00    +0.000 C 
ATOM     29  C   UNL     1      -4.810  50.813  30.401  0.00  0.00    +0.000 C 
ATOM     30  C   UNL     1      -3.473  50.547  28.190  0.00  0.00    +0.000 C 
ENDBRANCH  27  28
ENDBRANCH   2  26
TORSDOF 4
ENDMDL
MODEL 6
REMARK VINA RESULT:      -5.6     28.537     31.556
REMARK  Name = 25023738_BI-D-1870.pdbqt.pdb
REMARK  4 active torsions:
REMARK  status: ('A' for Active; 'I' for Inactive)
REMARK    1  A    between atoms: N_2  and  C_26
REMARK    2  A    between atoms: N_14  and  C_16
REMARK    3  A    between atoms: C_20  and  O_24
REMARK    4  A    between atoms: C_27  and  C_28
REMARK                            x       y       z     vdW  Elec       q    Type
REMARK                         _______ _______ _______ _____ _____    ______ ____
ROOT
ATOM      1  O   UNL     1       4.204  51.964  28.777  0.00  0.00    +0.000 OA
ATOM      2  N   UNL     1       1.730  49.335  28.542  0.00  0.00    +0.000 N 
ATOM      3  N   UNL     1       1.960  52.119  28.172  0.00  0.00    +0.000 N 
ATOM      4  N   UNL     1      -0.573  49.443  27.929  0.00  0.00    +0.000 NA
ATOM      5  N   UNL     1      -1.608  51.465  27.350  0.00  0.00    +0.000 NA
ATOM      6  C   UNL     1       2.953  49.930  28.767  0.00  0.00    +0.000 C 
ATOM      7  C   UNL     1       0.603  50.079  28.136  0.00  0.00    +0.000 A 
ATOM      8  C   UNL     1       3.115  51.418  28.580  0.00  0.00    +0.000 C 
ATOM      9  C   UNL     1       0.730  51.439  27.959  0.00  0.00    +0.000 A 
ATOM     10  C   UNL     1       4.143  49.083  29.207  0.00  0.00    +0.000 C 
ATOM     11  C   UNL     1       1.922  53.560  27.940  0.00  0.00    +0.000 C 
ATOM     12  C   UNL     1      -0.427  52.074  27.562  0.00  0.00    +0.000 A 
ATOM     13  C   UNL     1      -1.647  50.148  27.543  0.00  0.00    +0.000 A 
ATOM     14  N   UNL     1      -2.871  49.532  27.320  0.00  0.00    +0.000 N 
ATOM     15  H   UNL     1      -3.570  50.206  27.035  0.00  0.00    +0.000 HD
ENDROOT
BRANCH  14  16
ATOM     16  C   UNL     1      -3.267  48.194  27.421  0.00  0.00    +0.000 A 
ATOM     17  C   UNL     1      -4.153  47.670  26.470  0.00  0.00    +0.000 A 
ATOM     18  C   UNL     1      -4.570  46.342  26.538  0.00  0.00    +0.000 A 
ATOM     19  F   UNL     1      -5.419  45.878  25.608  0.00  0.00    +0.000 F 
ATOM     20  C   UNL     1      -4.114  45.512  27.553  0.00  0.00    +0.000 A 
ATOM     21  C   UNL     1      -3.238  46.023  28.499  0.00  0.00    +0.000 A 
ATOM     22  F   UNL     1      -2.790  45.231  29.484  0.00  0.00    +0.000 F 
ATOM     23  C   UNL     1      -2.816  47.348  28.437  0.00  0.00    +0.000 A 
BRANCH  20  24
ATOM     24  O   UNL     1      -4.528  44.210  27.614  0.00  0.00    +0.000 OA
ATOM     25  H   UNL     1      -5.438  44.167  27.263  0.00  0.00    +0.000 HD
ENDBRANCH  20  24
ENDBRANCH  14  16
BRANCH   2  26
ATOM     26  C   UNL     1       1.568  47.895  28.724  0.00  0.00    +0.000 C 
ATOM     27  C   UNL     1       1.393  46.383  28.914  0.00  0.00    +0.000 C 
BRANCH  27  28
ATOM     28  C   UNL     1       1.237  44.990  29.090  0.00  0.00    +0.000 C 
ATOM     29  C   UNL     1       0.121  44.466  29.940  0.00  0.00    +0.000 C 
ATOM     30  C   UNL     1       2.219  44.045  28.470  0.00  0.00    +0.000 C 
ENDBRANCH  27  28
ENDBRANCH   2  26
TORSDOF 4
ENDMDL
MODEL 7
REMARK VINA RESULT:      -5.4     27.507     30.156
REMARK  Name = 25023738_BI-D-1870.pdbqt.pdb
REMARK  4 active torsions:
REMARK  status: ('A' for Active; 'I' for Inactive)
REMARK    1  A    between atoms: N_2  and  C_26
REMARK    2  A    between atoms: N_14  and  C_16
REMARK    3  A    between atoms: C_20  and  O_24
REMARK    4  A    between atoms: C_27  and  C_28
REMARK                            x       y       z     vdW  Elec       q    Type
REMARK                         _______ _______ _______ _____ _____    ______ ____
ROOT
ATOM      1  O   UNL     1      -5.080  51.904  34.635  0.00  0.00    +0.000 OA
ATOM      2  N   UNL     1      -4.752  50.286  31.416  0.00  0.00    +0.000 N 
ATOM      3  N   UNL     1      -6.218  50.046  33.810  0.00  0.00    +0.000 N 
ATOM      4  N   UNL     1      -5.891  48.387  30.527  0.00  0.00    +0.000 NA
ATOM      5  N   UNL     1      -7.517  47.230  31.756  0.00  0.00    +0.000 NA
ATOM      6  C   UNL     1      -4.515  51.194  32.425  0.00  0.00    +0.000 C 
ATOM      7  C   UNL     1      -5.699  49.250  31.551  0.00  0.00    +0.000 A 
ATOM      8  C   UNL     1      -5.281  51.097  33.722  0.00  0.00    +0.000 C 
ATOM      9  C   UNL     1      -6.409  49.145  32.727  0.00  0.00    +0.000 A 
ATOM     10  C   UNL     1      -3.480  52.296  32.232  0.00  0.00    +0.000 C 
ATOM     11  C   UNL     1      -7.050  49.793  34.982  0.00  0.00    +0.000 C 
ATOM     12  C   UNL     1      -7.309  48.102  32.760  0.00  0.00    +0.000 A 
ATOM     13  C   UNL     1      -6.791  47.401  30.653  0.00  0.00    +0.000 A 
ATOM     14  N   UNL     1      -7.016  46.496  29.625  0.00  0.00    +0.000 N 
ATOM     15  H   UNL     1      -7.725  45.821  29.885  0.00  0.00    +0.000 HD
ENDROOT
BRANCH  14  16
ATOM     16  C   UNL     1      -6.448  46.379  28.352  0.00  0.00    +0.000 A 
ATOM     17  C   UNL     1      -5.952  45.135  27.937  0.00  0.00    +0.000 A 
ATOM     18  C   UNL     1      -5.379  44.980  26.675  0.00  0.00    +0.000 A 
ATOM     19  F   UNL     1      -4.916  43.774  26.316  0.00  0.00    +0.000 F 
ATOM     20  C   UNL     1      -5.289  46.058  25.805  0.00  0.00    +0.000 A 
ATOM     21  C   UNL     1      -5.777  47.293  26.209  0.00  0.00    +0.000 A 
ATOM     22  F   UNL     1      -5.697  48.342  25.377  0.00  0.00    +0.000 F 
ATOM     23  C   UNL     1      -6.352  47.456  27.467  0.00  0.00    +0.000 A 
BRANCH  20  24
ATOM     24  O   UNL     1      -4.726  45.899  24.571  0.00  0.00    +0.000 OA
ATOM     25  H   UNL     1      -3.773  46.097  24.646  0.00  0.00    +0.000 HD
ENDBRANCH  20  24
ENDBRANCH  14  16
BRANCH   2  26
ATOM     26  C   UNL     1      -4.012  50.375  30.159  0.00  0.00    +0.000 C 
ATOM     27  C   UNL     1      -3.231  50.470  28.843  0.00  0.00    +0.000 C 
BRANCH  27  28
ATOM     28  C   UNL     1      -2.516  50.555  27.628  0.00  0.00    +0.000 C 
ATOM     29  C   UNL     1      -2.855  49.634  26.497  0.00  0.00    +0.000 C 
ATOM     30  C   UNL     1      -1.387  51.530  27.493  0.00  0.00    +0.000 C 
ENDBRANCH  27  28
ENDBRANCH   2  26
TORSDOF 4
ENDMDL
MODEL 8
REMARK VINA RESULT:      -5.4     29.447     30.605
REMARK  Name = 25023738_BI-D-1870.pdbqt.pdb
REMARK  4 active torsions:
REMARK  status: ('A' for Active; 'I' for Inactive)
REMARK    1  A    between atoms: N_2  and  C_26
REMARK    2  A    between atoms: N_14  and  C_16
REMARK    3  A    between atoms: C_20  and  O_24
REMARK    4  A    between atoms: C_27  and  C_28
REMARK                            x       y       z     vdW  Elec       q    Type
REMARK                         _______ _______ _______ _____ _____    ______ ____
ROOT
ATOM      1  O   UNL     1      -1.119  61.937  17.751  0.00  0.00    +0.000 OA
ATOM      2  N   UNL     1       1.115  59.377  16.510  0.00  0.00    +0.000 N 
ATOM      3  N   UNL     1      -0.342  60.025  18.832  0.00  0.00    +0.000 N 
ATOM      4  N   UNL     1       1.938  57.407  17.575  0.00  0.00    +0.000 NA
ATOM      5  N   UNL     1       1.337  56.841  19.768  0.00  0.00    +0.000 NA
ATOM      6  C   UNL     1       0.358  60.529  16.510  0.00  0.00    +0.000 C 
ATOM      7  C   UNL     1       1.178  58.525  17.632  0.00  0.00    +0.000 A 
ATOM      8  C   UNL     1      -0.436  60.909  17.736  0.00  0.00    +0.000 C 
ATOM      9  C   UNL     1       0.461  58.854  18.760  0.00  0.00    +0.000 A 
ATOM     10  C   UNL     1       0.323  61.419  15.273  0.00  0.00    +0.000 C 
ATOM     11  C   UNL     1      -1.037  60.225  20.100  0.00  0.00    +0.000 C 
ATOM     12  C   UNL     1       0.588  57.959  19.800  0.00  0.00    +0.000 A 
ATOM     13  C   UNL     1       2.000  56.595  18.640  0.00  0.00    +0.000 A 
ATOM     14  N   UNL     1       2.768  55.438  18.621  0.00  0.00    +0.000 N 
ATOM     15  H   UNL     1       2.702  54.944  19.502  0.00  0.00    +0.000 HD
ENDROOT
BRANCH  14  16
ATOM     16  C   UNL     1       3.575  54.878  17.625  0.00  0.00    +0.000 A 
ATOM     17  C   UNL     1       4.945  54.710  17.870  0.00  0.00    +0.000 A 
ATOM     18  C   UNL     1       5.780  54.155  16.901  0.00  0.00    +0.000 A 
ATOM     19  F   UNL     1       7.085  54.011  17.174  0.00  0.00    +0.000 F 
ATOM     20  C   UNL     1       5.268  53.759  15.673  0.00  0.00    +0.000 A 
ATOM     21  C   UNL     1       3.913  53.923  15.423  0.00  0.00    +0.000 A 
ATOM     22  F   UNL     1       3.407  53.543  14.240  0.00  0.00    +0.000 F 
ATOM     23  C   UNL     1       3.073  54.475  16.385  0.00  0.00    +0.000 A 
BRANCH  20  24
ATOM     24  O   UNL     1       6.093  53.216  14.728  0.00  0.00    +0.000 OA
ATOM     25  H   UNL     1       6.572  53.946  14.290  0.00  0.00    +0.000 HD
ENDBRANCH  20  24
ENDBRANCH  14  16
BRANCH   2  26
ATOM     26  C   UNL     1       1.888  59.006  15.326  0.00  0.00    +0.000 C 
ATOM     27  C   UNL     1       2.694  58.615  14.082  0.00  0.00    +0.000 C 
BRANCH  27  28
ATOM     28  C   UNL     1       3.441  58.257  12.937  0.00  0.00    +0.000 C 
ATOM     29  C   UNL     1       3.799  59.301  11.924  0.00  0.00    +0.000 C 
ATOM     30  C   UNL     1       3.827  56.828  12.716  0.00  0.00    +0.000 C 
ENDBRANCH  27  28
ENDBRANCH   2  26
TORSDOF 4
ENDMDL
MODEL 9
REMARK VINA RESULT:      -5.4     34.697     35.510
REMARK  Name = 25023738_BI-D-1870.pdbqt.pdb
REMARK  4 active torsions:
REMARK  status: ('A' for Active; 'I' for Inactive)
REMARK    1  A    between atoms: N_2  and  C_26
REMARK    2  A    between atoms: N_14  and  C_16
REMARK    3  A    between atoms: C_20  and  O_24
REMARK    4  A    between atoms: C_27  and  C_28
REMARK                            x       y       z     vdW  Elec       q    Type
REMARK                         _______ _______ _______ _____ _____    ______ ____
ROOT
ATOM      1  O   UNL     1      10.478  26.069  18.106  0.00  0.00    +0.000 OA
ATOM      2  N   UNL     1      10.882  29.508  19.153  0.00  0.00    +0.000 N 
ATOM      3  N   UNL     1       9.802  27.081  20.092  0.00  0.00    +0.000 N 
ATOM      4  N   UNL     1      10.209  30.589  21.170  0.00  0.00    +0.000 NA
ATOM      5  N   UNL     1       9.096  29.438  22.882  0.00  0.00    +0.000 NA
ATOM      6  C   UNL     1      10.972  28.393  18.347  0.00  0.00    +0.000 C 
ATOM      7  C   UNL     1      10.269  29.464  20.422  0.00  0.00    +0.000 A 
ATOM      8  C   UNL     1      10.405  27.076  18.816  0.00  0.00    +0.000 C 
ATOM      9  C   UNL     1       9.745  28.271  20.868  0.00  0.00    +0.000 A 
ATOM     10  C   UNL     1      11.643  28.491  16.982  0.00  0.00    +0.000 C 
ATOM     11  C   UNL     1       9.201  25.905  20.713  0.00  0.00    +0.000 C 
ATOM     12  C   UNL     1       9.169  28.332  22.118  0.00  0.00    +0.000 A 
ATOM     13  C   UNL     1       9.626  30.550  22.378  0.00  0.00    +0.000 A 
ATOM     14  N   UNL     1       9.546  31.684  23.175  0.00  0.00    +0.000 N 
ATOM     15  H   UNL     1       9.078  31.479  24.050  0.00  0.00    +0.000 HD
ENDROOT
BRANCH  14  16
ATOM     16  C   UNL     1       9.988  32.995  22.971  0.00  0.00    +0.000 A 
ATOM     17  C   UNL     1       9.268  34.056  23.537  0.00  0.00    +0.000 A 
ATOM     18  C   UNL     1       9.679  35.375  23.355  0.00  0.00    +0.000 A 
ATOM     19  F   UNL     1       8.962  36.362  23.913  0.00  0.00    +0.000 F 
ATOM     20  C   UNL     1      10.812  35.663  22.606  0.00  0.00    +0.000 A 
ATOM     21  C   UNL     1      11.531  34.618  22.042  0.00  0.00    +0.000 A 
ATOM     22  F   UNL     1      12.628  34.883  21.318  0.00  0.00    +0.000 F 
ATOM     23  C   UNL     1      11.127  33.298  22.220  0.00  0.00    +0.000 A 
BRANCH  20  24
ATOM     24  O   UNL     1      11.209  36.959  22.432  0.00  0.00    +0.000 OA
ATOM     25  H   UNL     1      11.525  37.056  21.513  0.00  0.00    +0.000 HD
ENDBRANCH  20  24
ENDBRANCH  14  16
BRANCH   2  26
ATOM     26  C   UNL     1      11.427  30.786  18.702  0.00  0.00    +0.000 C 
ATOM     27  C   UNL     1      12.000  32.126  18.224  0.00  0.00    +0.000 C 
BRANCH  27  28
ATOM     28  C   UNL     1      12.526  33.363  17.789  0.00  0.00    +0.000 C 
ATOM     29  C   UNL     1      11.917  34.060  16.611  0.00  0.00    +0.000 C 
ATOM     30  C   UNL     1      13.724  33.946  18.473  0.00  0.00    +0.000 C 
ENDBRANCH  27  28
ENDBRANCH   2  26
TORSDOF 4
ENDMDL
