MODEL 1
REMARK VINA RESULT:      -4.8      0.000      0.000
REMARK  Name = 26879_Levamisole.pdbqt.pdb
REMARK  1 active torsions:
REMARK  status: ('A' for Active; 'I' for Inactive)
REMARK    1  A    between atoms: C_5  and  C_9
REMARK                            x       y       z     vdW  Elec       q    Type
REMARK                         _______ _______ _______ _____ _____    ______ ____
ROOT
ATOM      1  S   UNL     1      -1.915  46.669  27.016  0.00  0.00    +0.000 S 
ATOM      2  N   UNL     1      -4.145  47.652  28.425  0.00  0.00    +0.000 NA
ATOM      3  N   UNL     1      -4.196  47.670  25.988  0.00  0.00    +0.000 NA
ATOM      4  C   UNL     1      -5.442  47.528  27.837  0.00  0.00    +0.000 C 
ATOM      5  C   UNL     1      -5.475  47.657  26.439  0.00  0.00    +0.000 C 
ATOM      6  C   UNL     1      -3.597  46.463  29.028  0.00  0.00    +0.000 C 
ATOM      7  C   UNL     1      -3.417  47.617  27.110  0.00  0.00    +0.000 C 
ATOM      8  C   UNL     1      -2.363  45.864  28.428  0.00  0.00    +0.000 C 
ENDROOT
BRANCH   5   9
ATOM      9  C   UNL     1      -6.641  47.703  25.569  0.00  0.00    +0.000 A 
ATOM     10  C   UNL     1      -7.687  46.785  25.700  0.00  0.00    +0.000 A 
ATOM     11  C   UNL     1      -6.731  48.677  24.571  0.00  0.00    +0.000 A 
ATOM     12  C   UNL     1      -8.797  46.839  24.858  0.00  0.00    +0.000 A 
ATOM     13  C   UNL     1      -7.838  48.736  23.726  0.00  0.00    +0.000 A 
ATOM     14  C   UNL     1      -8.871  47.816  23.871  0.00  0.00    +0.000 A 
ENDBRANCH   5   9
TORSDOF 1
ENDMDL
MODEL 2
REMARK VINA RESULT:      -4.7     24.624     25.318
REMARK  Name = 26879_Levamisole.pdbqt.pdb
REMARK  1 active torsions:
REMARK  status: ('A' for Active; 'I' for Inactive)
REMARK    1  A    between atoms: C_5  and  C_9
REMARK                            x       y       z     vdW  Elec       q    Type
REMARK                         _______ _______ _______ _____ _____    ______ ____
ROOT
ATOM      1  S   UNL     1     -19.826  43.413   4.734  0.00  0.00    +0.000 S 
ATOM      2  N   UNL     1     -17.038  43.350   5.117  0.00  0.00    +0.000 NA
ATOM      3  N   UNL     1     -18.369  41.450   5.867  0.00  0.00    +0.000 NA
ATOM      4  C   UNL     1     -16.368  42.087   5.103  0.00  0.00    +0.000 C 
ATOM      5  C   UNL     1     -17.101  41.020   5.646  0.00  0.00    +0.000 C 
ATOM      6  C   UNL     1     -17.402  43.898   3.835  0.00  0.00    +0.000 C 
ATOM      7  C   UNL     1     -18.365  42.773   5.523  0.00  0.00    +0.000 C 
ATOM      8  C   UNL     1     -18.856  44.060   3.517  0.00  0.00    +0.000 C 
ENDROOT
BRANCH   5   9
ATOM      9  C   UNL     1     -16.656  39.655   5.887  0.00  0.00    +0.000 A 
ATOM     10  C   UNL     1     -17.546  38.659   6.301  0.00  0.00    +0.000 A 
ATOM     11  C   UNL     1     -15.312  39.315   5.709  0.00  0.00    +0.000 A 
ATOM     12  C   UNL     1     -17.106  37.357   6.531  0.00  0.00    +0.000 A 
ATOM     13  C   UNL     1     -14.867  38.015   5.938  0.00  0.00    +0.000 A 
ATOM     14  C   UNL     1     -15.765  37.036   6.349  0.00  0.00    +0.000 A 
ENDBRANCH   5   9
TORSDOF 1
ENDMDL
MODEL 3
REMARK VINA RESULT:      -4.3     22.350     23.000
REMARK  Name = 26879_Levamisole.pdbqt.pdb
REMARK  1 active torsions:
REMARK  status: ('A' for Active; 'I' for Inactive)
REMARK    1  A    between atoms: C_5  and  C_9
REMARK                            x       y       z     vdW  Elec       q    Type
REMARK                         _______ _______ _______ _____ _____    ______ ____
ROOT
ATOM      1  S   UNL     1      -0.303  26.410  19.613  0.00  0.00    +0.000 S 
ATOM      2  N   UNL     1      -1.166  28.749  18.304  0.00  0.00    +0.000 NA
ATOM      3  N   UNL     1       0.262  27.185  17.095  0.00  0.00    +0.000 NA
ATOM      4  C   UNL     1      -1.351  28.718  16.886  0.00  0.00    +0.000 C 
ATOM      5  C   UNL     1      -0.447  27.902  16.186  0.00  0.00    +0.000 C 
ATOM      6  C   UNL     1      -2.207  28.152  19.101  0.00  0.00    +0.000 C 
ATOM      7  C   UNL     1      -0.172  27.621  18.316  0.00  0.00    +0.000 C 
ATOM      8  C   UNL     1      -1.876  26.939  19.913  0.00  0.00    +0.000 C 
ENDROOT
BRANCH   5   9
ATOM      9  C   UNL     1      -0.297  27.757  14.746  0.00  0.00    +0.000 A 
ATOM     10  C   UNL     1       0.457  28.665  13.995  0.00  0.00    +0.000 A 
ATOM     11  C   UNL     1      -0.917  26.696  14.081  0.00  0.00    +0.000 A 
ATOM     12  C   UNL     1       0.590  28.516  12.616  0.00  0.00    +0.000 A 
ATOM     13  C   UNL     1      -0.788  26.543  12.702  0.00  0.00    +0.000 A 
ATOM     14  C   UNL     1      -0.034  27.453  11.970  0.00  0.00    +0.000 A 
ENDBRANCH   5   9
TORSDOF 1
ENDMDL
MODEL 4
REMARK VINA RESULT:      -4.3     24.633     25.497
REMARK  Name = 26879_Levamisole.pdbqt.pdb
REMARK  1 active torsions:
REMARK  status: ('A' for Active; 'I' for Inactive)
REMARK    1  A    between atoms: C_5  and  C_9
REMARK                            x       y       z     vdW  Elec       q    Type
REMARK                         _______ _______ _______ _____ _____    ______ ____
ROOT
ATOM      1  S   UNL     1     -16.556  43.456   4.546  0.00  0.00    +0.000 S 
ATOM      2  N   UNL     1     -15.501  40.920   3.928  0.00  0.00    +0.000 NA
ATOM      3  N   UNL     1     -16.919  41.153   5.897  0.00  0.00    +0.000 NA
ATOM      4  C   UNL     1     -16.248  39.755   4.287  0.00  0.00    +0.000 C 
ATOM      5  C   UNL     1     -16.971  39.860   5.487  0.00  0.00    +0.000 C 
ATOM      6  C   UNL     1     -15.943  41.629   2.754  0.00  0.00    +0.000 C 
ATOM      7  C   UNL     1     -16.121  41.788   4.987  0.00  0.00    +0.000 C 
ATOM      8  C   UNL     1     -16.464  43.023   2.919  0.00  0.00    +0.000 C 
ENDROOT
BRANCH   5   9
ATOM      9  C   UNL     1     -17.719  38.821   6.178  0.00  0.00    +0.000 A 
ATOM     10  C   UNL     1     -17.075  37.746   6.798  0.00  0.00    +0.000 A 
ATOM     11  C   UNL     1     -19.115  38.881   6.231  0.00  0.00    +0.000 A 
ATOM     12  C   UNL     1     -17.804  36.756   7.454  0.00  0.00    +0.000 A 
ATOM     13  C   UNL     1     -19.849  37.894   6.886  0.00  0.00    +0.000 A 
ATOM     14  C   UNL     1     -19.192  36.831   7.498  0.00  0.00    +0.000 A 
ENDBRANCH   5   9
TORSDOF 1
ENDMDL
MODEL 5
REMARK VINA RESULT:      -4.3     21.365     22.197
REMARK  Name = 26879_Levamisole.pdbqt.pdb
REMARK  1 active torsions:
REMARK  status: ('A' for Active; 'I' for Inactive)
REMARK    1  A    between atoms: C_5  and  C_9
REMARK                            x       y       z     vdW  Elec       q    Type
REMARK                         _______ _______ _______ _____ _____    ______ ____
ROOT
ATOM      1  S   UNL     1      -5.428  24.879  18.056  0.00  0.00    +0.000 S 
ATOM      2  N   UNL     1      -4.493  26.340  20.274  0.00  0.00    +0.000 NA
ATOM      3  N   UNL     1      -3.010  26.026  18.365  0.00  0.00    +0.000 NA
ATOM      4  C   UNL     1      -3.538  27.382  20.061  0.00  0.00    +0.000 C 
ATOM      5  C   UNL     1      -2.612  27.138  19.033  0.00  0.00    +0.000 C 
ATOM      6  C   UNL     1      -5.863  26.649  19.953  0.00  0.00    +0.000 C 
ATOM      7  C   UNL     1      -4.116  25.581  19.032  0.00  0.00    +0.000 C 
ATOM      8  C   UNL     1      -6.521  25.897  18.838  0.00  0.00    +0.000 C 
ENDROOT
BRANCH   5   9
ATOM      9  C   UNL     1      -1.455  27.937  18.658  0.00  0.00    +0.000 A 
ATOM     10  C   UNL     1      -1.286  28.411  17.353  0.00  0.00    +0.000 A 
ATOM     11  C   UNL     1      -0.479  28.245  19.610  0.00  0.00    +0.000 A 
ATOM     12  C   UNL     1      -0.171  29.172  17.007  0.00  0.00    +0.000 A 
ATOM     13  C   UNL     1       0.638  29.006  19.270  0.00  0.00    +0.000 A 
ATOM     14  C   UNL     1       0.791  29.470  17.968  0.00  0.00    +0.000 A 
ENDBRANCH   5   9
TORSDOF 1
ENDMDL
MODEL 6
REMARK VINA RESULT:      -4.2     13.986     15.069
REMARK  Name = 26879_Levamisole.pdbqt.pdb
REMARK  1 active torsions:
REMARK  status: ('A' for Active; 'I' for Inactive)
REMARK    1  A    between atoms: C_5  and  C_9
REMARK                            x       y       z     vdW  Elec       q    Type
REMARK                         _______ _______ _______ _____ _____    ______ ____
ROOT
ATOM      1  S   UNL     1       0.425  58.446  19.902  0.00  0.00    +0.000 S 
ATOM      2  N   UNL     1       3.117  57.934  20.550  0.00  0.00    +0.000 NA
ATOM      3  N   UNL     1       1.862  56.240  19.326  0.00  0.00    +0.000 NA
ATOM      4  C   UNL     1       3.891  57.107  19.678  0.00  0.00    +0.000 C 
ATOM      5  C   UNL     1       3.182  56.060  19.067  0.00  0.00    +0.000 C 
ATOM      6  C   UNL     1       2.905  59.294  20.125  0.00  0.00    +0.000 C 
ATOM      7  C   UNL     1       1.800  57.340  20.135  0.00  0.00    +0.000 C 
ATOM      8  C   UNL     1       1.508  59.734  19.814  0.00  0.00    +0.000 C 
ENDROOT
BRANCH   5   9
ATOM      9  C   UNL     1       3.705  54.986  18.236  0.00  0.00    +0.000 A 
ATOM     10  C   UNL     1       2.889  53.937  17.800  0.00  0.00    +0.000 A 
ATOM     11  C   UNL     1       5.051  54.984  17.859  0.00  0.00    +0.000 A 
ATOM     12  C   UNL     1       3.403  52.913  17.006  0.00  0.00    +0.000 A 
ATOM     13  C   UNL     1       5.570  53.963  17.066  0.00  0.00    +0.000 A 
ATOM     14  C   UNL     1       4.746  52.927  16.640  0.00  0.00    +0.000 A 
ENDBRANCH   5   9
TORSDOF 1
ENDMDL
MODEL 7
REMARK VINA RESULT:      -3.8     11.914     13.156
REMARK  Name = 26879_Levamisole.pdbqt.pdb
REMARK  1 active torsions:
REMARK  status: ('A' for Active; 'I' for Inactive)
REMARK    1  A    between atoms: C_5  and  C_9
REMARK                            x       y       z     vdW  Elec       q    Type
REMARK                         _______ _______ _______ _____ _____    ______ ____
ROOT
ATOM      1  S   UNL     1      -5.033  38.878  38.467  0.00  0.00    +0.000 S 
ATOM      2  N   UNL     1      -5.609  39.654  35.823  0.00  0.00    +0.000 NA
ATOM      3  N   UNL     1      -3.286  39.636  36.561  0.00  0.00    +0.000 NA
ATOM      4  C   UNL     1      -4.643  39.396  34.802  0.00  0.00    +0.000 C 
ATOM      5  C   UNL     1      -3.303  39.503  35.211  0.00  0.00    +0.000 C 
ATOM      6  C   UNL     1      -6.407  38.533  36.250  0.00  0.00    +0.000 C 
ATOM      7  C   UNL     1      -4.600  39.676  36.937  0.00  0.00    +0.000 C 
ATOM      8  C   UNL     1      -6.261  38.052  37.661  0.00  0.00    +0.000 C 
ENDROOT
BRANCH   5   9
ATOM      9  C   UNL     1      -2.104  39.423  34.390  0.00  0.00    +0.000 A 
ATOM     10  C   UNL     1      -1.466  40.573  33.915  0.00  0.00    +0.000 A 
ATOM     11  C   UNL     1      -1.567  38.177  34.055  0.00  0.00    +0.000 A 
ATOM     12  C   UNL     1      -0.320  40.483  33.127  0.00  0.00    +0.000 A 
ATOM     13  C   UNL     1      -0.421  38.081  33.268  0.00  0.00    +0.000 A 
ATOM     14  C   UNL     1       0.202  39.234  32.804  0.00  0.00    +0.000 A 
ENDBRANCH   5   9
TORSDOF 1
ENDMDL
MODEL 8
REMARK VINA RESULT:      -3.8     21.221     21.918
REMARK  Name = 26879_Levamisole.pdbqt.pdb
REMARK  1 active torsions:
REMARK  status: ('A' for Active; 'I' for Inactive)
REMARK    1  A    between atoms: C_5  and  C_9
REMARK                            x       y       z     vdW  Elec       q    Type
REMARK                         _______ _______ _______ _____ _____    ______ ____
ROOT
ATOM      1  S   UNL     1       0.570  26.059  20.086  0.00  0.00    +0.000 S 
ATOM      2  N   UNL     1      -1.116  28.313  20.124  0.00  0.00    +0.000 NA
ATOM      3  N   UNL     1      -1.811  26.350  18.857  0.00  0.00    +0.000 NA
ATOM      4  C   UNL     1      -2.529  28.121  20.015  0.00  0.00    +0.000 C 
ATOM      5  C   UNL     1      -2.921  27.056  19.188  0.00  0.00    +0.000 C 
ATOM      6  C   UNL     1      -0.529  28.047  21.412  0.00  0.00    +0.000 C 
ATOM      7  C   UNL     1      -0.769  27.028  19.426  0.00  0.00    +0.000 C 
ATOM      8  C   UNL     1       0.447  26.918  21.531  0.00  0.00    +0.000 C 
ENDROOT
BRANCH   5   9
ATOM      9  C   UNL     1      -4.268  26.685  18.779  0.00  0.00    +0.000 A 
ATOM     10  C   UNL     1      -4.604  26.524  17.432  0.00  0.00    +0.000 A 
ATOM     11  C   UNL     1      -5.261  26.486  19.742  0.00  0.00    +0.000 A 
ATOM     12  C   UNL     1      -5.899  26.171  17.054  0.00  0.00    +0.000 A 
ATOM     13  C   UNL     1      -6.557  26.133  19.370  0.00  0.00    +0.000 A 
ATOM     14  C   UNL     1      -6.875  25.975  18.026  0.00  0.00    +0.000 A 
ENDBRANCH   5   9
TORSDOF 1
ENDMDL
MODEL 9
REMARK VINA RESULT:      -3.6     12.459     14.096
REMARK  Name = 26879_Levamisole.pdbqt.pdb
REMARK  1 active torsions:
REMARK  status: ('A' for Active; 'I' for Inactive)
REMARK    1  A    between atoms: C_5  and  C_9
REMARK                            x       y       z     vdW  Elec       q    Type
REMARK                         _______ _______ _______ _____ _____    ______ ____
ROOT
ATOM      1  S   UNL     1      -8.362  39.499  38.782  0.00  0.00    +0.000 S 
ATOM      2  N   UNL     1      -7.542  37.297  37.232  0.00  0.00    +0.000 NA
ATOM      3  N   UNL     1      -6.672  39.507  36.683  0.00  0.00    +0.000 NA
ATOM      4  C   UNL     1      -6.240  37.315  36.642  0.00  0.00    +0.000 C 
ATOM      5  C   UNL     1      -5.795  38.580  36.222  0.00  0.00    +0.000 C 
ATOM      6  C   UNL     1      -7.605  36.984  38.637  0.00  0.00    +0.000 C 
ATOM      7  C   UNL     1      -7.656  38.794  37.309  0.00  0.00    +0.000 C 
ATOM      8  C   UNL     1      -8.094  38.039  39.580  0.00  0.00    +0.000 C 
ENDROOT
BRANCH   5   9
ATOM      9  C   UNL     1      -4.585  38.906  35.483  0.00  0.00    +0.000 A 
ATOM     10  C   UNL     1      -3.915  40.118  35.678  0.00  0.00    +0.000 A 
ATOM     11  C   UNL     1      -4.070  38.003  34.549  0.00  0.00    +0.000 A 
ATOM     12  C   UNL     1      -2.758  40.420  34.961  0.00  0.00    +0.000 A 
ATOM     13  C   UNL     1      -2.914  38.300  33.829  0.00  0.00    +0.000 A 
ATOM     14  C   UNL     1      -2.258  39.509  34.036  0.00  0.00    +0.000 A 
ENDBRANCH   5   9
TORSDOF 1
ENDMDL
