MODEL 1
REMARK VINA RESULT:      -4.7      0.000      0.000
REMARK  Name = 27924_Phorbol.pdbqt.pdb
REMARK  26 active torsions:
REMARK  status: ('A' for Active; 'I' for Inactive)
REMARK    1  A    between atoms: O_1  and  C_10
REMARK    2  A    between atoms: O_1  and  C_26
REMARK    3  A    between atoms: O_2  and  C_13
REMARK    4  A    between atoms: O_2  and  C_28
REMARK    5  A    between atoms: O_3  and  C_14
REMARK    6  A    between atoms: O_4  and  C_20
REMARK    7  A    between atoms: O_7  and  C_29
REMARK    8  A    between atoms: C_11  and  C_16
REMARK    9  A    between atoms: C_11  and  C_17
REMARK   10  A    between atoms: C_15  and  C_21
REMARK   11  A    between atoms: C_22  and  C_29
REMARK   12  A    between atoms: C_26  and  C_30
REMARK   13  A    between atoms: C_27  and  C_31
REMARK   14  A    between atoms: C_28  and  C_32
REMARK   15  A    between atoms: C_32  and  C_33
REMARK   16  A    between atoms: C_33  and  C_34
REMARK   17  A    between atoms: C_34  and  C_35
REMARK   18  A    between atoms: C_35  and  C_36
REMARK   19  A    between atoms: C_36  and  C_37
REMARK   20  A    between atoms: C_37  and  C_38
REMARK   21  A    between atoms: C_38  and  C_39
REMARK   22  A    between atoms: C_39  and  C_40
REMARK   23  A    between atoms: C_40  and  C_41
REMARK   24  A    between atoms: C_41  and  C_42
REMARK   25  A    between atoms: C_42  and  C_43
REMARK   26  A    between atoms: C_43  and  C_44
REMARK                            x       y       z     vdW  Elec       q    Type
REMARK                         _______ _______ _______ _____ _____    ______ ____
ROOT
ATOM      1  O   UNL     1     -18.813  33.032   6.211  0.00  0.00    +0.000 OA
ATOM      2  C   UNL     1     -17.667  40.016   5.691  0.00  0.00    +0.000 C 
ATOM      3  C   UNL     1     -17.145  40.601   4.392  0.00  0.00    +0.000 C 
ATOM      4  C   UNL     1     -16.230  40.495   5.645  0.00  0.00    +0.000 C 
ATOM      5  C   UNL     1     -18.240  38.631   5.735  0.00  0.00    +0.000 C 
ATOM      6  C   UNL     1     -17.061  39.655   3.180  0.00  0.00    +0.000 C 
ATOM      7  C   UNL     1     -17.933  37.649   4.514  0.00  0.00    +0.000 C 
ATOM      8  C   UNL     1     -18.172  38.548   3.236  0.00  0.00    +0.000 C 
ATOM      9  C   UNL     1     -15.957  41.730   6.487  0.00  0.00    +0.000 C 
ATOM     10  C   UNL     1     -15.082  39.518   5.719  0.00  0.00    +0.000 C 
ATOM     11  C   UNL     1     -18.813  36.310   4.694  0.00  0.00    +0.000 C 
ATOM     12  C   UNL     1     -18.102  37.963   7.090  0.00  0.00    +0.000 C 
ATOM     13  C   UNL     1     -18.435  35.422   5.962  0.00  0.00    +0.000 C 
ATOM     14  C   UNL     1     -18.249  37.805   1.902  0.00  0.00    +0.000 C 
ATOM     15  C   UNL     1     -19.176  37.269   7.525  0.00  0.00    +0.000 C 
ATOM     16  C   UNL     1     -19.151  35.769   7.285  0.00  0.00    +0.000 C 
ATOM     17  C   UNL     1     -18.792  35.241   3.609  0.00  0.00    +0.000 C 
ATOM     18  C   UNL     1     -18.758  34.020   5.493  0.00  0.00    +0.000 C 
ATOM     19  C   UNL     1     -18.835  33.969   4.029  0.00  0.00    +0.000 C 
ATOM     20  C   UNL     1     -18.917  32.705   3.269  0.00  0.00    +0.000 C 
ENDROOT
BRANCH   7  21
ATOM     21  O   UNL     1     -16.556  37.254   4.471  0.00  0.00    +0.000 OA
ATOM     22  H   UNL     1     -16.336  36.832   5.331  0.00  0.00    +0.000 HD
ENDBRANCH   7  21
BRANCH  13  23
ATOM     23  O   UNL     1     -17.002  35.383   6.173  0.00  0.00    +0.000 OA
ATOM     24  H   UNL     1     -16.831  35.926   6.971  0.00  0.00    +0.000 HD
ENDBRANCH  13  23
BRANCH   3  25
ATOM     25  O   UNL     1     -17.813  41.861   4.121  0.00  0.00    +0.000 OA
BRANCH  25  27
ATOM     26  O   UNL     1     -19.325  42.929   5.392  0.00  0.00    +0.000 OA
ATOM     27  C   UNL     1     -19.092  42.152   4.468  0.00  0.00    +0.000 C 
ATOM     28  C   UNL     1     -20.211  41.575   3.653  0.00  0.00    +0.000 C 
ENDBRANCH  25  27
ENDBRANCH   3  25
BRANCH  15  29
ATOM     29  C   UNL     1     -20.549  37.869   7.675  0.00  0.00    +0.000 C 
BRANCH  29  30
ATOM     30  O   UNL     1     -21.451  36.833   8.025  0.00  0.00    +0.000 OA
ATOM     31  H   UNL     1     -22.240  36.948   7.467  0.00  0.00    +0.000 HD
ENDBRANCH  29  30
ENDBRANCH  15  29
BRANCH   6  32
ATOM     32  O   UNL     1     -17.219  40.455   1.977  0.00  0.00    +0.000 OA
BRANCH  32  34
ATOM     33  O   UNL     1     -15.096  40.561   1.282  0.00  0.00    +0.000 OA
ATOM     34  C   UNL     1     -16.292  40.601   1.003  0.00  0.00    +0.000 C 
BRANCH  34  35
ATOM     35  C   UNL     1     -16.741  40.814  -0.421  0.00  0.00    +0.000 C 
BRANCH  35  36
ATOM     36  C   UNL     1     -18.197  41.259  -0.493  0.00  0.00    +0.000 C 
BRANCH  36  37
ATOM     37  C   UNL     1     -18.388  42.779  -0.537  0.00  0.00    +0.000 C 
BRANCH  37  38
ATOM     38  C   UNL     1     -18.762  43.410   0.811  0.00  0.00    +0.000 C 
BRANCH  38  39
ATOM     39  C   UNL     1     -17.817  44.550   1.207  0.00  0.00    +0.000 C 
BRANCH  39  40
ATOM     40  C   UNL     1     -16.494  44.067   1.806  0.00  0.00    +0.000 C 
BRANCH  40  41
ATOM     41  C   UNL     1     -15.322  44.159   0.825  0.00  0.00    +0.000 C 
BRANCH  41  42
ATOM     42  C   UNL     1     -14.547  45.476   0.929  0.00  0.00    +0.000 C 
BRANCH  42  43
ATOM     43  C   UNL     1     -13.611  45.792  -0.240  0.00  0.00    +0.000 C 
BRANCH  43  44
ATOM     44  C   UNL     1     -14.284  46.368  -1.490  0.00  0.00    +0.000 C 
BRANCH  44  45
ATOM     45  C   UNL     1     -15.438  47.341  -1.231  0.00  0.00    +0.000 C 
BRANCH  45  46
ATOM     46  C   UNL     1     -16.833  46.831  -1.598  0.00  0.00    +0.000 C 
ATOM     47  C   UNL     1     -17.956  47.585  -0.903  0.00  0.00    +0.000 C 
ENDBRANCH  45  46
ENDBRANCH  44  45
ENDBRANCH  43  44
ENDBRANCH  42  43
ENDBRANCH  41  42
ENDBRANCH  40  41
ENDBRANCH  39  40
ENDBRANCH  38  39
ENDBRANCH  37  38
ENDBRANCH  36  37
ENDBRANCH  35  36
ENDBRANCH  34  35
ENDBRANCH  32  34
ENDBRANCH   6  32
TORSDOF 20
ENDMDL
MODEL 2
REMARK VINA RESULT:      -4.5     28.382     32.037
REMARK  Name = 27924_Phorbol.pdbqt.pdb
REMARK  26 active torsions:
REMARK  status: ('A' for Active; 'I' for Inactive)
REMARK    1  A    between atoms: O_1  and  C_10
REMARK    2  A    between atoms: O_1  and  C_26
REMARK    3  A    between atoms: O_2  and  C_13
REMARK    4  A    between atoms: O_2  and  C_28
REMARK    5  A    between atoms: O_3  and  C_14
REMARK    6  A    between atoms: O_4  and  C_20
REMARK    7  A    between atoms: O_7  and  C_29
REMARK    8  A    between atoms: C_11  and  C_16
REMARK    9  A    between atoms: C_11  and  C_17
REMARK   10  A    between atoms: C_15  and  C_21
REMARK   11  A    between atoms: C_22  and  C_29
REMARK   12  A    between atoms: C_26  and  C_30
REMARK   13  A    between atoms: C_27  and  C_31
REMARK   14  A    between atoms: C_28  and  C_32
REMARK   15  A    between atoms: C_32  and  C_33
REMARK   16  A    between atoms: C_33  and  C_34
REMARK   17  A    between atoms: C_34  and  C_35
REMARK   18  A    between atoms: C_35  and  C_36
REMARK   19  A    between atoms: C_36  and  C_37
REMARK   20  A    between atoms: C_37  and  C_38
REMARK   21  A    between atoms: C_38  and  C_39
REMARK   22  A    between atoms: C_39  and  C_40
REMARK   23  A    between atoms: C_40  and  C_41
REMARK   24  A    between atoms: C_41  and  C_42
REMARK   25  A    between atoms: C_42  and  C_43
REMARK   26  A    between atoms: C_43  and  C_44
REMARK                            x       y       z     vdW  Elec       q    Type
REMARK                         _______ _______ _______ _____ _____    ______ ____
ROOT
ATOM      1  O   UNL     1       1.439  43.691  31.372  0.00  0.00    +0.000 OA
ATOM      2  C   UNL     1      -0.322  50.133  28.973  0.00  0.00    +0.000 C 
ATOM      3  C   UNL     1      -1.758  50.610  29.075  0.00  0.00    +0.000 C 
ATOM      4  C   UNL     1      -1.144  50.213  27.702  0.00  0.00    +0.000 C 
ATOM      5  C   UNL     1       0.153  48.950  29.762  0.00  0.00    +0.000 C 
ATOM      6  C   UNL     1      -2.736  49.726  29.871  0.00  0.00    +0.000 C 
ATOM      7  C   UNL     1      -0.943  47.972  30.389  0.00  0.00    +0.000 C 
ATOM      8  C   UNL     1      -2.005  48.953  31.024  0.00  0.00    +0.000 C 
ATOM      9  C   UNL     1      -0.695  51.296  26.736  0.00  0.00    +0.000 C 
ATOM     10  C   UNL     1      -1.565  48.964  26.968  0.00  0.00    +0.000 C 
ATOM     11  C   UNL     1      -0.200  46.909  31.347  0.00  0.00    +0.000 C 
ATOM     12  C   UNL     1       1.310  48.214  29.111  0.00  0.00    +0.000 C 
ATOM     13  C   UNL     1       0.782  45.902  30.599  0.00  0.00    +0.000 C 
ATOM     14  C   UNL     1      -3.027  48.314  31.965  0.00  0.00    +0.000 C 
ATOM     15  C   UNL     1       2.302  47.813  29.935  0.00  0.00    +0.000 C 
ATOM     16  C   UNL     1       2.242  46.373  30.412  0.00  0.00    +0.000 C 
ATOM     17  C   UNL     1      -1.024  45.918  32.159  0.00  0.00    +0.000 C 
ATOM     18  C   UNL     1       0.695  44.656  31.455  0.00  0.00    +0.000 C 
ATOM     19  C   UNL     1      -0.511  44.688  32.291  0.00  0.00    +0.000 C 
ATOM     20  C   UNL     1      -0.986  43.523  33.066  0.00  0.00    +0.000 C 
ENDROOT
BRANCH   7  21
ATOM     21  O   UNL     1      -1.641  47.227  29.383  0.00  0.00    +0.000 OA
ATOM     22  H   UNL     1      -2.018  46.425  29.808  0.00  0.00    +0.000 HD
ENDBRANCH   7  21
BRANCH  13  23
ATOM     23  O   UNL     1       0.236  45.474  29.328  0.00  0.00    +0.000 OA
ATOM     24  H   UNL     1      -0.216  44.622  29.500  0.00  0.00    +0.000 HD
ENDBRANCH  13  23
BRANCH   3  25
ATOM     25  O   UNL     1      -1.780  52.012  29.450  0.00  0.00    +0.000 OA
BRANCH  25  27
ATOM     26  O   UNL     1      -0.010  53.355  29.776  0.00  0.00    +0.000 OA
ATOM     27  C   UNL     1      -0.869  52.616  30.254  0.00  0.00    +0.000 C 
ATOM     28  C   UNL     1      -0.981  52.433  31.737  0.00  0.00    +0.000 C 
ENDBRANCH  25  27
ENDBRANCH   3  25
BRANCH  15  29
ATOM     29  C   UNL     1       3.067  48.751  30.831  0.00  0.00    +0.000 C 
BRANCH  29  30
ATOM     30  O   UNL     1       3.081  48.203  32.138  0.00  0.00    +0.000 OA
ATOM     31  H   UNL     1       3.752  47.497  32.138  0.00  0.00    +0.000 HD
ENDBRANCH  29  30
ENDBRANCH  15  29
BRANCH   6  32
ATOM     32  O   UNL     1      -3.767  50.588  30.427  0.00  0.00    +0.000 OA
BRANCH  32  34
ATOM     33  O   UNL     1      -5.121  50.872  28.670  0.00  0.00    +0.000 OA
ATOM     34  C   UNL     1      -4.990  50.797  29.889  0.00  0.00    +0.000 C 
BRANCH  34  35
ATOM     35  C   UNL     1      -6.185  50.938  30.800  0.00  0.00    +0.000 C 
BRANCH  35  36
ATOM     36  C   UNL     1      -6.498  49.634  31.524  0.00  0.00    +0.000 C 
BRANCH  36  37
ATOM     37  C   UNL     1      -7.691  48.865  30.945  0.00  0.00    +0.000 C 
BRANCH  37  38
ATOM     38  C   UNL     1      -7.360  48.019  29.709  0.00  0.00    +0.000 C 
BRANCH  38  39
ATOM     39  C   UNL     1      -6.109  47.157  29.906  0.00  0.00    +0.000 C 
BRANCH  39  40
ATOM     40  C   UNL     1      -5.102  47.269  28.758  0.00  0.00    +0.000 C 
BRANCH  40  41
ATOM     41  C   UNL     1      -4.519  45.918  28.336  0.00  0.00    +0.000 C 
BRANCH  41  42
ATOM     42  C   UNL     1      -5.557  44.978  27.716  0.00  0.00    +0.000 C 
BRANCH  42  43
ATOM     43  C   UNL     1      -5.461  44.786  26.200  0.00  0.00    +0.000 C 
BRANCH  43  44
ATOM     44  C   UNL     1      -5.549  46.068  25.365  0.00  0.00    +0.000 C 
BRANCH  44  45
ATOM     45  C   UNL     1      -6.837  46.879  25.531  0.00  0.00    +0.000 C 
BRANCH  45  46
ATOM     46  C   UNL     1      -6.706  48.388  25.310  0.00  0.00    +0.000 C 
ATOM     47  C   UNL     1      -6.628  48.780  23.843  0.00  0.00    +0.000 C 
ENDBRANCH  45  46
ENDBRANCH  44  45
ENDBRANCH  43  44
ENDBRANCH  42  43
ENDBRANCH  41  42
ENDBRANCH  40  41
ENDBRANCH  39  40
ENDBRANCH  38  39
ENDBRANCH  37  38
ENDBRANCH  36  37
ENDBRANCH  35  36
ENDBRANCH  34  35
ENDBRANCH  32  34
ENDBRANCH   6  32
TORSDOF 20
ENDMDL
MODEL 3
REMARK VINA RESULT:      -4.3     29.253     33.073
REMARK  Name = 27924_Phorbol.pdbqt.pdb
REMARK  26 active torsions:
REMARK  status: ('A' for Active; 'I' for Inactive)
REMARK    1  A    between atoms: O_1  and  C_10
REMARK    2  A    between atoms: O_1  and  C_26
REMARK    3  A    between atoms: O_2  and  C_13
REMARK    4  A    between atoms: O_2  and  C_28
REMARK    5  A    between atoms: O_3  and  C_14
REMARK    6  A    between atoms: O_4  and  C_20
REMARK    7  A    between atoms: O_7  and  C_29
REMARK    8  A    between atoms: C_11  and  C_16
REMARK    9  A    between atoms: C_11  and  C_17
REMARK   10  A    between atoms: C_15  and  C_21
REMARK   11  A    between atoms: C_22  and  C_29
REMARK   12  A    between atoms: C_26  and  C_30
REMARK   13  A    between atoms: C_27  and  C_31
REMARK   14  A    between atoms: C_28  and  C_32
REMARK   15  A    between atoms: C_32  and  C_33
REMARK   16  A    between atoms: C_33  and  C_34
REMARK   17  A    between atoms: C_34  and  C_35
REMARK   18  A    between atoms: C_35  and  C_36
REMARK   19  A    between atoms: C_36  and  C_37
REMARK   20  A    between atoms: C_37  and  C_38
REMARK   21  A    between atoms: C_38  and  C_39
REMARK   22  A    between atoms: C_39  and  C_40
REMARK   23  A    between atoms: C_40  and  C_41
REMARK   24  A    between atoms: C_41  and  C_42
REMARK   25  A    between atoms: C_42  and  C_43
REMARK   26  A    between atoms: C_43  and  C_44
REMARK                            x       y       z     vdW  Elec       q    Type
REMARK                         _______ _______ _______ _____ _____    ______ ____
ROOT
ATOM      1  O   UNL     1       8.365  55.443  10.315  0.00  0.00    +0.000 OA
ATOM      2  C   UNL     1       4.530  55.048  16.273  0.00  0.00    +0.000 C 
ATOM      3  C   UNL     1       5.217  55.150  17.621  0.00  0.00    +0.000 C 
ATOM      4  C   UNL     1       4.655  53.792  17.112  0.00  0.00    +0.000 C 
ATOM      5  C   UNL     1       5.235  55.465  15.017  0.00  0.00    +0.000 C 
ATOM      6  C   UNL     1       6.712  55.518  17.621  0.00  0.00    +0.000 C 
ATOM      7  C   UNL     1       6.823  55.633  15.064  0.00  0.00    +0.000 C 
ATOM      8  C   UNL     1       7.078  56.435  16.401  0.00  0.00    +0.000 C 
ATOM      9  C   UNL     1       3.335  53.271  17.655  0.00  0.00    +0.000 C 
ATOM     10  C   UNL     1       5.557  52.659  16.687  0.00  0.00    +0.000 C 
ATOM     11  C   UNL     1       7.316  56.274  13.669  0.00  0.00    +0.000 C 
ATOM     12  C   UNL     1       4.747  54.736  13.779  0.00  0.00    +0.000 C 
ATOM     13  C   UNL     1       7.099  55.350  12.390  0.00  0.00    +0.000 C 
ATOM     14  C   UNL     1       8.483  57.014  16.575  0.00  0.00    +0.000 C 
ATOM     15  C   UNL     1       4.588  55.487  12.668  0.00  0.00    +0.000 C 
ATOM     16  C   UNL     1       5.736  55.472  11.674  0.00  0.00    +0.000 C 
ATOM     17  C   UNL     1       8.783  56.640  13.484  0.00  0.00    +0.000 C 
ATOM     18  C   UNL     1       8.249  55.752  11.492  0.00  0.00    +0.000 C 
ATOM     19  C   UNL     1       9.297  56.427  12.265  0.00  0.00    +0.000 C 
ATOM     20  C   UNL     1      10.632  56.739  11.713  0.00  0.00    +0.000 C 
ENDROOT
BRANCH   7  21
ATOM     21  O   UNL     1       7.495  54.376  15.219  0.00  0.00    +0.000 OA
ATOM     22  H   UNL     1       6.815  53.666  15.203  0.00  0.00    +0.000 HD
ENDBRANCH   7  21
BRANCH  13  23
ATOM     23  O   UNL     1       7.376  53.959  12.687  0.00  0.00    +0.000 OA
ATOM     24  H   UNL     1       7.606  53.926  13.639  0.00  0.00    +0.000 HD
ENDBRANCH  13  23
BRANCH   3  25
ATOM     25  O   UNL     1       4.406  55.946  18.524  0.00  0.00    +0.000 OA
BRANCH  25  27
ATOM     26  O   UNL     1       4.364  58.095  17.873  0.00  0.00    +0.000 OA
ATOM     27  C   UNL     1       3.743  57.078  18.178  0.00  0.00    +0.000 C 
ATOM     28  C   UNL     1       2.247  57.042  18.095  0.00  0.00    +0.000 C 
ENDBRANCH  25  27
ENDBRANCH   3  25
BRANCH  15  29
ATOM     29  C   UNL     1       3.708  56.707  12.610  0.00  0.00    +0.000 C 
BRANCH  29  30
ATOM     30  O   UNL     1       4.491  57.798  12.154  0.00  0.00    +0.000 OA
ATOM     31  H   UNL     1       4.956  58.153  12.933  0.00  0.00    +0.000 HD
ENDBRANCH  29  30
ENDBRANCH  15  29
BRANCH   6  32
ATOM     32  O   UNL     1       7.002  56.211  18.866  0.00  0.00    +0.000 OA
BRANCH  32  34
ATOM     33  O   UNL     1       7.847  56.237  20.936  0.00  0.00    +0.000 OA
ATOM     34  C   UNL     1       7.926  55.833  19.778  0.00  0.00    +0.000 C 
BRANCH  34  35
ATOM     35  C   UNL     1       9.048  54.915  19.360  0.00  0.00    +0.000 C 
BRANCH  35  36
ATOM     36  C   UNL     1      10.215  54.970  20.339  0.00  0.00    +0.000 C 
BRANCH  36  37
ATOM     37  C   UNL     1      11.594  54.986  19.670  0.00  0.00    +0.000 C 
BRANCH  37  38
ATOM     38  C   UNL     1      12.109  56.387  19.312  0.00  0.00    +0.000 C 
BRANCH  38  39
ATOM     39  C   UNL     1      12.020  56.678  17.810  0.00  0.00    +0.000 C 
BRANCH  39  40
ATOM     40  C   UNL     1      12.447  55.498  16.933  0.00  0.00    +0.000 C 
BRANCH  40  41
ATOM     41  C   UNL     1      11.618  55.371  15.652  0.00  0.00    +0.000 C 
BRANCH  41  42
ATOM     42  C   UNL     1      12.449  54.975  14.429  0.00  0.00    +0.000 C 
BRANCH  42  43
ATOM     43  C   UNL     1      11.972  53.731  13.674  0.00  0.00    +0.000 C 
BRANCH  43  44
ATOM     44  C   UNL     1      12.852  52.486  13.827  0.00  0.00    +0.000 C 
BRANCH  44  45
ATOM     45  C   UNL     1      12.930  51.900  15.240  0.00  0.00    +0.000 C 
BRANCH  45  46
ATOM     46  C   UNL     1      14.304  51.962  15.911  0.00  0.00    +0.000 C 
ATOM     47  C   UNL     1      14.248  52.395  17.367  0.00  0.00    +0.000 C 
ENDBRANCH  45  46
ENDBRANCH  44  45
ENDBRANCH  43  44
ENDBRANCH  42  43
ENDBRANCH  41  42
ENDBRANCH  40  41
ENDBRANCH  39  40
ENDBRANCH  38  39
ENDBRANCH  37  38
ENDBRANCH  36  37
ENDBRANCH  35  36
ENDBRANCH  34  35
ENDBRANCH  32  34
ENDBRANCH   6  32
TORSDOF 20
ENDMDL
MODEL 4
REMARK VINA RESULT:      -4.0      2.448      5.281
REMARK  Name = 27924_Phorbol.pdbqt.pdb
REMARK  26 active torsions:
REMARK  status: ('A' for Active; 'I' for Inactive)
REMARK    1  A    between atoms: O_1  and  C_10
REMARK    2  A    between atoms: O_1  and  C_26
REMARK    3  A    between atoms: O_2  and  C_13
REMARK    4  A    between atoms: O_2  and  C_28
REMARK    5  A    between atoms: O_3  and  C_14
REMARK    6  A    between atoms: O_4  and  C_20
REMARK    7  A    between atoms: O_7  and  C_29
REMARK    8  A    between atoms: C_11  and  C_16
REMARK    9  A    between atoms: C_11  and  C_17
REMARK   10  A    between atoms: C_15  and  C_21
REMARK   11  A    between atoms: C_22  and  C_29
REMARK   12  A    between atoms: C_26  and  C_30
REMARK   13  A    between atoms: C_27  and  C_31
REMARK   14  A    between atoms: C_28  and  C_32
REMARK   15  A    between atoms: C_32  and  C_33
REMARK   16  A    between atoms: C_33  and  C_34
REMARK   17  A    between atoms: C_34  and  C_35
REMARK   18  A    between atoms: C_35  and  C_36
REMARK   19  A    between atoms: C_36  and  C_37
REMARK   20  A    between atoms: C_37  and  C_38
REMARK   21  A    between atoms: C_38  and  C_39
REMARK   22  A    between atoms: C_39  and  C_40
REMARK   23  A    between atoms: C_40  and  C_41
REMARK   24  A    between atoms: C_41  and  C_42
REMARK   25  A    between atoms: C_42  and  C_43
REMARK   26  A    between atoms: C_43  and  C_44
REMARK                            x       y       z     vdW  Elec       q    Type
REMARK                         _______ _______ _______ _____ _____    ______ ____
ROOT
ATOM      1  O   UNL     1     -21.429  37.802  -1.167  0.00  0.00    +0.000 OA
ATOM      2  C   UNL     1     -17.704  36.677   4.767  0.00  0.00    +0.000 C 
ATOM      3  C   UNL     1     -17.019  37.840   5.460  0.00  0.00    +0.000 C 
ATOM      4  C   UNL     1     -16.194  36.775   4.683  0.00  0.00    +0.000 C 
ATOM      5  C   UNL     1     -18.763  36.915   3.733  0.00  0.00    +0.000 C 
ATOM      6  C   UNL     1     -17.323  39.252   4.928  0.00  0.00    +0.000 C 
ATOM      7  C   UNL     1     -18.875  38.373   3.090  0.00  0.00    +0.000 C 
ATOM      8  C   UNL     1     -18.772  39.343   4.332  0.00  0.00    +0.000 C 
ATOM      9  C   UNL     1     -15.455  35.688   5.446  0.00  0.00    +0.000 C 
ATOM     10  C   UNL     1     -15.507  37.090   3.377  0.00  0.00    +0.000 C 
ATOM     11  C   UNL     1     -20.198  38.431   2.169  0.00  0.00    +0.000 C 
ATOM     12  C   UNL     1     -18.870  35.800   2.710  0.00  0.00    +0.000 C 
ATOM     13  C   UNL     1     -20.168  37.484   0.889  0.00  0.00    +0.000 C 
ATOM     14  C   UNL     1     -19.148  40.802   4.074  0.00  0.00    +0.000 C 
ATOM     15  C   UNL     1     -20.121  35.428   2.362  0.00  0.00    +0.000 C 
ATOM     16  C   UNL     1     -20.676  36.039   1.088  0.00  0.00    +0.000 C 
ATOM     17  C   UNL     1     -20.606  39.745   1.515  0.00  0.00    +0.000 C 
ATOM     18  C   UNL     1     -21.012  38.249  -0.109  0.00  0.00    +0.000 C 
ATOM     19  C   UNL     1     -21.126  39.658   0.284  0.00  0.00    +0.000 C 
ATOM     20  C   UNL     1     -21.697  40.697  -0.598  0.00  0.00    +0.000 C 
ENDROOT
BRANCH   7  21
ATOM     21  O   UNL     1     -17.755  38.681   2.250  0.00  0.00    +0.000 OA
ATOM     22  H   UNL     1     -17.343  37.832   1.973  0.00  0.00    +0.000 HD
ENDBRANCH   7  21
BRANCH  13  23
ATOM     23  O   UNL     1     -18.857  37.465   0.274  0.00  0.00    +0.000 OA
ATOM     24  H   UNL     1     -19.009  37.548  -0.691  0.00  0.00    +0.000 HD
ENDBRANCH  13  23
BRANCH   3  25
ATOM     25  O   UNL     1     -17.157  37.701   6.898  0.00  0.00    +0.000 OA
BRANCH  25  27
ATOM     26  O   UNL     1     -18.101  36.009   8.033  0.00  0.00    +0.000 OA
ATOM     27  C   UNL     1     -18.213  37.123   7.525  0.00  0.00    +0.000 C 
ATOM     28  C   UNL     1     -19.489  37.899   7.656  0.00  0.00    +0.000 C 
ENDBRANCH  25  27
ENDBRANCH   3  25
BRANCH  15  29
ATOM     29  C   UNL     1     -21.156  34.966   3.353  0.00  0.00    +0.000 C 
BRANCH  29  30
ATOM     30  O   UNL     1     -22.220  35.903   3.352  0.00  0.00    +0.000 OA
ATOM     31  H   UNL     1     -23.041  35.394   3.479  0.00  0.00    +0.000 HD
ENDBRANCH  29  30
ENDBRANCH  15  29
BRANCH   6  32
ATOM     32  O   UNL     1     -17.182  40.187   6.033  0.00  0.00    +0.000 OA
BRANCH  32  34
ATOM     33  O   UNL     1     -16.653  42.281   6.613  0.00  0.00    +0.000 OA
ATOM     34  C   UNL     1     -16.319  41.227   6.077  0.00  0.00    +0.000 C 
BRANCH  34  35
ATOM     35  C   UNL     1     -14.948  41.079   5.463  0.00  0.00    +0.000 C 
BRANCH  35  36
ATOM     36  C   UNL     1     -14.524  42.341   4.722  0.00  0.00    +0.000 C 
BRANCH  36  37
ATOM     37  C   UNL     1     -15.155  42.496   3.334  0.00  0.00    +0.000 C 
BRANCH  37  38
ATOM     38  C   UNL     1     -16.256  43.562   3.254  0.00  0.00    +0.000 C 
BRANCH  38  39
ATOM     39  C   UNL     1     -16.780  43.759   1.827  0.00  0.00    +0.000 C 
BRANCH  39  40
ATOM     40  C   UNL     1     -17.597  42.573   1.307  0.00  0.00    +0.000 C 
BRANCH  40  41
ATOM     41  C   UNL     1     -18.528  42.947   0.151  0.00  0.00    +0.000 C 
BRANCH  41  42
ATOM     42  C   UNL     1     -18.382  44.404  -0.297  0.00  0.00    +0.000 C 
BRANCH  42  43
ATOM     43  C   UNL     1     -19.580  45.314  -0.008  0.00  0.00    +0.000 C 
BRANCH  43  44
ATOM     44  C   UNL     1     -19.410  46.274   1.174  0.00  0.00    +0.000 C 
BRANCH  44  45
ATOM     45  C   UNL     1     -20.357  46.043   2.355  0.00  0.00    +0.000 C 
BRANCH  45  46
ATOM     46  C   UNL     1     -20.501  44.592   2.819  0.00  0.00    +0.000 C 
ATOM     47  C   UNL     1     -19.911  44.336   4.197  0.00  0.00    +0.000 C 
ENDBRANCH  45  46
ENDBRANCH  44  45
ENDBRANCH  43  44
ENDBRANCH  42  43
ENDBRANCH  41  42
ENDBRANCH  40  41
ENDBRANCH  39  40
ENDBRANCH  38  39
ENDBRANCH  37  38
ENDBRANCH  36  37
ENDBRANCH  35  36
ENDBRANCH  34  35
ENDBRANCH  32  34
ENDBRANCH   6  32
TORSDOF 20
ENDMDL
MODEL 5
REMARK VINA RESULT:      -3.8     32.724     36.585
REMARK  Name = 27924_Phorbol.pdbqt.pdb
REMARK  26 active torsions:
REMARK  status: ('A' for Active; 'I' for Inactive)
REMARK    1  A    between atoms: O_1  and  C_10
REMARK    2  A    between atoms: O_1  and  C_26
REMARK    3  A    between atoms: O_2  and  C_13
REMARK    4  A    between atoms: O_2  and  C_28
REMARK    5  A    between atoms: O_3  and  C_14
REMARK    6  A    between atoms: O_4  and  C_20
REMARK    7  A    between atoms: O_7  and  C_29
REMARK    8  A    between atoms: C_11  and  C_16
REMARK    9  A    between atoms: C_11  and  C_17
REMARK   10  A    between atoms: C_15  and  C_21
REMARK   11  A    between atoms: C_22  and  C_29
REMARK   12  A    between atoms: C_26  and  C_30
REMARK   13  A    between atoms: C_27  and  C_31
REMARK   14  A    between atoms: C_28  and  C_32
REMARK   15  A    between atoms: C_32  and  C_33
REMARK   16  A    between atoms: C_33  and  C_34
REMARK   17  A    between atoms: C_34  and  C_35
REMARK   18  A    between atoms: C_35  and  C_36
REMARK   19  A    between atoms: C_36  and  C_37
REMARK   20  A    between atoms: C_37  and  C_38
REMARK   21  A    between atoms: C_38  and  C_39
REMARK   22  A    between atoms: C_39  and  C_40
REMARK   23  A    between atoms: C_40  and  C_41
REMARK   24  A    between atoms: C_41  and  C_42
REMARK   25  A    between atoms: C_42  and  C_43
REMARK   26  A    between atoms: C_43  and  C_44
REMARK                            x       y       z     vdW  Elec       q    Type
REMARK                         _______ _______ _______ _____ _____    ______ ____
ROOT
ATOM      1  O   UNL     1      15.987  38.213  23.252  0.00  0.00    +0.000 OA
ATOM      2  C   UNL     1      11.166  33.029  23.743  0.00  0.00    +0.000 C 
ATOM      3  C   UNL     1      10.878  32.149  22.541  0.00  0.00    +0.000 C 
ATOM      4  C   UNL     1       9.850  33.216  23.015  0.00  0.00    +0.000 C 
ATOM      5  C   UNL     1      12.394  33.888  23.790  0.00  0.00    +0.000 C 
ATOM      6  C   UNL     1      11.792  32.318  21.313  0.00  0.00    +0.000 C 
ATOM      7  C   UNL     1      13.170  34.170  22.423  0.00  0.00    +0.000 C 
ATOM      8  C   UNL     1      13.241  32.752  21.730  0.00  0.00    +0.000 C 
ATOM      9  C   UNL     1       8.630  32.786  23.811  0.00  0.00    +0.000 C 
ATOM     10  C   UNL     1       9.572  34.469  22.221  0.00  0.00    +0.000 C 
ATOM     11  C   UNL     1      14.547  34.938  22.760  0.00  0.00    +0.000 C 
ATOM     12  C   UNL     1      12.232  35.126  24.653  0.00  0.00    +0.000 C 
ATOM     13  C   UNL     1      14.371  36.399  23.370  0.00  0.00    +0.000 C 
ATOM     14  C   UNL     1      14.192  32.638  20.538  0.00  0.00    +0.000 C 
ATOM     15  C   UNL     1      13.280  35.443  25.444  0.00  0.00    +0.000 C 
ATOM     16  C   UNL     1      14.237  36.492  24.906  0.00  0.00    +0.000 C 
ATOM     17  C   UNL     1      15.538  35.238  21.641  0.00  0.00    +0.000 C 
ATOM     18  C   UNL     1      15.601  37.120  22.864  0.00  0.00    +0.000 C 
ATOM     19  C   UNL     1      16.184  36.408  21.721  0.00  0.00    +0.000 C 
ATOM     20  C   UNL     1      17.255  36.978  20.877  0.00  0.00    +0.000 C 
ENDROOT
BRANCH   7  21
ATOM     21  O   UNL     1      12.417  35.009  21.537  0.00  0.00    +0.000 OA
ATOM     22  H   UNL     1      11.999  35.718  22.075  0.00  0.00    +0.000 HD
ENDBRANCH   7  21
BRANCH  13  23
ATOM     23  O   UNL     1      13.280  37.110  22.737  0.00  0.00    +0.000 OA
ATOM     24  H   UNL     1      12.865  37.652  23.440  0.00  0.00    +0.000 HD
ENDBRANCH  13  23
BRANCH   3  25
ATOM     25  O   UNL     1      10.705  30.774  22.972  0.00  0.00    +0.000 OA
BRANCH  25  27
ATOM     26  O   UNL     1      12.628  29.962  23.801  0.00  0.00    +0.000 OA
ATOM     27  C   UNL     1      11.426  30.171  23.952  0.00  0.00    +0.000 C 
ATOM     28  C   UNL     1      10.748  29.841  25.248  0.00  0.00    +0.000 C 
ENDBRANCH  25  27
ENDBRANCH   3  25
BRANCH  15  29
ATOM     29  C   UNL     1      13.870  34.499  26.458  0.00  0.00    +0.000 C 
BRANCH  29  30
ATOM     30  O   UNL     1      14.807  35.220  27.241  0.00  0.00    +0.000 OA
ATOM     31  H   UNL     1      14.300  35.670  27.940  0.00  0.00    +0.000 HD
ENDBRANCH  29  30
ENDBRANCH  15  29
BRANCH   6  32
ATOM     32  O   UNL     1      11.839  31.045  20.612  0.00  0.00    +0.000 OA
BRANCH  32  34
ATOM     33  O   UNL     1      11.510  31.487  18.445  0.00  0.00    +0.000 OA
ATOM     34  C   UNL     1      11.258  30.783  19.419  0.00  0.00    +0.000 C 
BRANCH  34  35
ATOM     35  C   UNL     1      10.301  29.622  19.300  0.00  0.00    +0.000 C 
BRANCH  35  36
ATOM     36  C   UNL     1      10.664  28.711  18.134  0.00  0.00    +0.000 C 
BRANCH  36  37
ATOM     37  C   UNL     1       9.558  28.565  17.083  0.00  0.00    +0.000 C 
BRANCH  37  38
ATOM     38  C   UNL     1       9.573  27.229  16.328  0.00  0.00    +0.000 C 
BRANCH  38  39
ATOM     39  C   UNL     1       8.248  26.945  15.612  0.00  0.00    +0.000 C 
BRANCH  39  40
ATOM     40  C   UNL     1       7.765  25.501  15.769  0.00  0.00    +0.000 C 
BRANCH  40  41
ATOM     41  C   UNL     1       8.036  24.925  17.161  0.00  0.00    +0.000 C 
BRANCH  41  42
ATOM     42  C   UNL     1       6.827  25.008  18.097  0.00  0.00    +0.000 C 
BRANCH  42  43
ATOM     43  C   UNL     1       7.122  25.468  19.528  0.00  0.00    +0.000 C 
BRANCH  43  44
ATOM     44  C   UNL     1       8.367  26.344  19.698  0.00  0.00    +0.000 C 
BRANCH  44  45
ATOM     45  C   UNL     1       9.164  26.117  20.985  0.00  0.00    +0.000 C 
BRANCH  45  46
ATOM     46  C   UNL     1      10.574  25.550  20.805  0.00  0.00    +0.000 C 
ATOM     47  C   UNL     1      10.915  25.226  19.359  0.00  0.00    +0.000 C 
ENDBRANCH  45  46
ENDBRANCH  44  45
ENDBRANCH  43  44
ENDBRANCH  42  43
ENDBRANCH  41  42
ENDBRANCH  40  41
ENDBRANCH  39  40
ENDBRANCH  38  39
ENDBRANCH  37  38
ENDBRANCH  36  37
ENDBRANCH  35  36
ENDBRANCH  34  35
ENDBRANCH  32  34
ENDBRANCH   6  32
TORSDOF 20
ENDMDL
MODEL 6
REMARK VINA RESULT:      -3.7      2.665      5.296
REMARK  Name = 27924_Phorbol.pdbqt.pdb
REMARK  26 active torsions:
REMARK  status: ('A' for Active; 'I' for Inactive)
REMARK    1  A    between atoms: O_1  and  C_10
REMARK    2  A    between atoms: O_1  and  C_26
REMARK    3  A    between atoms: O_2  and  C_13
REMARK    4  A    between atoms: O_2  and  C_28
REMARK    5  A    between atoms: O_3  and  C_14
REMARK    6  A    between atoms: O_4  and  C_20
REMARK    7  A    between atoms: O_7  and  C_29
REMARK    8  A    between atoms: C_11  and  C_16
REMARK    9  A    between atoms: C_11  and  C_17
REMARK   10  A    between atoms: C_15  and  C_21
REMARK   11  A    between atoms: C_22  and  C_29
REMARK   12  A    between atoms: C_26  and  C_30
REMARK   13  A    between atoms: C_27  and  C_31
REMARK   14  A    between atoms: C_28  and  C_32
REMARK   15  A    between atoms: C_32  and  C_33
REMARK   16  A    between atoms: C_33  and  C_34
REMARK   17  A    between atoms: C_34  and  C_35
REMARK   18  A    between atoms: C_35  and  C_36
REMARK   19  A    between atoms: C_36  and  C_37
REMARK   20  A    between atoms: C_37  and  C_38
REMARK   21  A    between atoms: C_38  and  C_39
REMARK   22  A    between atoms: C_39  and  C_40
REMARK   23  A    between atoms: C_40  and  C_41
REMARK   24  A    between atoms: C_41  and  C_42
REMARK   25  A    between atoms: C_42  and  C_43
REMARK   26  A    between atoms: C_43  and  C_44
REMARK                            x       y       z     vdW  Elec       q    Type
REMARK                         _______ _______ _______ _____ _____    ______ ____
ROOT
ATOM      1  O   UNL     1     -22.359  37.776  -1.211  0.00  0.00    +0.000 OA
ATOM      2  C   UNL     1     -17.992  37.596   4.380  0.00  0.00    +0.000 C 
ATOM      3  C   UNL     1     -17.653  38.879   5.115  0.00  0.00    +0.000 C 
ATOM      4  C   UNL     1     -16.602  38.176   4.210  0.00  0.00    +0.000 C 
ATOM      5  C   UNL     1     -19.154  37.536   3.434  0.00  0.00    +0.000 C 
ATOM      6  C   UNL     1     -18.430  40.146   4.711  0.00  0.00    +0.000 C 
ATOM      7  C   UNL     1     -19.773  38.912   2.911  0.00  0.00    +0.000 C 
ATOM      8  C   UNL     1     -19.878  39.799   4.215  0.00  0.00    +0.000 C 
ATOM      9  C   UNL     1     -15.498  37.345   4.842  0.00  0.00    +0.000 C 
ATOM     10  C   UNL     1     -16.160  38.762   2.892  0.00  0.00    +0.000 C 
ATOM     11  C   UNL     1     -21.117  38.592   2.081  0.00  0.00    +0.000 C 
ATOM     12  C   UNL     1     -18.987  36.499   2.338  0.00  0.00    +0.000 C 
ATOM     13  C   UNL     1     -20.897  37.772   0.733  0.00  0.00    +0.000 C 
ATOM     14  C   UNL     1     -20.715  41.072   4.091  0.00  0.00    +0.000 C 
ATOM     15  C   UNL     1     -20.081  35.765   2.041  0.00  0.00    +0.000 C 
ATOM     16  C   UNL     1     -20.904  36.232   0.853  0.00  0.00    +0.000 C 
ATOM     17  C   UNL     1     -21.971  39.739   1.554  0.00  0.00    +0.000 C 
ATOM     18  C   UNL     1     -22.017  38.277  -0.150  0.00  0.00    +0.000 C 
ATOM     19  C   UNL     1     -22.537  39.553   0.355  0.00  0.00    +0.000 C 
ATOM     20  C   UNL     1     -23.478  40.399  -0.409  0.00  0.00    +0.000 C 
ENDROOT
BRANCH   7  21
ATOM     21  O   UNL     1     -18.880  39.606   2.029  0.00  0.00    +0.000 OA
ATOM     22  H   UNL     1     -18.049  39.084   1.969  0.00  0.00    +0.000 HD
ENDBRANCH   7  21
BRANCH  13  23
ATOM     23  O   UNL     1     -19.701  38.205   0.038  0.00  0.00    +0.000 OA
ATOM     24  H   UNL     1     -19.346  37.410  -0.411  0.00  0.00    +0.000 HD
ENDBRANCH  13  23
BRANCH   3  25
ATOM     25  O   UNL     1     -17.622  38.629   6.544  0.00  0.00    +0.000 OA
BRANCH  25  27
ATOM     26  O   UNL     1     -19.659  38.219   7.395  0.00  0.00    +0.000 OA
ATOM     27  C   UNL     1     -18.502  37.844   7.215  0.00  0.00    +0.000 C 
ATOM     28  C   UNL     1     -18.063  36.480   7.657  0.00  0.00    +0.000 C 
ENDBRANCH  25  27
ENDBRANCH   3  25
BRANCH  15  29
ATOM     29  C   UNL     1     -20.833  34.945   3.056  0.00  0.00    +0.000 C 
BRANCH  29  30
ATOM     30  O   UNL     1     -22.158  35.443   3.136  0.00  0.00    +0.000 OA
ATOM     31  H   UNL     1     -22.725  34.802   2.673  0.00  0.00    +0.000 HD
ENDBRANCH  29  30
ENDBRANCH  15  29
BRANCH   6  32
ATOM     32  O   UNL     1     -18.500  41.017   5.872  0.00  0.00    +0.000 OA
BRANCH  32  34
ATOM     33  O   UNL     1     -18.287  43.243   5.862  0.00  0.00    +0.000 OA
ATOM     34  C   UNL     1     -17.774  42.144   6.054  0.00  0.00    +0.000 C 
BRANCH  34  35
ATOM     35  C   UNL     1     -16.335  42.034   6.493  0.00  0.00    +0.000 C 
BRANCH  35  36
ATOM     36  C   UNL     1     -15.410  42.852   5.600  0.00  0.00    +0.000 C 
BRANCH  36  37
ATOM     37  C   UNL     1     -14.707  42.037   4.509  0.00  0.00    +0.000 C 
BRANCH  37  38
ATOM     38  C   UNL     1     -15.090  42.433   3.076  0.00  0.00    +0.000 C 
BRANCH  38  39
ATOM     39  C   UNL     1     -15.959  43.694   3.029  0.00  0.00    +0.000 C 
BRANCH  39  40
ATOM     40  C   UNL     1     -16.142  44.258   1.618  0.00  0.00    +0.000 C 
BRANCH  40  41
ATOM     41  C   UNL     1     -14.893  44.969   1.089  0.00  0.00    +0.000 C 
BRANCH  41  42
ATOM     42  C   UNL     1     -14.985  45.330  -0.396  0.00  0.00    +0.000 C 
BRANCH  42  43
ATOM     43  C   UNL     1     -14.155  44.463  -1.346  0.00  0.00    +0.000 C 
BRANCH  43  44
ATOM     44  C   UNL     1     -12.921  45.140  -1.952  0.00  0.00    +0.000 C 
BRANCH  44  45
ATOM     45  C   UNL     1     -11.820  45.521  -0.958  0.00  0.00    +0.000 C 
BRANCH  45  46
ATOM     46  C   UNL     1     -10.499  44.763  -1.106  0.00  0.00    +0.000 C 
ATOM     47  C   UNL     1      -9.358  45.630  -1.616  0.00  0.00    +0.000 C 
ENDBRANCH  45  46
ENDBRANCH  44  45
ENDBRANCH  43  44
ENDBRANCH  42  43
ENDBRANCH  41  42
ENDBRANCH  40  41
ENDBRANCH  39  40
ENDBRANCH  38  39
ENDBRANCH  37  38
ENDBRANCH  36  37
ENDBRANCH  35  36
ENDBRANCH  34  35
ENDBRANCH  32  34
ENDBRANCH   6  32
TORSDOF 20
ENDMDL
MODEL 7
REMARK VINA RESULT:      -3.7     29.066     33.313
REMARK  Name = 27924_Phorbol.pdbqt.pdb
REMARK  26 active torsions:
REMARK  status: ('A' for Active; 'I' for Inactive)
REMARK    1  A    between atoms: O_1  and  C_10
REMARK    2  A    between atoms: O_1  and  C_26
REMARK    3  A    between atoms: O_2  and  C_13
REMARK    4  A    between atoms: O_2  and  C_28
REMARK    5  A    between atoms: O_3  and  C_14
REMARK    6  A    between atoms: O_4  and  C_20
REMARK    7  A    between atoms: O_7  and  C_29
REMARK    8  A    between atoms: C_11  and  C_16
REMARK    9  A    between atoms: C_11  and  C_17
REMARK   10  A    between atoms: C_15  and  C_21
REMARK   11  A    between atoms: C_22  and  C_29
REMARK   12  A    between atoms: C_26  and  C_30
REMARK   13  A    between atoms: C_27  and  C_31
REMARK   14  A    between atoms: C_28  and  C_32
REMARK   15  A    between atoms: C_32  and  C_33
REMARK   16  A    between atoms: C_33  and  C_34
REMARK   17  A    between atoms: C_34  and  C_35
REMARK   18  A    between atoms: C_35  and  C_36
REMARK   19  A    between atoms: C_36  and  C_37
REMARK   20  A    between atoms: C_37  and  C_38
REMARK   21  A    between atoms: C_38  and  C_39
REMARK   22  A    between atoms: C_39  and  C_40
REMARK   23  A    between atoms: C_40  and  C_41
REMARK   24  A    between atoms: C_41  and  C_42
REMARK   25  A    between atoms: C_42  and  C_43
REMARK   26  A    between atoms: C_43  and  C_44
REMARK                            x       y       z     vdW  Elec       q    Type
REMARK                         _______ _______ _______ _____ _____    ______ ____
ROOT
ATOM      1  O   UNL     1      12.730  56.265  17.253  0.00  0.00    +0.000 OA
ATOM      2  C   UNL     1       5.826  55.738  15.700  0.00  0.00    +0.000 C 
ATOM      3  C   UNL     1       4.790  55.913  16.794  0.00  0.00    +0.000 C 
ATOM      4  C   UNL     1       5.083  54.510  16.189  0.00  0.00    +0.000 C 
ATOM      5  C   UNL     1       7.245  56.174  15.907  0.00  0.00    +0.000 C 
ATOM      6  C   UNL     1       5.296  56.381  18.171  0.00  0.00    +0.000 C 
ATOM      7  C   UNL     1       7.739  56.450  17.401  0.00  0.00    +0.000 C 
ATOM      8  C   UNL     1       6.565  57.295  18.037  0.00  0.00    +0.000 C 
ATOM      9  C   UNL     1       4.126  53.913  15.171  0.00  0.00    +0.000 C 
ATOM     10  C   UNL     1       5.793  53.432  16.971  0.00  0.00    +0.000 C 
ATOM     11  C   UNL     1       9.216  57.093  17.347  0.00  0.00    +0.000 C 
ATOM     12  C   UNL     1       8.246  55.389  15.080  0.00  0.00    +0.000 C 
ATOM     13  C   UNL     1      10.348  56.131  16.775  0.00  0.00    +0.000 C 
ATOM     14  C   UNL     1       6.876  57.969  19.374  0.00  0.00    +0.000 C 
ATOM     15  C   UNL     1       9.235  56.105  14.503  0.00  0.00    +0.000 C 
ATOM     16  C   UNL     1      10.559  56.146  15.244  0.00  0.00    +0.000 C 
ATOM     17  C   UNL     1       9.887  57.553  18.635  0.00  0.00    +0.000 C 
ATOM     18  C   UNL     1      11.582  56.590  17.521  0.00  0.00    +0.000 C 
ATOM     19  C   UNL     1      11.208  57.349  18.719  0.00  0.00    +0.000 C 
ATOM     20  C   UNL     1      12.179  57.739  19.763  0.00  0.00    +0.000 C 
ENDROOT
BRANCH   7  21
ATOM     21  O   UNL     1       7.825  55.244  18.172  0.00  0.00    +0.000 OA
ATOM     22  H   UNL     1       7.433  55.423  19.056  0.00  0.00    +0.000 HD
ENDBRANCH   7  21
BRANCH  13  23
ATOM     23  O   UNL     1      10.168  54.768  17.232  0.00  0.00    +0.000 OA
ATOM     24  H   UNL     1      11.065  54.426  17.427  0.00  0.00    +0.000 HD
ENDBRANCH  13  23
BRANCH   3  25
ATOM     25  O   UNL     1       3.663  56.671  16.283  0.00  0.00    +0.000 OA
BRANCH  25  27
ATOM     26  O   UNL     1       4.216  58.804  15.850  0.00  0.00    +0.000 OA
ATOM     27  C   UNL     1       3.759  57.736  15.447  0.00  0.00    +0.000 C 
ATOM     28  C   UNL     1       3.375  57.562  14.009  0.00  0.00    +0.000 C 
ENDBRANCH  25  27
ENDBRANCH   3  25
BRANCH  15  29
ATOM     29  C   UNL     1       8.987  57.262  13.572  0.00  0.00    +0.000 C 
BRANCH  29  30
ATOM     30  O   UNL     1       8.326  56.771  12.418  0.00  0.00    +0.000 OA
ATOM     31  H   UNL     1       8.640  57.305  11.667  0.00  0.00    +0.000 HD
ENDBRANCH  29  30
ENDBRANCH  15  29
BRANCH   6  32
ATOM     32  O   UNL     1       4.221  57.117  18.816  0.00  0.00    +0.000 OA
BRANCH  32  34
ATOM     33  O   UNL     1       4.008  56.672  20.998  0.00  0.00    +0.000 OA
ATOM     34  C   UNL     1       3.502  56.687  19.878  0.00  0.00    +0.000 C 
BRANCH  34  35
ATOM     35  C   UNL     1       2.079  56.231  19.672  0.00  0.00    +0.000 C 
BRANCH  35  36
ATOM     36  C   UNL     1       1.096  57.070  20.480  0.00  0.00    +0.000 C 
BRANCH  36  37
ATOM     37  C   UNL     1       0.283  56.271  21.505  0.00  0.00    +0.000 C 
BRANCH  37  38
ATOM     38  C   UNL     1       0.878  56.263  22.919  0.00  0.00    +0.000 C 
BRANCH  38  39
ATOM     39  C   UNL     1       0.027  55.462  23.910  0.00  0.00    +0.000 C 
BRANCH  39  40
ATOM     40  C   UNL     1       0.796  55.016  25.156  0.00  0.00    +0.000 C 
BRANCH  40  41
ATOM     41  C   UNL     1       0.728  53.505  25.395  0.00  0.00    +0.000 C 
BRANCH  41  42
ATOM     42  C   UNL     1       0.113  53.133  26.747  0.00  0.00    +0.000 C 
BRANCH  42  43
ATOM     43  C   UNL     1      -0.120  51.638  26.984  0.00  0.00    +0.000 C 
BRANCH  43  44
ATOM     44  C   UNL     1      -1.542  51.248  27.399  0.00  0.00    +0.000 C 
BRANCH  44  45
ATOM     45  C   UNL     1      -2.108  49.994  26.726  0.00  0.00    +0.000 C 
BRANCH  45  46
ATOM     46  C   UNL     1      -1.609  48.658  27.281  0.00  0.00    +0.000 C 
ATOM     47  C   UNL     1      -2.078  47.456  26.477  0.00  0.00    +0.000 C 
ENDBRANCH  45  46
ENDBRANCH  44  45
ENDBRANCH  43  44
ENDBRANCH  42  43
ENDBRANCH  41  42
ENDBRANCH  40  41
ENDBRANCH  39  40
ENDBRANCH  38  39
ENDBRANCH  37  38
ENDBRANCH  36  37
ENDBRANCH  35  36
ENDBRANCH  34  35
ENDBRANCH  32  34
ENDBRANCH   6  32
TORSDOF 20
ENDMDL
MODEL 8
REMARK VINA RESULT:      -3.6      2.401      5.009
REMARK  Name = 27924_Phorbol.pdbqt.pdb
REMARK  26 active torsions:
REMARK  status: ('A' for Active; 'I' for Inactive)
REMARK    1  A    between atoms: O_1  and  C_10
REMARK    2  A    between atoms: O_1  and  C_26
REMARK    3  A    between atoms: O_2  and  C_13
REMARK    4  A    between atoms: O_2  and  C_28
REMARK    5  A    between atoms: O_3  and  C_14
REMARK    6  A    between atoms: O_4  and  C_20
REMARK    7  A    between atoms: O_7  and  C_29
REMARK    8  A    between atoms: C_11  and  C_16
REMARK    9  A    between atoms: C_11  and  C_17
REMARK   10  A    between atoms: C_15  and  C_21
REMARK   11  A    between atoms: C_22  and  C_29
REMARK   12  A    between atoms: C_26  and  C_30
REMARK   13  A    between atoms: C_27  and  C_31
REMARK   14  A    between atoms: C_28  and  C_32
REMARK   15  A    between atoms: C_32  and  C_33
REMARK   16  A    between atoms: C_33  and  C_34
REMARK   17  A    between atoms: C_34  and  C_35
REMARK   18  A    between atoms: C_35  and  C_36
REMARK   19  A    between atoms: C_36  and  C_37
REMARK   20  A    between atoms: C_37  and  C_38
REMARK   21  A    between atoms: C_38  and  C_39
REMARK   22  A    between atoms: C_39  and  C_40
REMARK   23  A    between atoms: C_40  and  C_41
REMARK   24  A    between atoms: C_41  and  C_42
REMARK   25  A    between atoms: C_42  and  C_43
REMARK   26  A    between atoms: C_43  and  C_44
REMARK                            x       y       z     vdW  Elec       q    Type
REMARK                         _______ _______ _______ _____ _____    ______ ____
ROOT
ATOM      1  O   UNL     1     -21.291  37.771  -1.397  0.00  0.00    +0.000 OA
ATOM      2  C   UNL     1     -17.724  36.909   4.677  0.00  0.00    +0.000 C 
ATOM      3  C   UNL     1     -17.059  38.102   5.339  0.00  0.00    +0.000 C 
ATOM      4  C   UNL     1     -16.212  37.008   4.629  0.00  0.00    +0.000 C 
ATOM      5  C   UNL     1     -18.755  37.100   3.606  0.00  0.00    +0.000 C 
ATOM      6  C   UNL     1     -17.352  39.490   4.739  0.00  0.00    +0.000 C 
ATOM      7  C   UNL     1     -18.853  38.529   2.899  0.00  0.00    +0.000 C 
ATOM      8  C   UNL     1     -18.785  39.551   4.102  0.00  0.00    +0.000 C 
ATOM      9  C   UNL     1     -15.492  35.957   5.457  0.00  0.00    +0.000 C 
ATOM     10  C   UNL     1     -15.491  37.270   3.330  0.00  0.00    +0.000 C 
ATOM     11  C   UNL     1     -20.150  38.544   1.942  0.00  0.00    +0.000 C 
ATOM     12  C   UNL     1     -18.832  35.942   2.628  0.00  0.00    +0.000 C 
ATOM     13  C   UNL     1     -20.084  37.544   0.703  0.00  0.00    +0.000 C 
ATOM     14  C   UNL     1     -19.158  40.996   3.772  0.00  0.00    +0.000 C 
ATOM     15  C   UNL     1     -20.072  35.551   2.262  0.00  0.00    +0.000 C 
ATOM     16  C   UNL     1     -20.594  36.107   0.949  0.00  0.00    +0.000 C 
ATOM     17  C   UNL     1     -20.543  39.828   1.222  0.00  0.00    +0.000 C 
ATOM     18  C   UNL     1     -20.902  38.263  -0.348  0.00  0.00    +0.000 C 
ATOM     19  C   UNL     1     -21.030  39.687  -0.018  0.00  0.00    +0.000 C 
ATOM     20  C   UNL     1     -21.580  40.687  -0.957  0.00  0.00    +0.000 C 
ENDROOT
BRANCH   7  21
ATOM     21  O   UNL     1     -17.711  38.805   2.077  0.00  0.00    +0.000 OA
ATOM     22  H   UNL     1     -17.030  39.233   2.641  0.00  0.00    +0.000 HD
ENDBRANCH   7  21
BRANCH  13  23
ATOM     23  O   UNL     1     -18.757  37.503   0.125  0.00  0.00    +0.000 OA
ATOM     24  H   UNL     1     -18.598  38.393  -0.252  0.00  0.00    +0.000 HD
ENDBRANCH  13  23
BRANCH   3  25
ATOM     25  O   UNL     1     -17.236  38.023   6.777  0.00  0.00    +0.000 OA
BRANCH  25  27
ATOM     26  O   UNL     1     -18.115  36.352   7.993  0.00  0.00    +0.000 OA
ATOM     27  C   UNL     1     -18.279  37.416   7.399  0.00  0.00    +0.000 C 
ATOM     28  C   UNL     1     -19.609  38.107   7.419  0.00  0.00    +0.000 C 
ENDBRANCH  25  27
ENDBRANCH   3  25
BRANCH  15  29
ATOM     29  C   UNL     1     -21.133  35.128   3.244  0.00  0.00    +0.000 C 
BRANCH  29  30
ATOM     30  O   UNL     1     -22.271  34.704   2.513  0.00  0.00    +0.000 OA
ATOM     31  H   UNL     1     -21.959  34.474   1.619  0.00  0.00    +0.000 HD
ENDBRANCH  29  30
ENDBRANCH  15  29
BRANCH   6  32
ATOM     32  O   UNL     1     -17.243  40.470   5.807  0.00  0.00    +0.000 OA
BRANCH  32  34
ATOM     33  O   UNL     1     -16.022  41.925   6.989  0.00  0.00    +0.000 OA
ATOM     34  C   UNL     1     -16.296  41.431   5.897  0.00  0.00    +0.000 C 
BRANCH  34  35
ATOM     35  C   UNL     1     -15.583  41.888   4.648  0.00  0.00    +0.000 C 
BRANCH  35  36
ATOM     36  C   UNL     1     -16.240  43.123   4.044  0.00  0.00    +0.000 C 
BRANCH  36  37
ATOM     37  C   UNL     1     -15.368  43.864   3.025  0.00  0.00    +0.000 C 
BRANCH  37  38
ATOM     38  C   UNL     1     -15.950  43.909   1.606  0.00  0.00    +0.000 C 
BRANCH  38  39
ATOM     39  C   UNL     1     -16.499  42.552   1.153  0.00  0.00    +0.000 C 
BRANCH  39  40
ATOM     40  C   UNL     1     -17.959  42.604   0.697  0.00  0.00    +0.000 C 
BRANCH  40  41
ATOM     41  C   UNL     1     -18.776  43.677   1.421  0.00  0.00    +0.000 C 
BRANCH  41  42
ATOM     42  C   UNL     1     -19.372  44.725   0.477  0.00  0.00    +0.000 C 
BRANCH  42  43
ATOM     43  C   UNL     1     -18.789  46.136   0.595  0.00  0.00    +0.000 C 
BRANCH  43  44
ATOM     44  C   UNL     1     -18.006  46.632  -0.625  0.00  0.00    +0.000 C 
BRANCH  44  45
ATOM     45  C   UNL     1     -17.725  45.581  -1.703  0.00  0.00    +0.000 C 
BRANCH  45  46
ATOM     46  C   UNL     1     -16.284  45.072  -1.777  0.00  0.00    +0.000 C 
ATOM     47  C   UNL     1     -16.146  43.749  -2.514  0.00  0.00    +0.000 C 
ENDBRANCH  45  46
ENDBRANCH  44  45
ENDBRANCH  43  44
ENDBRANCH  42  43
ENDBRANCH  41  42
ENDBRANCH  40  41
ENDBRANCH  39  40
ENDBRANCH  38  39
ENDBRANCH  37  38
ENDBRANCH  36  37
ENDBRANCH  35  36
ENDBRANCH  34  35
ENDBRANCH  32  34
ENDBRANCH   6  32
TORSDOF 20
ENDMDL
MODEL 9
REMARK VINA RESULT:      -3.6      2.632      5.736
REMARK  Name = 27924_Phorbol.pdbqt.pdb
REMARK  26 active torsions:
REMARK  status: ('A' for Active; 'I' for Inactive)
REMARK    1  A    between atoms: O_1  and  C_10
REMARK    2  A    between atoms: O_1  and  C_26
REMARK    3  A    between atoms: O_2  and  C_13
REMARK    4  A    between atoms: O_2  and  C_28
REMARK    5  A    between atoms: O_3  and  C_14
REMARK    6  A    between atoms: O_4  and  C_20
REMARK    7  A    between atoms: O_7  and  C_29
REMARK    8  A    between atoms: C_11  and  C_16
REMARK    9  A    between atoms: C_11  and  C_17
REMARK   10  A    between atoms: C_15  and  C_21
REMARK   11  A    between atoms: C_22  and  C_29
REMARK   12  A    between atoms: C_26  and  C_30
REMARK   13  A    between atoms: C_27  and  C_31
REMARK   14  A    between atoms: C_28  and  C_32
REMARK   15  A    between atoms: C_32  and  C_33
REMARK   16  A    between atoms: C_33  and  C_34
REMARK   17  A    between atoms: C_34  and  C_35
REMARK   18  A    between atoms: C_35  and  C_36
REMARK   19  A    between atoms: C_36  and  C_37
REMARK   20  A    between atoms: C_37  and  C_38
REMARK   21  A    between atoms: C_38  and  C_39
REMARK   22  A    between atoms: C_39  and  C_40
REMARK   23  A    between atoms: C_40  and  C_41
REMARK   24  A    between atoms: C_41  and  C_42
REMARK   25  A    between atoms: C_42  and  C_43
REMARK   26  A    between atoms: C_43  and  C_44
REMARK                            x       y       z     vdW  Elec       q    Type
REMARK                         _______ _______ _______ _____ _____    ______ ____
ROOT
ATOM      1  O   UNL     1     -22.326  37.939  -1.289  0.00  0.00    +0.000 OA
ATOM      2  C   UNL     1     -18.016  37.613   4.339  0.00  0.00    +0.000 C 
ATOM      3  C   UNL     1     -17.661  38.881   5.092  0.00  0.00    +0.000 C 
ATOM      4  C   UNL     1     -16.614  38.169   4.189  0.00  0.00    +0.000 C 
ATOM      5  C   UNL     1     -19.170  37.586   3.382  0.00  0.00    +0.000 C 
ATOM      6  C   UNL     1     -18.411  40.167   4.696  0.00  0.00    +0.000 C 
ATOM      7  C   UNL     1     -19.758  38.979   2.869  0.00  0.00    +0.000 C 
ATOM      8  C   UNL     1     -19.860  39.852   4.182  0.00  0.00    +0.000 C 
ATOM      9  C   UNL     1     -15.531  37.311   4.821  0.00  0.00    +0.000 C 
ATOM     10  C   UNL     1     -16.149  38.762   2.881  0.00  0.00    +0.000 C 
ATOM     11  C   UNL     1     -21.101  38.693   2.023  0.00  0.00    +0.000 C 
ATOM     12  C   UNL     1     -19.012  36.559   2.276  0.00  0.00    +0.000 C 
ATOM     13  C   UNL     1     -20.883  37.885   0.668  0.00  0.00    +0.000 C 
ATOM     14  C   UNL     1     -20.673  41.142   4.066  0.00  0.00    +0.000 C 
ATOM     15  C   UNL     1     -20.116  35.849   1.959  0.00  0.00    +0.000 C 
ATOM     16  C   UNL     1     -20.920  36.345   0.770  0.00  0.00    +0.000 C 
ATOM     17  C   UNL     1     -21.929  39.862   1.503  0.00  0.00    +0.000 C 
ATOM     18  C   UNL     1     -21.985  38.421  -0.219  0.00  0.00    +0.000 C 
ATOM     19  C   UNL     1     -22.486  39.701   0.295  0.00  0.00    +0.000 C 
ATOM     20  C   UNL     1     -23.405  40.573  -0.467  0.00  0.00    +0.000 C 
ENDROOT
BRANCH   7  21
ATOM     21  O   UNL     1     -18.845  39.666   2.004  0.00  0.00    +0.000 OA
ATOM     22  H   UNL     1     -18.023  39.130   1.945  0.00  0.00    +0.000 HD
ENDBRANCH   7  21
BRANCH  13  23
ATOM     23  O   UNL     1     -19.673  38.305  -0.011  0.00  0.00    +0.000 OA
ATOM     24  H   UNL     1     -19.328  37.509  -0.466  0.00  0.00    +0.000 HD
ENDBRANCH  13  23
BRANCH   3  25
ATOM     25  O   UNL     1     -17.648  38.614   6.519  0.00  0.00    +0.000 OA
BRANCH  25  27
ATOM     26  O   UNL     1     -19.706  38.225   7.327  0.00  0.00    +0.000 OA
ATOM     27  C   UNL     1     -18.549  37.838   7.172  0.00  0.00    +0.000 C 
ATOM     28  C   UNL     1     -18.132  36.472   7.627  0.00  0.00    +0.000 C 
ENDBRANCH  25  27
ENDBRANCH   3  25
BRANCH  15  29
ATOM     29  C   UNL     1     -20.892  35.031   2.958  0.00  0.00    +0.000 C 
BRANCH  29  30
ATOM     30  O   UNL     1     -22.146  35.659   3.167  0.00  0.00    +0.000 OA
ATOM     31  H   UNL     1     -22.204  35.857   4.118  0.00  0.00    +0.000 HD
ENDBRANCH  29  30
ENDBRANCH  15  29
BRANCH   6  32
ATOM     32  O   UNL     1     -18.476  41.026   5.867  0.00  0.00    +0.000 OA
BRANCH  32  34
ATOM     33  O   UNL     1     -18.228  43.247   5.958  0.00  0.00    +0.000 OA
ATOM     34  C   UNL     1     -17.724  42.131   6.073  0.00  0.00    +0.000 C 
BRANCH  34  35
ATOM     35  C   UNL     1     -16.270  41.980   6.442  0.00  0.00    +0.000 C 
BRANCH  35  36
ATOM     36  C   UNL     1     -15.367  42.796   5.525  0.00  0.00    +0.000 C 
BRANCH  36  37
ATOM     37  C   UNL     1     -15.089  42.136   4.169  0.00  0.00    +0.000 C 
BRANCH  37  38
ATOM     38  C   UNL     1     -15.980  42.639   3.025  0.00  0.00    +0.000 C 
BRANCH  38  39
ATOM     39  C   UNL     1     -15.390  43.863   2.317  0.00  0.00    +0.000 C 
BRANCH  39  40
ATOM     40  C   UNL     1     -15.159  43.650   0.819  0.00  0.00    +0.000 C 
BRANCH  40  41
ATOM     41  C   UNL     1     -14.653  42.245   0.483  0.00  0.00    +0.000 C 
BRANCH  41  42
ATOM     42  C   UNL     1     -14.815  41.880  -0.995  0.00  0.00    +0.000 C 
BRANCH  42  43
ATOM     43  C   UNL     1     -16.134  41.200  -1.373  0.00  0.00    +0.000 C 
BRANCH  43  44
ATOM     44  C   UNL     1     -16.424  39.876  -0.659  0.00  0.00    +0.000 C 
BRANCH  44  45
ATOM     45  C   UNL     1     -16.232  38.613  -1.502  0.00  0.00    +0.000 C 
BRANCH  45  46
ATOM     46  C   UNL     1     -14.832  37.996  -1.468  0.00  0.00    +0.000 C 
ATOM     47  C   UNL     1     -14.083  38.268  -0.173  0.00  0.00    +0.000 C 
ENDBRANCH  45  46
ENDBRANCH  44  45
ENDBRANCH  43  44
ENDBRANCH  42  43
ENDBRANCH  41  42
ENDBRANCH  40  41
ENDBRANCH  39  40
ENDBRANCH  38  39
ENDBRANCH  37  38
ENDBRANCH  36  37
ENDBRANCH  35  36
ENDBRANCH  34  35
ENDBRANCH  32  34
ENDBRANCH   6  32
TORSDOF 20
ENDMDL
