MODEL 1
REMARK VINA RESULT:      -3.2      0.000      0.000
REMARK  Name = 2Methylcholine.pdbqt.pdb
REMARK  3 active torsions:
REMARK  status: ('A' for Active; 'I' for Inactive)
REMARK    1  A    between atoms: C_1  and  N_2
REMARK    2  A    between atoms: C_1  and  C_6
REMARK    3  A    between atoms: C_6  and  O_8
REMARK                            x       y       z     vdW  Elec       q    Type
REMARK                         _______ _______ _______ _____ _____    ______ ____
ROOT
ATOM      1  C   UNL     1     -16.131  51.613  10.988  0.00  0.00    +0.000 C 
ENDROOT
BRANCH   1   2
ATOM      2  N   UNL     1     -17.095  52.190  11.903  0.00  0.00    +0.000 N 
ATOM      3  C   UNL     1     -16.954  53.649  11.923  0.00  0.00    +0.000 C 
ATOM      4  C   UNL     1     -18.455  51.844  11.481  0.00  0.00    +0.000 C 
ATOM      5  C   UNL     1     -16.868  51.670  13.254  0.00  0.00    +0.000 C 
ENDBRANCH   1   2
BRANCH   1   6
ATOM      6  C   UNL     1     -15.182  51.078  10.105  0.00  0.00    +0.000 C 
ATOM      7  C   UNL     1     -14.396  51.943   9.194  0.00  0.00    +0.000 C 
BRANCH   6   8
ATOM      8  O   UNL     1     -14.932  49.742  10.036  0.00  0.00    +0.000 OA
ATOM      9  H   UNL     1     -13.978  49.599  10.188  0.00  0.00    +0.000 HD
ENDBRANCH   6   8
ENDBRANCH   1   6
TORSDOF 3
ENDMDL
MODEL 2
REMARK VINA RESULT:      -3.0     27.203     28.327
REMARK  Name = 2Methylcholine.pdbqt.pdb
REMARK  3 active torsions:
REMARK  status: ('A' for Active; 'I' for Inactive)
REMARK    1  A    between atoms: C_1  and  N_2
REMARK    2  A    between atoms: C_1  and  C_6
REMARK    3  A    between atoms: C_6  and  O_8
REMARK                            x       y       z     vdW  Elec       q    Type
REMARK                         _______ _______ _______ _____ _____    ______ ____
ROOT
ATOM      1  C   UNL     1       9.189  39.576   9.554  0.00  0.00    +0.000 C 
ENDROOT
BRANCH   1   2
ATOM      2  N   UNL     1       9.312  40.839   8.854  0.00  0.00    +0.000 N 
ATOM      3  C   UNL     1      10.584  40.884   8.126  0.00  0.00    +0.000 C 
ATOM      4  C   UNL     1       8.208  40.993   7.903  0.00  0.00    +0.000 C 
ATOM      5  C   UNL     1       9.272  41.944   9.815  0.00  0.00    +0.000 C 
ENDBRANCH   1   2
BRANCH   1   6
ATOM      6  C   UNL     1       9.075  38.367  10.256  0.00  0.00    +0.000 C 
ATOM      7  C   UNL     1      10.186  37.388  10.298  0.00  0.00    +0.000 C 
BRANCH   6   8
ATOM      8  O   UNL     1       7.943  38.028  10.932  0.00  0.00    +0.000 OA
ATOM      9  H   UNL     1       8.201  37.550  11.744  0.00  0.00    +0.000 HD
ENDBRANCH   6   8
ENDBRANCH   1   6
TORSDOF 3
ENDMDL
MODEL 3
REMARK VINA RESULT:      -3.0     20.891     21.748
REMARK  Name = 2Methylcholine.pdbqt.pdb
REMARK  3 active torsions:
REMARK  status: ('A' for Active; 'I' for Inactive)
REMARK    1  A    between atoms: C_1  and  N_2
REMARK    2  A    between atoms: C_1  and  C_6
REMARK    3  A    between atoms: C_6  and  O_8
REMARK                            x       y       z     vdW  Elec       q    Type
REMARK                         _______ _______ _______ _____ _____    ______ ____
ROOT
ATOM      1  C   UNL     1       4.786  53.786  16.580  0.00  0.00    +0.000 C 
ENDROOT
BRANCH   1   2
ATOM      2  N   UNL     1       3.652  54.456  17.185  0.00  0.00    +0.000 N 
ATOM      3  C   UNL     1       2.935  55.236  16.171  0.00  0.00    +0.000 C 
ATOM      4  C   UNL     1       2.739  53.468  17.766  0.00  0.00    +0.000 C 
ATOM      5  C   UNL     1       4.115  55.358  18.242  0.00  0.00    +0.000 C 
ENDBRANCH   1   2
BRANCH   1   6
ATOM      6  C   UNL     1       5.898  53.161  15.998  0.00  0.00    +0.000 C 
ATOM      7  C   UNL     1       6.631  53.781  14.869  0.00  0.00    +0.000 C 
BRANCH   6   8
ATOM      8  O   UNL     1       6.363  51.958  16.434  0.00  0.00    +0.000 OA
ATOM      9  H   UNL     1       6.722  52.075  17.334  0.00  0.00    +0.000 HD
ENDBRANCH   6   8
ENDBRANCH   1   6
TORSDOF 3
ENDMDL
MODEL 4
REMARK VINA RESULT:      -3.0     18.125     19.141
REMARK  Name = 2Methylcholine.pdbqt.pdb
REMARK  3 active torsions:
REMARK  status: ('A' for Active; 'I' for Inactive)
REMARK    1  A    between atoms: C_1  and  N_2
REMARK    2  A    between atoms: C_1  and  C_6
REMARK    3  A    between atoms: C_6  and  O_8
REMARK                            x       y       z     vdW  Elec       q    Type
REMARK                         _______ _______ _______ _____ _____    ______ ____
ROOT
ATOM      1  C   UNL     1      -5.966  46.041  26.242  0.00  0.00    +0.000 C 
ENDROOT
BRANCH   1   2
ATOM      2  N   UNL     1      -6.943  47.110  26.178  0.00  0.00    +0.000 N 
ATOM      3  C   UNL     1      -7.484  47.373  27.514  0.00  0.00    +0.000 C 
ATOM      4  C   UNL     1      -6.315  48.330  25.664  0.00  0.00    +0.000 C 
ATOM      5  C   UNL     1      -8.040  46.725  25.285  0.00  0.00    +0.000 C 
ENDBRANCH   1   2
BRANCH   1   6
ATOM      6  C   UNL     1      -5.037  44.994  26.324  0.00  0.00    +0.000 C 
ATOM      7  C   UNL     1      -4.183  44.623  25.171  0.00  0.00    +0.000 C 
BRANCH   6   8
ATOM      8  O   UNL     1      -4.869  44.264  27.460  0.00  0.00    +0.000 OA
ATOM      9  H   UNL     1      -5.660  43.707  27.589  0.00  0.00    +0.000 HD
ENDBRANCH   6   8
ENDBRANCH   1   6
TORSDOF 3
ENDMDL
MODEL 5
REMARK VINA RESULT:      -2.9     20.005     20.729
REMARK  Name = 2Methylcholine.pdbqt.pdb
REMARK  3 active torsions:
REMARK  status: ('A' for Active; 'I' for Inactive)
REMARK    1  A    between atoms: C_1  and  N_2
REMARK    2  A    between atoms: C_1  and  C_6
REMARK    3  A    between atoms: C_6  and  O_8
REMARK                            x       y       z     vdW  Elec       q    Type
REMARK                         _______ _______ _______ _____ _____    ______ ____
ROOT
ATOM      1  C   UNL     1       3.669  54.056  15.327  0.00  0.00    +0.000 C 
ENDROOT
BRANCH   1   2
ATOM      2  N   UNL     1       4.099  53.867  16.699  0.00  0.00    +0.000 N 
ATOM      3  C   UNL     1       5.152  52.849  16.757  0.00  0.00    +0.000 C 
ATOM      4  C   UNL     1       4.617  55.127  17.238  0.00  0.00    +0.000 C 
ATOM      5  C   UNL     1       2.964  53.428  17.516  0.00  0.00    +0.000 C 
ENDBRANCH   1   2
BRANCH   1   6
ATOM      6  C   UNL     1       3.228  54.243  14.009  0.00  0.00    +0.000 C 
ATOM      7  C   UNL     1       3.551  55.476  13.252  0.00  0.00    +0.000 C 
BRANCH   6   8
ATOM      8  O   UNL     1       2.484  53.310  13.357  0.00  0.00    +0.000 OA
ATOM      9  H   UNL     1       2.775  52.424  13.648  0.00  0.00    +0.000 HD
ENDBRANCH   6   8
ENDBRANCH   1   6
TORSDOF 3
ENDMDL
MODEL 6
REMARK VINA RESULT:      -2.9      1.974      3.397
REMARK  Name = 2Methylcholine.pdbqt.pdb
REMARK  3 active torsions:
REMARK  status: ('A' for Active; 'I' for Inactive)
REMARK    1  A    between atoms: C_1  and  N_2
REMARK    2  A    between atoms: C_1  and  C_6
REMARK    3  A    between atoms: C_6  and  O_8
REMARK                            x       y       z     vdW  Elec       q    Type
REMARK                         _______ _______ _______ _____ _____    ______ ____
ROOT
ATOM      1  C   UNL     1     -16.489  52.314  11.147  0.00  0.00    +0.000 C 
ENDROOT
BRANCH   1   2
ATOM      2  N   UNL     1     -16.339  52.857   9.811  0.00  0.00    +0.000 N 
ATOM      3  C   UNL     1     -15.130  52.314   9.185  0.00  0.00    +0.000 C 
ATOM      4  C   UNL     1     -17.503  52.503   8.994  0.00  0.00    +0.000 C 
ATOM      5  C   UNL     1     -16.229  54.316   9.879  0.00  0.00    +0.000 C 
ENDBRANCH   1   2
BRANCH   1   6
ATOM      6  C   UNL     1     -16.631  51.815  12.449  0.00  0.00    +0.000 C 
ATOM      7  C   UNL     1     -17.767  52.216  13.313  0.00  0.00    +0.000 C 
BRANCH   6   8
ATOM      8  O   UNL     1     -15.739  50.941  12.990  0.00  0.00    +0.000 OA
ATOM      9  H   UNL     1     -16.063  50.677  13.873  0.00  0.00    +0.000 HD
ENDBRANCH   6   8
ENDBRANCH   1   6
TORSDOF 3
ENDMDL
MODEL 7
REMARK VINA RESULT:      -2.8      1.747      2.553
REMARK  Name = 2Methylcholine.pdbqt.pdb
REMARK  3 active torsions:
REMARK  status: ('A' for Active; 'I' for Inactive)
REMARK    1  A    between atoms: C_1  and  N_2
REMARK    2  A    between atoms: C_1  and  C_6
REMARK    3  A    between atoms: C_6  and  O_8
REMARK                            x       y       z     vdW  Elec       q    Type
REMARK                         _______ _______ _______ _____ _____    ______ ____
ROOT
ATOM      1  C   UNL     1     -17.046  52.290  11.063  0.00  0.00    +0.000 C 
ENDROOT
BRANCH   1   2
ATOM      2  N   UNL     1     -18.122  53.218  10.779  0.00  0.00    +0.000 N 
ATOM      3  C   UNL     1     -19.316  52.483  10.353  0.00  0.00    +0.000 C 
ATOM      4  C   UNL     1     -18.439  53.997  11.979  0.00  0.00    +0.000 C 
ATOM      5  C   UNL     1     -17.716  54.134   9.710  0.00  0.00    +0.000 C 
ENDBRANCH   1   2
BRANCH   1   6
ATOM      6  C   UNL     1     -15.986  51.412  11.332  0.00  0.00    +0.000 C 
ATOM      7  C   UNL     1     -15.139  50.864  10.246  0.00  0.00    +0.000 C 
BRANCH   6   8
ATOM      8  O   UNL     1     -15.679  51.015  12.597  0.00  0.00    +0.000 OA
ATOM      9  H   UNL     1     -14.913  50.411  12.554  0.00  0.00    +0.000 HD
ENDBRANCH   6   8
ENDBRANCH   1   6
TORSDOF 3
ENDMDL
MODEL 8
REMARK VINA RESULT:      -2.7     20.365     21.407
REMARK  Name = 2Methylcholine.pdbqt.pdb
REMARK  3 active torsions:
REMARK  status: ('A' for Active; 'I' for Inactive)
REMARK    1  A    between atoms: C_1  and  N_2
REMARK    2  A    between atoms: C_1  and  C_6
REMARK    3  A    between atoms: C_6  and  O_8
REMARK                            x       y       z     vdW  Elec       q    Type
REMARK                         _______ _______ _______ _____ _____    ______ ____
ROOT
ATOM      1  C   UNL     1      -3.715  45.724  26.947  0.00  0.00    +0.000 C 
ENDROOT
BRANCH   1   2
ATOM      2  N   UNL     1      -2.641  46.400  27.648  0.00  0.00    +0.000 N 
ATOM      3  C   UNL     1      -2.188  45.582  28.777  0.00  0.00    +0.000 C 
ATOM      4  C   UNL     1      -1.516  46.627  26.737  0.00  0.00    +0.000 C 
ATOM      5  C   UNL     1      -3.115  47.691  28.152  0.00  0.00    +0.000 C 
ENDBRANCH   1   2
BRANCH   1   6
ATOM      6  C   UNL     1      -4.756  45.051  26.291  0.00  0.00    +0.000 C 
ATOM      7  C   UNL     1      -6.067  45.699  26.053  0.00  0.00    +0.000 C 
BRANCH   6   8
ATOM      8  O   UNL     1      -4.621  43.775  25.840  0.00  0.00    +0.000 OA
ATOM      9  H   UNL     1      -5.473  43.313  25.962  0.00  0.00    +0.000 HD
ENDBRANCH   6   8
ENDBRANCH   1   6
TORSDOF 3
ENDMDL
MODEL 9
REMARK VINA RESULT:      -2.7     18.134     19.237
REMARK  Name = 2Methylcholine.pdbqt.pdb
REMARK  3 active torsions:
REMARK  status: ('A' for Active; 'I' for Inactive)
REMARK    1  A    between atoms: C_1  and  N_2
REMARK    2  A    between atoms: C_1  and  C_6
REMARK    3  A    between atoms: C_6  and  O_8
REMARK                            x       y       z     vdW  Elec       q    Type
REMARK                         _______ _______ _______ _____ _____    ______ ____
ROOT
ATOM      1  C   UNL     1      -6.186  46.318  26.041  0.00  0.00    +0.000 C 
ENDROOT
BRANCH   1   2
ATOM      2  N   UNL     1      -5.230  45.574  26.837  0.00  0.00    +0.000 N 
ATOM      3  C   UNL     1      -5.901  44.981  27.998  0.00  0.00    +0.000 C 
ATOM      4  C   UNL     1      -4.631  44.507  26.031  0.00  0.00    +0.000 C 
ATOM      5  C   UNL     1      -4.170  46.471  27.304  0.00  0.00    +0.000 C 
ENDBRANCH   1   2
BRANCH   1   6
ATOM      6  C   UNL     1      -7.098  47.061  25.279  0.00  0.00    +0.000 C 
ATOM      7  C   UNL     1      -6.697  48.312  24.592  0.00  0.00    +0.000 C 
BRANCH   6   8
ATOM      8  O   UNL     1      -8.396  46.678  25.129  0.00  0.00    +0.000 OA
ATOM      9  H   UNL     1      -8.952  47.480  25.093  0.00  0.00    +0.000 HD
ENDBRANCH   6   8
ENDBRANCH   1   6
TORSDOF 3
ENDMDL
