MODEL 1
REMARK VINA RESULT:      -7.8      0.000      0.000
REMARK  Name = 3035817_K252a.pdbqt.pdb
REMARK  3 active torsions:
REMARK  status: ('A' for Active; 'I' for Inactive)
REMARK    1  A    between atoms: C_3  and  O_7
REMARK    2  A    between atoms: C_3  and  C_9
REMARK    3  A    between atoms: C_9  and  O_11
REMARK                            x       y       z     vdW  Elec       q    Type
REMARK                         _______ _______ _______ _____ _____    ______ ____
ROOT
ATOM      1  O   UNL     1      -8.362  48.861  25.135  0.00  0.00    +0.000 OA
ATOM      2  C   UNL     1      -9.030  49.446  26.309  0.00  0.00    +0.000 C 
ATOM      3  C   UNL     1      -9.531  48.185  27.137  0.00  0.00    +0.000 C 
ATOM      4  C   UNL     1      -7.716  47.718  25.639  0.00  0.00    +0.000 C 
ATOM      5  C   UNL     1      -8.559  47.207  26.656  0.00  0.00    +0.000 C 
ATOM      6  C   UNL     1     -10.175  50.339  25.727  0.00  0.00    +0.000 C 
ATOM      7  N   UNL     1      -8.009  50.243  27.020  0.00  0.00    +0.000 N 
ATOM      8  C   UNL     1      -6.649  50.093  27.103  0.00  0.00    +0.000 A 
ATOM      9  C   UNL     1      -5.886  49.034  26.609  0.00  0.00    +0.000 A 
ATOM     10  C   UNL     1      -5.901  51.031  27.823  0.00  0.00    +0.000 A 
ATOM     11  N   UNL     1      -6.393  47.939  25.980  0.00  0.00    +0.000 N 
ATOM     12  C   UNL     1      -4.522  49.081  26.914  0.00  0.00    +0.000 A 
ATOM     13  C   UNL     1      -5.239  47.140  25.896  0.00  0.00    +0.000 A 
ATOM     14  C   UNL     1      -4.085  47.827  26.434  0.00  0.00    +0.000 A 
ATOM     15  C   UNL     1      -5.123  45.845  25.363  0.00  0.00    +0.000 A 
ATOM     16  C   UNL     1      -2.849  47.151  26.415  0.00  0.00    +0.000 A 
ATOM     17  C   UNL     1      -2.753  45.867  25.880  0.00  0.00    +0.000 A 
ATOM     18  C   UNL     1      -3.872  45.228  25.366  0.00  0.00    +0.000 A 
ATOM     19  C   UNL     1      -3.753  50.028  27.621  0.00  0.00    +0.000 A 
ATOM     20  C   UNL     1      -4.534  51.110  28.121  0.00  0.00    +0.000 A 
ATOM     21  C   UNL     1      -2.372  50.175  28.017  0.00  0.00    +0.000 C 
ATOM     22  C   UNL     1      -3.604  51.992  28.879  0.00  0.00    +0.000 C 
ATOM     23  N   UNL     1      -2.412  51.368  28.751  0.00  0.00    +0.000 N 
ATOM     24  H   UNL     1      -1.566  51.733  29.166  0.00  0.00    +0.000 HD
ATOM     25  O   UNL     1      -1.361  49.515  27.830  0.00  0.00    +0.000 OA
ATOM     26  C   UNL     1      -6.904  51.882  28.321  0.00  0.00    +0.000 A 
ATOM     27  C   UNL     1      -8.175  51.378  27.854  0.00  0.00    +0.000 A 
ATOM     28  C   UNL     1      -6.897  53.018  29.157  0.00  0.00    +0.000 A 
ATOM     29  C   UNL     1      -9.367  52.008  28.253  0.00  0.00    +0.000 A 
ATOM     30  C   UNL     1      -9.307  53.130  29.080  0.00  0.00    +0.000 A 
ATOM     31  C   UNL     1      -8.094  53.633  29.521  0.00  0.00    +0.000 A 
ENDROOT
BRANCH   3  32
ATOM     32  O   UNL     1      -9.403  48.309  28.561  0.00  0.00    +0.000 OA
ATOM     33  H   UNL     1      -8.550  48.764  28.739  0.00  0.00    +0.000 HD
ENDBRANCH   3  32
BRANCH   3  34
ATOM     34  C   UNL     1     -10.958  47.793  26.762  0.00  0.00    +0.000 C 
ATOM     35  O   UNL     1     -11.183  47.168  25.722  0.00  0.00    +0.000 OA
BRANCH  34  36
ATOM     36  O   UNL     1     -11.867  48.262  27.670  0.00  0.00    +0.000 OA
ATOM     37  C   UNL     1     -13.154  48.567  27.206  0.00  0.00    +0.000 C 
ENDBRANCH  34  36
ENDBRANCH   3  34
TORSDOF 3
ENDMDL
MODEL 2
REMARK VINA RESULT:      -7.1     25.435     27.742
REMARK  Name = 3035817_K252a.pdbqt.pdb
REMARK  3 active torsions:
REMARK  status: ('A' for Active; 'I' for Inactive)
REMARK    1  A    between atoms: C_3  and  O_7
REMARK    2  A    between atoms: C_3  and  C_9
REMARK    3  A    between atoms: C_9  and  O_11
REMARK                            x       y       z     vdW  Elec       q    Type
REMARK                         _______ _______ _______ _____ _____    ______ ____
ROOT
ATOM      1  O   UNL     1     -20.671  37.257   7.265  0.00  0.00    +0.000 OA
ATOM      2  C   UNL     1     -19.391  36.865   6.655  0.00  0.00    +0.000 C 
ATOM      3  C   UNL     1     -19.815  36.034   5.368  0.00  0.00    +0.000 C 
ATOM      4  C   UNL     1     -21.506  37.535   6.169  0.00  0.00    +0.000 C 
ATOM      5  C   UNL     1     -21.133  36.626   5.150  0.00  0.00    +0.000 C 
ATOM      6  C   UNL     1     -18.651  36.031   7.752  0.00  0.00    +0.000 C 
ATOM      7  N   UNL     1     -18.677  38.117   6.332  0.00  0.00    +0.000 N 
ATOM      8  C   UNL     1     -19.149  39.364   6.012  0.00  0.00    +0.000 A 
ATOM      9  C   UNL     1     -20.477  39.731   5.790  0.00  0.00    +0.000 A 
ATOM     10  C   UNL     1     -18.239  40.402   5.788  0.00  0.00    +0.000 A 
ATOM     11  N   UNL     1     -21.535  38.876   5.826  0.00  0.00    +0.000 N 
ATOM     12  C   UNL     1     -20.676  41.054   5.383  0.00  0.00    +0.000 A 
ATOM     13  C   UNL     1     -22.554  39.716   5.340  0.00  0.00    +0.000 A 
ATOM     14  C   UNL     1     -22.058  41.052   5.091  0.00  0.00    +0.000 A 
ATOM     15  C   UNL     1     -23.902  39.394   5.112  0.00  0.00    +0.000 A 
ATOM     16  C   UNL     1     -22.967  42.011   4.602  0.00  0.00    +0.000 A 
ATOM     17  C   UNL     1     -24.302  41.673   4.384  0.00  0.00    +0.000 A 
ATOM     18  C   UNL     1     -24.757  40.386   4.634  0.00  0.00    +0.000 A 
ATOM     19  C   UNL     1     -19.771  42.115   5.173  0.00  0.00    +0.000 A 
ATOM     20  C   UNL     1     -18.416  41.738   5.404  0.00  0.00    +0.000 A 
ATOM     21  C   UNL     1     -19.847  43.489   4.737  0.00  0.00    +0.000 C 
ATOM     22  C   UNL     1     -17.584  42.934   5.096  0.00  0.00    +0.000 C 
ATOM     23  N   UNL     1     -18.496  43.861   4.733  0.00  0.00    +0.000 N 
ATOM     24  H   UNL     1     -18.232  44.799   4.461  0.00  0.00    +0.000 HD
ATOM     25  O   UNL     1     -20.767  44.232   4.429  0.00  0.00    +0.000 OA
ATOM     26  C   UNL     1     -17.004  39.743   5.930  0.00  0.00    +0.000 A 
ATOM     27  C   UNL     1     -17.283  38.356   6.228  0.00  0.00    +0.000 A 
ATOM     28  C   UNL     1     -15.659  40.146   5.804  0.00  0.00    +0.000 A 
ATOM     29  C   UNL     1     -16.223  37.443   6.365  0.00  0.00    +0.000 A 
ATOM     30  C   UNL     1     -14.908  37.892   6.232  0.00  0.00    +0.000 A 
ATOM     31  C   UNL     1     -14.628  39.222   5.962  0.00  0.00    +0.000 A 
ENDROOT
BRANCH   3  32
ATOM     32  O   UNL     1     -19.003  36.264   4.207  0.00  0.00    +0.000 OA
ATOM     33  H   UNL     1     -18.516  37.105   4.352  0.00  0.00    +0.000 HD
ENDBRANCH   3  32
BRANCH   3  34
ATOM     34  C   UNL     1     -19.911  34.540   5.664  0.00  0.00    +0.000 C 
ATOM     35  O   UNL     1     -18.960  33.791   5.422  0.00  0.00    +0.000 OA
BRANCH  34  36
ATOM     36  O   UNL     1     -21.143  34.197   6.148  0.00  0.00    +0.000 OA
ATOM     37  C   UNL     1     -21.195  33.458   7.337  0.00  0.00    +0.000 C 
ENDBRANCH  34  36
ENDBRANCH   3  34
TORSDOF 3
ENDMDL
MODEL 3
REMARK VINA RESULT:      -6.9     25.360     26.530
REMARK  Name = 3035817_K252a.pdbqt.pdb
REMARK  3 active torsions:
REMARK  status: ('A' for Active; 'I' for Inactive)
REMARK    1  A    between atoms: C_3  and  O_7
REMARK    2  A    between atoms: C_3  and  C_9
REMARK    3  A    between atoms: C_9  and  O_11
REMARK                            x       y       z     vdW  Elec       q    Type
REMARK                         _______ _______ _______ _____ _____    ______ ____
ROOT
ATOM      1  O   UNL     1      10.927  40.509   8.309  0.00  0.00    +0.000 OA
ATOM      2  C   UNL     1       9.461  40.396   8.250  0.00  0.00    +0.000 C 
ATOM      3  C   UNL     1       9.014  40.362   9.775  0.00  0.00    +0.000 C 
ATOM      4  C   UNL     1      11.164  41.360   9.404  0.00  0.00    +0.000 C 
ATOM      5  C   UNL     1      10.154  41.069  10.353  0.00  0.00    +0.000 C 
ATOM      6  C   UNL     1       9.183  39.074   7.461  0.00  0.00    +0.000 C 
ATOM      7  N   UNL     1       8.975  41.588   7.526  0.00  0.00    +0.000 N 
ATOM      8  C   UNL     1       9.494  42.854   7.429  0.00  0.00    +0.000 A 
ATOM      9  C   UNL     1      10.591  43.370   8.119  0.00  0.00    +0.000 A 
ATOM     10  C   UNL     1       8.843  43.799   6.629  0.00  0.00    +0.000 A 
ATOM     11  N   UNL     1      11.317  42.688   9.046  0.00  0.00    +0.000 N 
ATOM     12  C   UNL     1      10.853  44.728   7.904  0.00  0.00    +0.000 A 
ATOM     13  C   UNL     1      12.128  43.724   9.544  0.00  0.00    +0.000 A 
ATOM     14  C   UNL     1      11.880  44.966   8.844  0.00  0.00    +0.000 A 
ATOM     15  C   UNL     1      13.088  43.652  10.566  0.00  0.00    +0.000 A 
ATOM     16  C   UNL     1      12.625  46.098   9.230  0.00  0.00    +0.000 A 
ATOM     17  C   UNL     1      13.575  46.007  10.246  0.00  0.00    +0.000 A 
ATOM     18  C   UNL     1      13.799  44.804  10.901  0.00  0.00    +0.000 A 
ATOM     19  C   UNL     1      10.218  45.686   7.088  0.00  0.00    +0.000 A 
ATOM     20  C   UNL     1       9.100  45.154   6.381  0.00  0.00    +0.000 A 
ATOM     21  C   UNL     1      10.373  47.093   6.805  0.00  0.00    +0.000 C 
ATOM     22  C   UNL     1       8.509  46.283   5.610  0.00  0.00    +0.000 C 
ATOM     23  N   UNL     1       9.309  47.325   5.923  0.00  0.00    +0.000 N 
ATOM     24  H   UNL     1       9.160  48.251   5.546  0.00  0.00    +0.000 HD
ATOM     25  O   UNL     1      11.166  47.949   7.168  0.00  0.00    +0.000 OA
ATOM     26  C   UNL     1       7.721  43.078   6.180  0.00  0.00    +0.000 A 
ATOM     27  C   UNL     1       7.797  41.754   6.754  0.00  0.00    +0.000 A 
ATOM     28  C   UNL     1       6.610  43.399   5.374  0.00  0.00    +0.000 A 
ATOM     29  C   UNL     1       6.765  40.829   6.517  0.00  0.00    +0.000 A 
ATOM     30  C   UNL     1       5.687  41.194   5.711  0.00  0.00    +0.000 A 
ATOM     31  C   UNL     1       5.611  42.455   5.143  0.00  0.00    +0.000 A 
ENDROOT
BRANCH   3  32
ATOM     32  O   UNL     1       7.814  41.093  10.068  0.00  0.00    +0.000 OA
ATOM     33  H   UNL     1       7.076  40.445  10.094  0.00  0.00    +0.000 HD
ENDBRANCH   3  32
BRANCH   3  34
ATOM     34  C   UNL     1       8.910  38.933  10.303  0.00  0.00    +0.000 C 
ATOM     35  O   UNL     1       7.819  38.359  10.344  0.00  0.00    +0.000 OA
BRANCH  34  36
ATOM     36  O   UNL     1      10.119  38.465  10.736  0.00  0.00    +0.000 OA
ATOM     37  C   UNL     1      10.477  37.157  10.381  0.00  0.00    +0.000 C 
ENDBRANCH  34  36
ENDBRANCH   3  34
TORSDOF 3
ENDMDL
MODEL 4
REMARK VINA RESULT:      -6.8     17.346     22.511
REMARK  Name = 3035817_K252a.pdbqt.pdb
REMARK  3 active torsions:
REMARK  status: ('A' for Active; 'I' for Inactive)
REMARK    1  A    between atoms: C_3  and  O_7
REMARK    2  A    between atoms: C_3  and  C_9
REMARK    3  A    between atoms: C_9  and  O_11
REMARK                            x       y       z     vdW  Elec       q    Type
REMARK                         _______ _______ _______ _____ _____    ______ ____
ROOT
ATOM      1  O   UNL     1     -25.343  44.637  19.517  0.00  0.00    +0.000 OA
ATOM      2  C   UNL     1     -24.831  45.397  18.365  0.00  0.00    +0.000 C 
ATOM      3  C   UNL     1     -23.253  45.239  18.467  0.00  0.00    +0.000 C 
ATOM      4  C   UNL     1     -24.488  43.524  19.603  0.00  0.00    +0.000 C 
ATOM      5  C   UNL     1     -23.207  43.980  19.207  0.00  0.00    +0.000 C 
ATOM      6  C   UNL     1     -25.353  46.857  18.573  0.00  0.00    +0.000 C 
ATOM      7  N   UNL     1     -25.404  44.768  17.158  0.00  0.00    +0.000 N 
ATOM      8  C   UNL     1     -25.787  43.474  16.914  0.00  0.00    +0.000 A 
ATOM      9  C   UNL     1     -25.607  42.371  17.749  0.00  0.00    +0.000 A 
ATOM     10  C   UNL     1     -26.349  43.151  15.675  0.00  0.00    +0.000 A 
ATOM     11  N   UNL     1     -24.977  42.403  18.954  0.00  0.00    +0.000 N 
ATOM     12  C   UNL     1     -26.008  41.141  17.216  0.00  0.00    +0.000 A 
ATOM     13  C   UNL     1     -24.905  41.028  19.238  0.00  0.00    +0.000 A 
ATOM     14  C   UNL     1     -25.550  40.245  18.207  0.00  0.00    +0.000 A 
ATOM     15  C   UNL     1     -24.322  40.407  20.355  0.00  0.00    +0.000 A 
ATOM     16  C   UNL     1     -25.563  38.844  18.355  0.00  0.00    +0.000 A 
ATOM     17  C   UNL     1     -24.981  38.245  19.472  0.00  0.00    +0.000 A 
ATOM     18  C   UNL     1     -24.370  39.016  20.451  0.00  0.00    +0.000 A 
ATOM     19  C   UNL     1     -26.592  40.803  15.978  0.00  0.00    +0.000 A 
ATOM     20  C   UNL     1     -26.778  41.933  15.129  0.00  0.00    +0.000 A 
ATOM     21  C   UNL     1     -27.018  39.595  15.313  0.00  0.00    +0.000 C 
ATOM     22  C   UNL     1     -27.350  41.418  13.855  0.00  0.00    +0.000 C 
ATOM     23  N   UNL     1     -27.445  40.088  14.073  0.00  0.00    +0.000 N 
ATOM     24  H   UNL     1     -27.806  39.452  13.375  0.00  0.00    +0.000 HD
ATOM     25  O   UNL     1     -27.050  38.416  15.633  0.00  0.00    +0.000 OA
ATOM     26  C   UNL     1     -26.282  44.380  14.994  0.00  0.00    +0.000 A 
ATOM     27  C   UNL     1     -25.681  45.342  15.891  0.00  0.00    +0.000 A 
ATOM     28  C   UNL     1     -26.627  44.798  13.693  0.00  0.00    +0.000 A 
ATOM     29  C   UNL     1     -25.437  46.653  15.447  0.00  0.00    +0.000 A 
ATOM     30  C   UNL     1     -25.798  47.019  14.151  0.00  0.00    +0.000 A 
ATOM     31  C   UNL     1     -26.390  46.110  13.287  0.00  0.00    +0.000 A 
ENDROOT
BRANCH   3  32
ATOM     32  O   UNL     1     -22.582  45.065  17.210  0.00  0.00    +0.000 OA
ATOM     33  H   UNL     1     -22.260  44.137  17.176  0.00  0.00    +0.000 HD
ENDBRANCH   3  32
BRANCH   3  34
ATOM     34  C   UNL     1     -22.619  46.381  19.256  0.00  0.00    +0.000 C 
ATOM     35  O   UNL     1     -22.267  47.416  18.686  0.00  0.00    +0.000 OA
BRANCH  34  36
ATOM     36  O   UNL     1     -22.469  46.061  20.577  0.00  0.00    +0.000 OA
ATOM     37  C   UNL     1     -21.313  46.510  21.230  0.00  0.00    +0.000 C 
ENDBRANCH  34  36
ENDBRANCH   3  34
TORSDOF 3
ENDMDL
MODEL 5
REMARK VINA RESULT:      -6.7     26.529     28.123
REMARK  Name = 3035817_K252a.pdbqt.pdb
REMARK  3 active torsions:
REMARK  status: ('A' for Active; 'I' for Inactive)
REMARK    1  A    between atoms: C_3  and  O_7
REMARK    2  A    between atoms: C_3  and  C_9
REMARK    3  A    between atoms: C_9  and  O_11
REMARK                            x       y       z     vdW  Elec       q    Type
REMARK                         _______ _______ _______ _____ _____    ______ ____
ROOT
ATOM      1  O   UNL     1      -4.346  34.572   1.082  0.00  0.00    +0.000 OA
ATOM      2  C   UNL     1      -5.452  35.140   1.869  0.00  0.00    +0.000 C 
ATOM      3  C   UNL     1      -5.389  34.352   3.248  0.00  0.00    +0.000 C 
ATOM      4  C   UNL     1      -3.325  34.357   2.025  0.00  0.00    +0.000 C 
ATOM      5  C   UNL     1      -3.974  33.991   3.230  0.00  0.00    +0.000 C 
ATOM      6  C   UNL     1      -6.739  34.868   1.023  0.00  0.00    +0.000 C 
ATOM      7  N   UNL     1      -5.173  36.584   2.009  0.00  0.00    +0.000 N 
ATOM      8  C   UNL     1      -3.986  37.271   2.040  0.00  0.00    +0.000 A 
ATOM      9  C   UNL     1      -2.700  36.730   2.067  0.00  0.00    +0.000 A 
ATOM     10  C   UNL     1      -4.007  38.665   2.140  0.00  0.00    +0.000 A 
ATOM     11  N   UNL     1      -2.417  35.399   2.101  0.00  0.00    +0.000 N 
ATOM     12  C   UNL     1      -1.660  37.657   2.193  0.00  0.00    +0.000 A 
ATOM     13  C   UNL     1      -1.029  35.442   2.324  0.00  0.00    +0.000 A 
ATOM     14  C   UNL     1      -0.545  36.805   2.355  0.00  0.00    +0.000 A 
ATOM     15  C   UNL     1      -0.148  34.361   2.487  0.00  0.00    +0.000 A 
ATOM     16  C   UNL     1       0.833  37.009   2.567  0.00  0.00    +0.000 A 
ATOM     17  C   UNL     1       1.693  35.923   2.725  0.00  0.00    +0.000 A 
ATOM     18  C   UNL     1       1.207  34.624   2.687  0.00  0.00    +0.000 A 
ATOM     19  C   UNL     1      -1.665  39.064   2.276  0.00  0.00    +0.000 A 
ATOM     20  C   UNL     1      -2.980  39.613   2.244  0.00  0.00    +0.000 A 
ATOM     21  C   UNL     1      -0.683  40.111   2.431  0.00  0.00    +0.000 C 
ATOM     22  C   UNL     1      -2.829  41.087   2.390  0.00  0.00    +0.000 C 
ATOM     23  N   UNL     1      -1.492  41.254   2.484  0.00  0.00    +0.000 N 
ATOM     24  H   UNL     1      -1.069  42.166   2.594  0.00  0.00    +0.000 HD
ATOM     25  O   UNL     1       0.536  40.125   2.507  0.00  0.00    +0.000 OA
ATOM     26  C   UNL     1      -5.385  38.930   2.239  0.00  0.00    +0.000 A 
ATOM     27  C   UNL     1      -6.077  37.661   2.189  0.00  0.00    +0.000 A 
ATOM     28  C   UNL     1      -6.147  40.104   2.406  0.00  0.00    +0.000 A 
ATOM     29  C   UNL     1      -7.475  37.621   2.326  0.00  0.00    +0.000 A 
ATOM     30  C   UNL     1      -8.184  38.812   2.487  0.00  0.00    +0.000 A 
ATOM     31  C   UNL     1      -7.534  40.035   2.520  0.00  0.00    +0.000 A 
ENDROOT
BRANCH   3  32
ATOM     32  O   UNL     1      -5.651  35.151   4.412  0.00  0.00    +0.000 OA
ATOM     33  H   UNL     1      -5.989  36.020   4.100  0.00  0.00    +0.000 HD
ENDBRANCH   3  32
BRANCH   3  34
ATOM     34  C   UNL     1      -6.287  33.118   3.237  0.00  0.00    +0.000 C 
ATOM     35  O   UNL     1      -7.510  33.231   3.355  0.00  0.00    +0.000 OA
BRANCH  34  36
ATOM     36  O   UNL     1      -5.559  31.964   3.140  0.00  0.00    +0.000 OA
ATOM     37  C   UNL     1      -5.828  31.113   2.059  0.00  0.00    +0.000 C 
ENDBRANCH  34  36
ENDBRANCH   3  34
TORSDOF 3
ENDMDL
MODEL 6
REMARK VINA RESULT:      -6.7      3.290      7.090
REMARK  Name = 3035817_K252a.pdbqt.pdb
REMARK  3 active torsions:
REMARK  status: ('A' for Active; 'I' for Inactive)
REMARK    1  A    between atoms: C_3  and  O_7
REMARK    2  A    between atoms: C_3  and  C_9
REMARK    3  A    between atoms: C_9  and  O_11
REMARK                            x       y       z     vdW  Elec       q    Type
REMARK                         _______ _______ _______ _____ _____    ______ ____
ROOT
ATOM      1  O   UNL     1      -5.227  49.135  29.154  0.00  0.00    +0.000 OA
ATOM      2  C   UNL     1      -5.275  48.528  27.814  0.00  0.00    +0.000 C 
ATOM      3  C   UNL     1      -4.923  47.000  28.069  0.00  0.00    +0.000 C 
ATOM      4  C   UNL     1      -5.764  48.148  30.000  0.00  0.00    +0.000 C 
ATOM      5  C   UNL     1      -5.356  46.904  29.461  0.00  0.00    +0.000 C 
ATOM      6  C   UNL     1      -4.213  49.309  26.972  0.00  0.00    +0.000 C 
ATOM      7  N   UNL     1      -6.647  48.734  27.308  0.00  0.00    +0.000 N 
ATOM      8  C   UNL     1      -7.843  48.846  27.971  0.00  0.00    +0.000 A 
ATOM      9  C   UNL     1      -8.069  48.666  29.336  0.00  0.00    +0.000 A 
ATOM     10  C   UNL     1      -9.010  49.084  27.238  0.00  0.00    +0.000 A 
ATOM     11  N   UNL     1      -7.118  48.308  30.241  0.00  0.00    +0.000 N 
ATOM     12  C   UNL     1      -9.406  48.746  29.740  0.00  0.00    +0.000 A 
ATOM     13  C   UNL     1      -7.921  48.075  31.371  0.00  0.00    +0.000 A 
ATOM     14  C   UNL     1      -9.312  48.363  31.095  0.00  0.00    +0.000 A 
ATOM     15  C   UNL     1      -7.514  47.640  32.644  0.00  0.00    +0.000 A 
ATOM     16  C   UNL     1     -10.241  48.180  32.139  0.00  0.00    +0.000 A 
ATOM     17  C   UNL     1      -9.818  47.749  33.396  0.00  0.00    +0.000 A 
ATOM     18  C   UNL     1      -8.478  47.483  33.639  0.00  0.00    +0.000 A 
ATOM     19  C   UNL     1     -10.589  49.004  29.016  0.00  0.00    +0.000 A 
ATOM     20  C   UNL     1     -10.353  49.192  27.623  0.00  0.00    +0.000 A 
ATOM     21  C   UNL     1     -12.001  49.085  29.306  0.00  0.00    +0.000 C 
ATOM     22  C   UNL     1     -11.685  49.401  26.991  0.00  0.00    +0.000 C 
ATOM     23  N   UNL     1     -12.539  49.323  28.035  0.00  0.00    +0.000 N 
ATOM     24  H   UNL     1     -13.538  49.428  27.922  0.00  0.00    +0.000 HD
ATOM     25  O   UNL     1     -12.663  48.992  30.328  0.00  0.00    +0.000 OA
ATOM     26  C   UNL     1      -8.530  49.078  25.916  0.00  0.00    +0.000 A 
ATOM     27  C   UNL     1      -7.106  48.835  25.970  0.00  0.00    +0.000 A 
ATOM     28  C   UNL     1      -9.141  49.213  24.652  0.00  0.00    +0.000 A 
ATOM     29  C   UNL     1      -6.370  48.720  24.778  0.00  0.00    +0.000 A 
ATOM     30  C   UNL     1      -7.021  48.863  23.552  0.00  0.00    +0.000 A 
ATOM     31  C   UNL     1      -8.382  49.112  23.487  0.00  0.00    +0.000 A 
ENDROOT
BRANCH   3  32
ATOM     32  O   UNL     1      -5.677  46.067  27.280  0.00  0.00    +0.000 OA
ATOM     33  H   UNL     1      -5.042  45.413  26.915  0.00  0.00    +0.000 HD
ENDBRANCH   3  32
BRANCH   3  34
ATOM     34  C   UNL     1      -3.427  46.731  27.925  0.00  0.00    +0.000 C 
ATOM     35  O   UNL     1      -2.640  47.081  28.809  0.00  0.00    +0.000 OA
BRANCH  34  36
ATOM     36  O   UNL     1      -3.131  46.142  26.727  0.00  0.00    +0.000 OA
ATOM     37  C   UNL     1      -1.920  46.487  26.112  0.00  0.00    +0.000 C 
ENDBRANCH  34  36
ENDBRANCH   3  34
TORSDOF 3
ENDMDL
MODEL 7
REMARK VINA RESULT:      -6.5     25.933     28.327
REMARK  Name = 3035817_K252a.pdbqt.pdb
REMARK  3 active torsions:
REMARK  status: ('A' for Active; 'I' for Inactive)
REMARK    1  A    between atoms: C_3  and  O_7
REMARK    2  A    between atoms: C_3  and  C_9
REMARK    3  A    between atoms: C_9  and  O_11
REMARK                            x       y       z     vdW  Elec       q    Type
REMARK                         _______ _______ _______ _____ _____    ______ ____
ROOT
ATOM      1  O   UNL     1     -16.729  41.517   2.244  0.00  0.00    +0.000 OA
ATOM      2  C   UNL     1     -17.306  42.293   3.353  0.00  0.00    +0.000 C 
ATOM      3  C   UNL     1     -16.049  42.693   4.240  0.00  0.00    +0.000 C 
ATOM      4  C   UNL     1     -15.516  42.169   1.960  0.00  0.00    +0.000 C 
ATOM      5  C   UNL     1     -15.022  42.639   3.202  0.00  0.00    +0.000 C 
ATOM      6  C   UNL     1     -18.312  41.322   4.054  0.00  0.00    +0.000 C 
ATOM      7  N   UNL     1     -17.985  43.455   2.746  0.00  0.00    +0.000 N 
ATOM      8  C   UNL     1     -17.725  44.144   1.588  0.00  0.00    +0.000 A 
ATOM      9  C   UNL     1     -16.636  43.975   0.733  0.00  0.00    +0.000 A 
ATOM     10  C   UNL     1     -18.566  45.199   1.219  0.00  0.00    +0.000 A 
ATOM     11  N   UNL     1     -15.616  43.098   0.939  0.00  0.00    +0.000 N 
ATOM     12  C   UNL     1     -16.561  44.877  -0.333  0.00  0.00    +0.000 A 
ATOM     13  C   UNL     1     -14.734  43.493  -0.083  0.00  0.00    +0.000 A 
ATOM     14  C   UNL     1     -15.302  44.555  -0.885  0.00  0.00    +0.000 A 
ATOM     15  C   UNL     1     -13.462  42.973  -0.374  0.00  0.00    +0.000 A 
ATOM     16  C   UNL     1     -14.534  45.055  -1.954  0.00  0.00    +0.000 A 
ATOM     17  C   UNL     1     -13.274  44.524  -2.229  0.00  0.00    +0.000 A 
ATOM     18  C   UNL     1     -12.750  43.502  -1.449  0.00  0.00    +0.000 A 
ATOM     19  C   UNL     1     -17.410  45.932  -0.728  0.00  0.00    +0.000 A 
ATOM     20  C   UNL     1     -18.524  46.099   0.145  0.00  0.00    +0.000 A 
ATOM     21  C   UNL     1     -17.430  46.930  -1.770  0.00  0.00    +0.000 C 
ATOM     22  C   UNL     1     -19.293  47.268  -0.365  0.00  0.00    +0.000 C 
ATOM     23  N   UNL     1     -18.585  47.655  -1.449  0.00  0.00    +0.000 N 
ATOM     24  H   UNL     1     -18.862  48.441  -2.021  0.00  0.00    +0.000 HD
ATOM     25  O   UNL     1     -16.703  47.178  -2.721  0.00  0.00    +0.000 OA
ATOM     26  C   UNL     1     -19.467  45.246   2.298  0.00  0.00    +0.000 A 
ATOM     27  C   UNL     1     -19.087  44.206   3.228  0.00  0.00    +0.000 A 
ATOM     28  C   UNL     1     -20.557  46.077   2.628  0.00  0.00    +0.000 A 
ATOM     29  C   UNL     1     -19.788  44.059   4.437  0.00  0.00    +0.000 A 
ATOM     30  C   UNL     1     -20.860  44.907   4.718  0.00  0.00    +0.000 A 
ATOM     31  C   UNL     1     -21.244  45.896   3.827  0.00  0.00    +0.000 A 
ENDROOT
BRANCH   3  32
ATOM     32  O   UNL     1     -16.092  44.021   4.783  0.00  0.00    +0.000 OA
ATOM     33  H   UNL     1     -16.078  44.648   4.026  0.00  0.00    +0.000 HD
ENDBRANCH   3  32
BRANCH   3  34
ATOM     34  C   UNL     1     -15.787  41.674   5.345  0.00  0.00    +0.000 C 
ATOM     35  O   UNL     1     -16.145  41.900   6.504  0.00  0.00    +0.000 OA
BRANCH  34  36
ATOM     36  O   UNL     1     -15.098  40.588   4.879  0.00  0.00    +0.000 OA
ATOM     37  C   UNL     1     -15.393  39.338   5.440  0.00  0.00    +0.000 C 
ENDBRANCH  34  36
ENDBRANCH   3  34
TORSDOF 3
ENDMDL
MODEL 8
REMARK VINA RESULT:      -6.5      3.125      3.803
REMARK  Name = 3035817_K252a.pdbqt.pdb
REMARK  3 active torsions:
REMARK  status: ('A' for Active; 'I' for Inactive)
REMARK    1  A    between atoms: C_3  and  O_7
REMARK    2  A    between atoms: C_3  and  C_9
REMARK    3  A    between atoms: C_9  and  O_11
REMARK                            x       y       z     vdW  Elec       q    Type
REMARK                         _______ _______ _______ _____ _____    ______ ____
ROOT
ATOM      1  O   UNL     1      -5.398  49.157  26.176  0.00  0.00    +0.000 OA
ATOM      2  C   UNL     1      -6.668  48.738  26.792  0.00  0.00    +0.000 C 
ATOM      3  C   UNL     1      -6.983  47.336  26.113  0.00  0.00    +0.000 C 
ATOM      4  C   UNL     1      -4.668  47.962  26.043  0.00  0.00    +0.000 C 
ATOM      5  C   UNL     1      -5.618  46.950  25.764  0.00  0.00    +0.000 C 
ATOM      6  C   UNL     1      -7.686  49.873  26.444  0.00  0.00    +0.000 C 
ATOM      7  N   UNL     1      -6.419  48.641  28.244  0.00  0.00    +0.000 N 
ATOM      8  C   UNL     1      -5.275  48.348  28.943  0.00  0.00    +0.000 A 
ATOM      9  C   UNL     1      -4.049  47.938  28.418  0.00  0.00    +0.000 A 
ATOM     10  C   UNL     1      -5.306  48.363  30.341  0.00  0.00    +0.000 A 
ATOM     11  N   UNL     1      -3.801  47.728  27.096  0.00  0.00    +0.000 N 
ATOM     12  C   UNL     1      -3.069  47.611  29.361  0.00  0.00    +0.000 A 
ATOM     13  C   UNL     1      -2.522  47.148  27.169  0.00  0.00    +0.000 A 
ATOM     14  C   UNL     1      -2.048  47.093  28.535  0.00  0.00    +0.000 A 
ATOM     15  C   UNL     1      -1.728  46.673  26.112  0.00  0.00    +0.000 A 
ATOM     16  C   UNL     1      -0.773  46.539  28.767  0.00  0.00    +0.000 A 
ATOM     17  C   UNL     1       0.001  46.075  27.705  0.00  0.00    +0.000 A 
ATOM     18  C   UNL     1      -0.472  46.141  26.402  0.00  0.00    +0.000 A 
ATOM     19  C   UNL     1      -3.080  47.641  30.771  0.00  0.00    +0.000 A 
ATOM     20  C   UNL     1      -4.333  48.063  31.304  0.00  0.00    +0.000 A 
ATOM     21  C   UNL     1      -2.163  47.310  31.836  0.00  0.00    +0.000 C 
ATOM     22  C   UNL     1      -4.209  47.996  32.786  0.00  0.00    +0.000 C 
ATOM     23  N   UNL     1      -2.943  47.562  32.972  0.00  0.00    +0.000 N 
ATOM     24  H   UNL     1      -2.554  47.414  33.893  0.00  0.00    +0.000 HD
ATOM     25  O   UNL     1      -1.008  46.914  31.867  0.00  0.00    +0.000 OA
ATOM     26  C   UNL     1      -6.658  48.655  30.599  0.00  0.00    +0.000 A 
ATOM     27  C   UNL     1      -7.325  48.790  29.324  0.00  0.00    +0.000 A 
ATOM     28  C   UNL     1      -7.423  48.788  31.776  0.00  0.00    +0.000 A 
ATOM     29  C   UNL     1      -8.710  49.028  29.282  0.00  0.00    +0.000 A 
ATOM     30  C   UNL     1      -9.423  49.153  30.474  0.00  0.00    +0.000 A 
ATOM     31  C   UNL     1      -8.791  49.042  31.703  0.00  0.00    +0.000 A 
ENDROOT
BRANCH   3  32
ATOM     32  O   UNL     1      -7.535  46.349  26.997  0.00  0.00    +0.000 OA
ATOM     33  H   UNL     1      -8.364  46.722  27.370  0.00  0.00    +0.000 HD
ENDBRANCH   3  32
BRANCH   3  34
ATOM     34  C   UNL     1      -7.859  47.491  24.873  0.00  0.00    +0.000 C 
ATOM     35  O   UNL     1      -7.472  48.161  23.912  0.00  0.00    +0.000 OA
BRANCH  34  36
ATOM     36  O   UNL     1      -9.065  46.863  25.023  0.00  0.00    +0.000 OA
ATOM     37  C   UNL     1      -9.753  46.487  23.862  0.00  0.00    +0.000 C 
ENDBRANCH  34  36
ENDBRANCH   3  34
TORSDOF 3
ENDMDL
MODEL 9
REMARK VINA RESULT:      -6.4     23.428     26.385
REMARK  Name = 3035817_K252a.pdbqt.pdb
REMARK  3 active torsions:
REMARK  status: ('A' for Active; 'I' for Inactive)
REMARK    1  A    between atoms: C_3  and  O_7
REMARK    2  A    between atoms: C_3  and  C_9
REMARK    3  A    between atoms: C_9  and  O_11
REMARK                            x       y       z     vdW  Elec       q    Type
REMARK                         _______ _______ _______ _____ _____    ______ ____
ROOT
ATOM      1  O   UNL     1      -3.537  24.734  18.547  0.00  0.00    +0.000 OA
ATOM      2  C   UNL     1      -4.655  24.710  17.590  0.00  0.00    +0.000 C 
ATOM      3  C   UNL     1      -5.575  25.926  18.040  0.00  0.00    +0.000 C 
ATOM      4  C   UNL     1      -3.293  26.103  18.759  0.00  0.00    +0.000 C 
ATOM      5  C   UNL     1      -4.555  26.742  18.694  0.00  0.00    +0.000 C 
ATOM      6  C   UNL     1      -5.311  23.300  17.761  0.00  0.00    +0.000 C 
ATOM      7  N   UNL     1      -4.064  24.890  16.248  0.00  0.00    +0.000 N 
ATOM      8  C   UNL     1      -2.930  25.548  15.846  0.00  0.00    +0.000 A 
ATOM      9  C   UNL     1      -2.092  26.339  16.633  0.00  0.00    +0.000 A 
ATOM     10  C   UNL     1      -2.572  25.528  14.494  0.00  0.00    +0.000 A 
ATOM     11  N   UNL     1      -2.294  26.615  17.950  0.00  0.00    +0.000 N 
ATOM     12  C   UNL     1      -1.050  26.976  15.949  0.00  0.00    +0.000 A 
ATOM     13  C   UNL     1      -1.299  27.587  18.159  0.00  0.00    +0.000 A 
ATOM     14  C   UNL     1      -0.514  27.800  16.963  0.00  0.00    +0.000 A 
ATOM     15  C   UNL     1      -1.019  28.294  19.340  0.00  0.00    +0.000 A 
ATOM     16  C   UNL     1       0.528  28.747  17.020  0.00  0.00    +0.000 A 
ATOM     17  C   UNL     1       0.792  29.438  18.202  0.00  0.00    +0.000 A 
ATOM     18  C   UNL     1       0.029  29.214  19.339  0.00  0.00    +0.000 A 
ATOM     19  C   UNL     1      -0.666  26.949  14.593  0.00  0.00    +0.000 A 
ATOM     20  C   UNL     1      -1.523  26.137  13.794  0.00  0.00    +0.000 A 
ATOM     21  C   UNL     1       0.350  27.569  13.777  0.00  0.00    +0.000 C 
ATOM     22  C   UNL     1      -1.028  26.247  12.394  0.00  0.00    +0.000 C 
ATOM     23  N   UNL     1       0.032  27.077  12.504  0.00  0.00    +0.000 N 
ATOM     24  H   UNL     1       0.589  27.349  11.705  0.00  0.00    +0.000 HD
ATOM     25  O   UNL     1       1.280  28.327  14.010  0.00  0.00    +0.000 OA
ATOM     26  C   UNL     1      -3.634  24.805  13.922  0.00  0.00    +0.000 A 
ATOM     27  C   UNL     1      -4.545  24.452  14.988  0.00  0.00    +0.000 A 
ATOM     28  C   UNL     1      -3.966  24.430  12.604  0.00  0.00    +0.000 A 
ATOM     29  C   UNL     1      -5.737  23.768  14.692  0.00  0.00    +0.000 A 
ATOM     30  C   UNL     1      -6.018  23.418  13.372  0.00  0.00    +0.000 A 
ATOM     31  C   UNL     1      -5.146  23.737  12.343  0.00  0.00    +0.000 A 
ENDROOT
BRANCH   3  32
ATOM     32  O   UNL     1      -6.151  26.677  16.961  0.00  0.00    +0.000 OA
ATOM     33  H   UNL     1      -6.748  26.071  16.469  0.00  0.00    +0.000 HD
ENDBRANCH   3  32
BRANCH   3  34
ATOM     34  C   UNL     1      -6.658  25.484  19.020  0.00  0.00    +0.000 C 
ATOM     35  O   UNL     1      -7.796  25.225  18.620  0.00  0.00    +0.000 OA
BRANCH  34  36
ATOM     36  O   UNL     1      -6.204  25.483  20.310  0.00  0.00    +0.000 OA
ATOM     37  C   UNL     1      -6.434  24.335  21.081  0.00  0.00    +0.000 C 
ENDBRANCH  34  36
ENDBRANCH   3  34
TORSDOF 3
ENDMDL
