MODEL 1
REMARK VINA RESULT:      -5.3      0.000      0.000
REMARK  Name = 3136_Dimethoxy.pdbqt.pdb
REMARK  2 active torsions:
REMARK  status: ('A' for Active; 'I' for Inactive)
REMARK    1  A    between atoms: C_7  and  O_13
REMARK    2  A    between atoms: C_8  and  O_15
REMARK                            x       y       z     vdW  Elec       q    Type
REMARK                         _______ _______ _______ _____ _____    ______ ____
ROOT
ATOM      1  O   UNL     1     -19.339  40.883   6.010  0.00  0.00    +0.000 OA
ATOM      2  O   UNL     1     -14.182  41.823   5.051  0.00  0.00    +0.000 OA
ATOM      3  C   UNL     1     -17.161  40.033   5.936  0.00  0.00    +0.000 A 
ATOM      4  C   UNL     1     -15.822  40.272   5.662  0.00  0.00    +0.000 A 
ATOM      5  C   UNL     1     -18.152  41.109   5.817  0.00  0.00    +0.000 C 
ATOM      6  C   UNL     1     -15.370  41.603   5.241  0.00  0.00    +0.000 C 
ATOM      7  C   UNL     1     -17.673  42.461   5.439  0.00  0.00    +0.000 C 
ATOM      8  C   UNL     1     -16.390  42.667   5.077  0.00  0.00    +0.000 C 
ATOM      9  C   UNL     1     -17.578  38.762   6.329  0.00  0.00    +0.000 A 
ATOM     10  C   UNL     1     -14.889  39.242   5.785  0.00  0.00    +0.000 A 
ATOM     11  C   UNL     1     -16.649  37.732   6.451  0.00  0.00    +0.000 A 
ATOM     12  C   UNL     1     -15.303  37.972   6.179  0.00  0.00    +0.000 A 
ENDROOT
BRANCH   7  13
ATOM     13  O   UNL     1     -18.648  43.441   5.391  0.00  0.00    +0.000 OA
ATOM     14  C   UNL     1     -19.237  43.460   4.113  0.00  0.00    +0.000 C 
ENDBRANCH   7  13
BRANCH   8  15
ATOM     15  O   UNL     1     -15.907  43.884   4.630  0.00  0.00    +0.000 OA
ATOM     16  C   UNL     1     -15.741  43.843   3.233  0.00  0.00    +0.000 C 
ENDBRANCH   8  15
TORSDOF 2
ENDMDL
MODEL 2
REMARK VINA RESULT:      -5.3     27.036     28.644
REMARK  Name = 3136_Dimethoxy.pdbqt.pdb
REMARK  2 active torsions:
REMARK  status: ('A' for Active; 'I' for Inactive)
REMARK    1  A    between atoms: C_7  and  O_13
REMARK    2  A    between atoms: C_8  and  O_15
REMARK                            x       y       z     vdW  Elec       q    Type
REMARK                         _______ _______ _______ _____ _____    ______ ____
ROOT
ATOM      1  O   UNL     1       7.528  54.243  17.563  0.00  0.00    +0.000 OA
ATOM      2  O   UNL     1       2.285  55.103  17.155  0.00  0.00    +0.000 OA
ATOM      3  C   UNL     1       5.623  55.265  18.456  0.00  0.00    +0.000 A 
ATOM      4  C   UNL     1       4.263  55.509  18.335  0.00  0.00    +0.000 A 
ATOM      5  C   UNL     1       6.319  54.415  17.483  0.00  0.00    +0.000 C 
ATOM      6  C   UNL     1       3.493  54.929  17.229  0.00  0.00    +0.000 C 
ATOM      7  C   UNL     1       5.519  53.794  16.399  0.00  0.00    +0.000 C 
ATOM      8  C   UNL     1       4.220  54.113  16.226  0.00  0.00    +0.000 C 
ATOM      9  C   UNL     1       6.344  55.828  19.508  0.00  0.00    +0.000 A 
ATOM     10  C   UNL     1       3.611  56.315  19.270  0.00  0.00    +0.000 A 
ATOM     11  C   UNL     1       5.696  56.634  20.441  0.00  0.00    +0.000 A 
ATOM     12  C   UNL     1       4.329  56.877  20.323  0.00  0.00    +0.000 A 
ENDROOT
BRANCH   7  13
ATOM     13  O   UNL     1       6.224  52.967  15.544  0.00  0.00    +0.000 OA
ATOM     14  C   UNL     1       6.883  53.742  14.572  0.00  0.00    +0.000 C 
ENDBRANCH   7  13
BRANCH   8  15
ATOM     15  O   UNL     1       3.448  53.636  15.182  0.00  0.00    +0.000 OA
ATOM     16  C   UNL     1       3.430  54.579  14.137  0.00  0.00    +0.000 C 
ENDBRANCH   8  15
TORSDOF 2
ENDMDL
MODEL 3
REMARK VINA RESULT:      -5.0      2.306      4.799
REMARK  Name = 3136_Dimethoxy.pdbqt.pdb
REMARK  2 active torsions:
REMARK  status: ('A' for Active; 'I' for Inactive)
REMARK    1  A    between atoms: C_7  and  O_13
REMARK    2  A    between atoms: C_8  and  O_15
REMARK                            x       y       z     vdW  Elec       q    Type
REMARK                         _______ _______ _______ _____ _____    ______ ____
ROOT
ATOM      1  O   UNL     1     -19.809  40.261   5.962  0.00  0.00    +0.000 OA
ATOM      2  O   UNL     1     -15.235  37.616   6.658  0.00  0.00    +0.000 OA
ATOM      3  C   UNL     1     -17.477  40.277   5.787  0.00  0.00    +0.000 A 
ATOM      4  C   UNL     1     -16.285  39.597   5.991  0.00  0.00    +0.000 A 
ATOM      5  C   UNL     1     -18.762  39.641   6.096  0.00  0.00    +0.000 C 
ATOM      6  C   UNL     1     -16.284  38.232   6.527  0.00  0.00    +0.000 C 
ATOM      7  C   UNL     1     -18.749  38.242   6.590  0.00  0.00    +0.000 C 
ATOM      8  C   UNL     1     -17.588  37.621   6.882  0.00  0.00    +0.000 C 
ATOM      9  C   UNL     1     -17.463  41.577   5.282  0.00  0.00    +0.000 A 
ATOM     10  C   UNL     1     -15.069  40.211   5.688  0.00  0.00    +0.000 A 
ATOM     11  C   UNL     1     -16.250  42.192   4.980  0.00  0.00    +0.000 A 
ATOM     12  C   UNL     1     -15.053  41.509   5.183  0.00  0.00    +0.000 A 
ENDROOT
BRANCH   7  13
ATOM     13  O   UNL     1     -19.994  37.684   6.817  0.00  0.00    +0.000 OA
ATOM     14  C   UNL     1     -20.467  37.086   5.634  0.00  0.00    +0.000 C 
ENDBRANCH   7  13
BRANCH   8  15
ATOM     15  O   UNL     1     -17.517  36.352   7.429  0.00  0.00    +0.000 OA
ATOM     16  C   UNL     1     -17.422  35.397   6.399  0.00  0.00    +0.000 C 
ENDBRANCH   8  15
TORSDOF 2
ENDMDL
MODEL 4
REMARK VINA RESULT:      -5.0     24.054     24.648
REMARK  Name = 3136_Dimethoxy.pdbqt.pdb
REMARK  2 active torsions:
REMARK  status: ('A' for Active; 'I' for Inactive)
REMARK    1  A    between atoms: C_7  and  O_13
REMARK    2  A    between atoms: C_8  and  O_15
REMARK                            x       y       z     vdW  Elec       q    Type
REMARK                         _______ _______ _______ _____ _____    ______ ____
ROOT
ATOM      1  O   UNL     1      -7.001  46.475  29.469  0.00  0.00    +0.000 OA
ATOM      2  O   UNL     1      -6.828  48.389  24.499  0.00  0.00    +0.000 OA
ATOM      3  C   UNL     1      -6.100  46.295  27.319  0.00  0.00    +0.000 A 
ATOM      4  C   UNL     1      -6.074  46.778  26.018  0.00  0.00    +0.000 A 
ATOM      5  C   UNL     1      -6.941  46.934  28.337  0.00  0.00    +0.000 C 
ATOM      6  C   UNL     1      -6.892  47.934  25.632  0.00  0.00    +0.000 C 
ATOM      7  C   UNL     1      -7.725  48.132  27.945  0.00  0.00    +0.000 C 
ATOM      8  C   UNL     1      -7.775  48.538  26.660  0.00  0.00    +0.000 C 
ATOM      9  C   UNL     1      -5.323  45.192  27.670  0.00  0.00    +0.000 A 
ATOM     10  C   UNL     1      -5.266  46.165  25.060  0.00  0.00    +0.000 A 
ATOM     11  C   UNL     1      -4.516  44.578  26.715  0.00  0.00    +0.000 A 
ATOM     12  C   UNL     1      -4.487  45.065  25.410  0.00  0.00    +0.000 A 
ENDROOT
BRANCH   7  13
ATOM     13  O   UNL     1      -8.459  48.716  28.961  0.00  0.00    +0.000 OA
ATOM     14  C   UNL     1      -7.741  49.799  29.501  0.00  0.00    +0.000 C 
ENDBRANCH   7  13
BRANCH   8  15
ATOM     15  O   UNL     1      -8.557  49.591  26.221  0.00  0.00    +0.000 OA
ATOM     16  C   UNL     1      -9.842  49.121  25.891  0.00  0.00    +0.000 C 
ENDBRANCH   8  15
TORSDOF 2
ENDMDL
MODEL 5
REMARK VINA RESULT:      -5.0     27.403     28.826
REMARK  Name = 3136_Dimethoxy.pdbqt.pdb
REMARK  2 active torsions:
REMARK  status: ('A' for Active; 'I' for Inactive)
REMARK    1  A    between atoms: C_7  and  O_13
REMARK    2  A    between atoms: C_8  and  O_15
REMARK                            x       y       z     vdW  Elec       q    Type
REMARK                         _______ _______ _______ _____ _____    ______ ____
ROOT
ATOM      1  O   UNL     1       3.897  56.820  19.519  0.00  0.00    +0.000 OA
ATOM      2  O   UNL     1       5.938  53.357  16.021  0.00  0.00    +0.000 OA
ATOM      3  C   UNL     1       5.781  55.654  18.771  0.00  0.00    +0.000 A 
ATOM      4  C   UNL     1       6.306  54.733  17.876  0.00  0.00    +0.000 A 
ATOM      5  C   UNL     1       4.369  56.046  18.697  0.00  0.00    +0.000 C 
ATOM      6  C   UNL     1       5.460  54.128  16.841  0.00  0.00    +0.000 C 
ATOM      7  C   UNL     1       3.538  55.464  17.615  0.00  0.00    +0.000 C 
ATOM      8  C   UNL     1       4.024  54.497  16.811  0.00  0.00    +0.000 C 
ATOM      9  C   UNL     1       6.595  56.217  19.753  0.00  0.00    +0.000 A 
ATOM     10  C   UNL     1       7.652  54.372  17.953  0.00  0.00    +0.000 A 
ATOM     11  C   UNL     1       7.938  55.857  19.833  0.00  0.00    +0.000 A 
ATOM     12  C   UNL     1       8.467  54.935  18.932  0.00  0.00    +0.000 A 
ENDROOT
BRANCH   7  13
ATOM     13  O   UNL     1       2.230  55.911  17.570  0.00  0.00    +0.000 OA
ATOM     14  C   UNL     1       2.099  56.894  16.572  0.00  0.00    +0.000 C 
ENDBRANCH   7  13
BRANCH   8  15
ATOM     15  O   UNL     1       3.270  53.855  15.845  0.00  0.00    +0.000 OA
ATOM     16  C   UNL     1       2.569  52.782  16.427  0.00  0.00    +0.000 C 
ENDBRANCH   8  15
TORSDOF 2
ENDMDL
MODEL 6
REMARK VINA RESULT:      -5.0     25.128     26.026
REMARK  Name = 3136_Dimethoxy.pdbqt.pdb
REMARK  2 active torsions:
REMARK  status: ('A' for Active; 'I' for Inactive)
REMARK    1  A    between atoms: C_7  and  O_13
REMARK    2  A    between atoms: C_8  and  O_15
REMARK                            x       y       z     vdW  Elec       q    Type
REMARK                         _______ _______ _______ _____ _____    ______ ____
ROOT
ATOM      1  O   UNL     1      -6.441  48.919  27.642  0.00  0.00    +0.000 OA
ATOM      2  O   UNL     1      -1.882  46.538  26.246  0.00  0.00    +0.000 OA
ATOM      3  C   UNL     1      -4.143  49.129  27.266  0.00  0.00    +0.000 A 
ATOM      4  C   UNL     1      -2.952  48.504  26.927  0.00  0.00    +0.000 A 
ATOM      5  C   UNL     1      -5.401  48.376  27.293  0.00  0.00    +0.000 C 
ATOM      6  C   UNL     1      -2.924  47.075  26.595  0.00  0.00    +0.000 C 
ATOM      7  C   UNL     1      -5.367  46.944  26.907  0.00  0.00    +0.000 C 
ATOM      8  C   UNL     1      -4.196  46.316  26.676  0.00  0.00    +0.000 C 
ATOM      9  C   UNL     1      -4.153  50.487  27.585  0.00  0.00    +0.000 A 
ATOM     10  C   UNL     1      -1.762  49.232  26.899  0.00  0.00    +0.000 A 
ATOM     11  C   UNL     1      -2.966  51.216  27.559  0.00  0.00    +0.000 A 
ATOM     12  C   UNL     1      -1.770  50.589  27.216  0.00  0.00    +0.000 A 
ENDROOT
BRANCH   7  13
ATOM     13  O   UNL     1      -6.592  46.303  26.907  0.00  0.00    +0.000 OA
ATOM     14  C   UNL     1      -7.209  46.463  25.652  0.00  0.00    +0.000 C 
ENDBRANCH   7  13
BRANCH   8  15
ATOM     15  O   UNL     1      -4.095  44.964  26.400  0.00  0.00    +0.000 OA
ATOM     16  C   UNL     1      -4.149  44.759  25.008  0.00  0.00    +0.000 C 
ENDBRANCH   8  15
TORSDOF 2
ENDMDL
MODEL 7
REMARK VINA RESULT:      -4.6     22.803     24.680
REMARK  Name = 3136_Dimethoxy.pdbqt.pdb
REMARK  2 active torsions:
REMARK  status: ('A' for Active; 'I' for Inactive)
REMARK    1  A    between atoms: C_7  and  O_13
REMARK    2  A    between atoms: C_8  and  O_15
REMARK                            x       y       z     vdW  Elec       q    Type
REMARK                         _______ _______ _______ _____ _____    ______ ____
ROOT
ATOM      1  O   UNL     1      -2.104  27.060  16.555  0.00  0.00    +0.000 OA
ATOM      2  O   UNL     1      -2.322  27.483  21.863  0.00  0.00    +0.000 OA
ATOM      3  C   UNL     1      -3.424  26.996  18.485  0.00  0.00    +0.000 A 
ATOM      4  C   UNL     1      -3.476  27.082  19.869  0.00  0.00    +0.000 A 
ATOM      5  C   UNL     1      -2.156  27.186  17.772  0.00  0.00    +0.000 C 
ATOM      6  C   UNL     1      -2.264  27.357  20.648  0.00  0.00    +0.000 C 
ATOM      7  C   UNL     1      -0.948  27.513  18.568  0.00  0.00    +0.000 C 
ATOM      8  C   UNL     1      -0.981  27.496  19.917  0.00  0.00    +0.000 C 
ATOM      9  C   UNL     1      -4.582  26.728  17.757  0.00  0.00    +0.000 A 
ATOM     10  C   UNL     1      -4.689  26.905  20.535  0.00  0.00    +0.000 A 
ATOM     11  C   UNL     1      -5.794  26.549  18.420  0.00  0.00    +0.000 A 
ATOM     12  C   UNL     1      -5.848  26.638  19.809  0.00  0.00    +0.000 A 
ENDROOT
BRANCH   7  13
ATOM     13  O   UNL     1       0.204  27.727  17.834  0.00  0.00    +0.000 OA
ATOM     14  C   UNL     1       0.392  29.108  17.640  0.00  0.00    +0.000 C 
ENDBRANCH   7  13
BRANCH   8  15
ATOM     15  O   UNL     1       0.132  27.705  20.711  0.00  0.00    +0.000 OA
ATOM     16  C   UNL     1       0.781  26.479  20.949  0.00  0.00    +0.000 C 
ENDBRANCH   8  15
TORSDOF 2
ENDMDL
MODEL 8
REMARK VINA RESULT:      -4.4      2.883      5.414
REMARK  Name = 3136_Dimethoxy.pdbqt.pdb
REMARK  2 active torsions:
REMARK  status: ('A' for Active; 'I' for Inactive)
REMARK    1  A    between atoms: C_7  and  O_13
REMARK    2  A    between atoms: C_8  and  O_15
REMARK                            x       y       z     vdW  Elec       q    Type
REMARK                         _______ _______ _______ _____ _____    ______ ____
ROOT
ATOM      1  O   UNL     1     -19.938  36.587   7.421  0.00  0.00    +0.000 OA
ATOM      2  O   UNL     1     -16.021  39.732   5.643  0.00  0.00    +0.000 OA
ATOM      3  C   UNL     1     -19.323  38.670   6.553  0.00  0.00    +0.000 A 
ATOM      4  C   UNL     1     -18.300  39.497   6.113  0.00  0.00    +0.000 A 
ATOM      5  C   UNL     1     -19.041  37.297   6.986  0.00  0.00    +0.000 C 
ATOM      6  C   UNL     1     -16.913  39.019   6.079  0.00  0.00    +0.000 C 
ATOM      7  C   UNL     1     -17.642  36.810   6.900  0.00  0.00    +0.000 C 
ATOM      8  C   UNL     1     -16.637  37.646   6.568  0.00  0.00    +0.000 C 
ATOM      9  C   UNL     1     -20.636  39.139   6.586  0.00  0.00    +0.000 A 
ATOM     10  C   UNL     1     -18.582  40.799   5.698  0.00  0.00    +0.000 A 
ATOM     11  C   UNL     1     -20.920  40.439   6.173  0.00  0.00    +0.000 A 
ATOM     12  C   UNL     1     -19.893  41.269   5.729  0.00  0.00    +0.000 A 
ENDROOT
BRANCH   7  13
ATOM     13  O   UNL     1     -17.451  35.494   7.277  0.00  0.00    +0.000 OA
ATOM     14  C   UNL     1     -17.659  34.650   6.171  0.00  0.00    +0.000 C 
ENDBRANCH   7  13
BRANCH   8  15
ATOM     15  O   UNL     1     -15.304  37.272   6.557  0.00  0.00    +0.000 OA
ATOM     16  C   UNL     1     -14.958  36.794   5.279  0.00  0.00    +0.000 C 
ENDBRANCH   8  15
TORSDOF 2
ENDMDL
MODEL 9
REMARK VINA RESULT:      -4.3     23.367     25.525
REMARK  Name = 3136_Dimethoxy.pdbqt.pdb
REMARK  2 active torsions:
REMARK  status: ('A' for Active; 'I' for Inactive)
REMARK    1  A    between atoms: C_7  and  O_13
REMARK    2  A    between atoms: C_8  and  O_15
REMARK                            x       y       z     vdW  Elec       q    Type
REMARK                         _______ _______ _______ _____ _____    ______ ____
ROOT
ATOM      1  O   UNL     1      -0.470  24.571  17.832  0.00  0.00    +0.000 OA
ATOM      2  O   UNL     1       0.425  29.798  18.354  0.00  0.00    +0.000 OA
ATOM      3  C   UNL     1      -0.245  26.646  16.778  0.00  0.00    +0.000 A 
ATOM      4  C   UNL     1      -0.037  28.011  16.917  0.00  0.00    +0.000 A 
ATOM      5  C   UNL     1      -0.236  25.766  17.952  0.00  0.00    +0.000 C 
ATOM      6  C   UNL     1       0.190  28.603  18.240  0.00  0.00    +0.000 C 
ATOM      7  C   UNL     1       0.044  26.371  19.277  0.00  0.00    +0.000 C 
ATOM      8  C   UNL     1       0.146  27.708  19.422  0.00  0.00    +0.000 C 
ATOM      9  C   UNL     1      -0.465  26.098  15.515  0.00  0.00    +0.000 A 
ATOM     10  C   UNL     1      -0.042  28.838  15.793  0.00  0.00    +0.000 A 
ATOM     11  C   UNL     1      -0.473  26.921  14.392  0.00  0.00    +0.000 A 
ATOM     12  C   UNL     1      -0.261  28.291  14.530  0.00  0.00    +0.000 A 
ENDROOT
BRANCH   7  13
ATOM     13  O   UNL     1       0.087  25.482  20.335  0.00  0.00    +0.000 OA
ATOM     14  C   UNL     1       1.424  25.160  20.630  0.00  0.00    +0.000 C 
ENDBRANCH   7  13
BRANCH   8  15
ATOM     15  O   UNL     1       0.318  28.334  20.644  0.00  0.00    +0.000 OA
ATOM     16  C   UNL     1      -0.937  28.555  21.242  0.00  0.00    +0.000 C 
ENDBRANCH   8  15
TORSDOF 2
ENDMDL
