MODEL 1
REMARK VINA RESULT:      -5.7      0.000      0.000
REMARK  Name = 326_Cuminaldehyde.pdb
REMARK  1 active torsions:
REMARK  status: ('A' for Active; 'I' for Inactive)
REMARK    1  A    between atoms: C_1  and  C_7
REMARK                            x       y       z     vdW  Elec       q    Type
REMARK                         _______ _______ _______ _____ _____    ______ ____
ROOT
ATOM      1  C   UNL     1      -6.473  46.589  25.510  0.00  0.00    +0.000 C 
ATOM      2  C   UNL     1      -7.841  46.373  25.693  0.00  0.00    +0.000 C 
ATOM      3  C   UNL     1      -6.043  47.732  24.831  0.00  0.00    +0.000 C 
ATOM      4  C   UNL     1      -8.770  47.290  25.203  0.00  0.00    +0.000 C 
ATOM      5  C   UNL     1      -6.970  48.649  24.340  0.00  0.00    +0.000 C 
ATOM      6  C   UNL     1      -8.333  48.427  24.527  0.00  0.00    +0.000 C 
ATOM      7  O   UNL     1     -10.065  50.139  23.611  0.00  0.00    +0.000 OA
ATOM      8  C   UNL     1      -9.282  49.365  24.025  0.00  0.00    +0.000 C 
ENDROOT
BRANCH   1   9
ATOM      9  C   UNL     1      -5.502  45.628  26.024  0.00  0.00    +0.000 C 
ATOM     10  C   UNL     1      -5.641  45.026  27.400  0.00  0.00    +0.000 C 
ATOM     11  C   UNL     1      -4.314  45.194  25.203  0.00  0.00    +0.000 C 
ENDBRANCH   1   9
TORSDOF 1
ENDMDL
MODEL 2
REMARK VINA RESULT:      -4.9      4.291      5.822
REMARK  Name = 326_Cuminaldehyde.pdb
REMARK  1 active torsions:
REMARK  status: ('A' for Active; 'I' for Inactive)
REMARK    1  A    between atoms: C_1  and  C_7
REMARK                            x       y       z     vdW  Elec       q    Type
REMARK                         _______ _______ _______ _____ _____    ______ ____
ROOT
ATOM      1  C   UNL     1      -3.102  48.799  26.753  0.00  0.00    +0.000 C 
ATOM      2  C   UNL     1      -4.435  48.453  26.516  0.00  0.00    +0.000 C 
ATOM      3  C   UNL     1      -2.103  47.836  26.594  0.00  0.00    +0.000 C 
ATOM      4  C   UNL     1      -4.765  47.157  26.123  0.00  0.00    +0.000 C 
ATOM      5  C   UNL     1      -2.433  46.540  26.201  0.00  0.00    +0.000 C 
ATOM      6  C   UNL     1      -3.764  46.202  25.967  0.00  0.00    +0.000 C 
ATOM      7  O   UNL     1      -4.380  43.782  25.234  0.00  0.00    +0.000 OA
ATOM      8  C   UNL     1      -4.102  44.876  25.565  0.00  0.00    +0.000 C 
ENDROOT
BRANCH   1   9
ATOM      9  C   UNL     1      -2.757  50.157  27.163  0.00  0.00    +0.000 C 
ATOM     10  C   UNL     1      -1.378  50.724  26.932  0.00  0.00    +0.000 C 
ATOM     11  C   UNL     1      -3.763  51.056  27.838  0.00  0.00    +0.000 C 
ENDBRANCH   1   9
TORSDOF 1
ENDMDL
MODEL 3
REMARK VINA RESULT:      -4.6     20.103     21.388
REMARK  Name = 326_Cuminaldehyde.pdb
REMARK  1 active torsions:
REMARK  status: ('A' for Active; 'I' for Inactive)
REMARK    1  A    between atoms: C_1  and  C_7
REMARK                            x       y       z     vdW  Elec       q    Type
REMARK                         _______ _______ _______ _____ _____    ______ ____
ROOT
ATOM      1  C   UNL     1     -24.887  35.656  19.171  0.00  0.00    +0.000 C 
ATOM      2  C   UNL     1     -25.831  36.354  19.928  0.00  0.00    +0.000 C 
ATOM      3  C   UNL     1     -23.660  36.257  18.879  0.00  0.00    +0.000 C 
ATOM      4  C   UNL     1     -25.551  37.638  20.390  0.00  0.00    +0.000 C 
ATOM      5  C   UNL     1     -23.379  37.542  19.340  0.00  0.00    +0.000 C 
ATOM      6  C   UNL     1     -24.326  38.231  20.095  0.00  0.00    +0.000 C 
ATOM      7  O   UNL     1     -23.802  40.630  20.956  0.00  0.00    +0.000 OA
ATOM      8  C   UNL     1     -24.039  39.546  20.567  0.00  0.00    +0.000 C 
ENDROOT
BRANCH   1   9
ATOM      9  C   UNL     1     -25.181  34.310  18.688  0.00  0.00    +0.000 C 
ATOM     10  C   UNL     1     -24.864  33.089  19.515  0.00  0.00    +0.000 C 
ATOM     11  C   UNL     1     -25.816  34.078  17.339  0.00  0.00    +0.000 C 
ENDBRANCH   1   9
TORSDOF 1
ENDMDL
MODEL 4
REMARK VINA RESULT:      -4.5     22.380     23.153
REMARK  Name = 326_Cuminaldehyde.pdb
REMARK  1 active torsions:
REMARK  status: ('A' for Active; 'I' for Inactive)
REMARK    1  A    between atoms: C_1  and  C_7
REMARK                            x       y       z     vdW  Elec       q    Type
REMARK                         _______ _______ _______ _____ _____    ______ ____
ROOT
ATOM      1  C   UNL     1     -16.073  40.337   5.744  0.00  0.00    +0.000 C 
ATOM      2  C   UNL     1     -15.069  39.369   5.822  0.00  0.00    +0.000 C 
ATOM      3  C   UNL     1     -17.407  39.959   5.919  0.00  0.00    +0.000 C 
ATOM      4  C   UNL     1     -15.394  38.037   6.074  0.00  0.00    +0.000 C 
ATOM      5  C   UNL     1     -17.733  38.627   6.170  0.00  0.00    +0.000 C 
ATOM      6  C   UNL     1     -16.725  37.668   6.247  0.00  0.00    +0.000 C 
ATOM      7  O   UNL     1     -17.334  35.182   6.716  0.00  0.00    +0.000 OA
ATOM      8  C   UNL     1     -17.059  36.305   6.504  0.00  0.00    +0.000 C 
ENDROOT
BRANCH   1   9
ATOM      9  C   UNL     1     -15.732  41.732   5.481  0.00  0.00    +0.000 C 
ATOM     10  C   UNL     1     -14.356  42.130   5.009  0.00  0.00    +0.000 C 
ATOM     11  C   UNL     1     -16.739  42.838   5.669  0.00  0.00    +0.000 C 
ENDBRANCH   1   9
TORSDOF 1
ENDMDL
MODEL 5
REMARK VINA RESULT:      -4.5     22.454     23.112
REMARK  Name = 326_Cuminaldehyde.pdb
REMARK  1 active torsions:
REMARK  status: ('A' for Active; 'I' for Inactive)
REMARK    1  A    between atoms: C_1  and  C_7
REMARK                            x       y       z     vdW  Elec       q    Type
REMARK                         _______ _______ _______ _____ _____    ______ ____
ROOT
ATOM      1  C   UNL     1     -16.124  40.519   5.637  0.00  0.00    +0.000 C 
ATOM      2  C   UNL     1     -17.462  40.156   5.810  0.00  0.00    +0.000 C 
ATOM      3  C   UNL     1     -15.126  39.553   5.785  0.00  0.00    +0.000 C 
ATOM      4  C   UNL     1     -17.799  38.841   6.126  0.00  0.00    +0.000 C 
ATOM      5  C   UNL     1     -15.462  38.237   6.101  0.00  0.00    +0.000 C 
ATOM      6  C   UNL     1     -16.799  37.884   6.272  0.00  0.00    +0.000 C 
ATOM      7  O   UNL     1     -17.426  35.428   6.863  0.00  0.00    +0.000 OA
ATOM      8  C   UNL     1     -17.142  36.538   6.596  0.00  0.00    +0.000 C 
ENDROOT
BRANCH   1   9
ATOM      9  C   UNL     1     -15.772  41.896   5.306  0.00  0.00    +0.000 C 
ATOM     10  C   UNL     1     -16.787  43.009   5.383  0.00  0.00    +0.000 C 
ATOM     11  C   UNL     1     -14.377  42.269   4.870  0.00  0.00    +0.000 C 
ENDBRANCH   1   9
TORSDOF 1
ENDMDL
MODEL 6
REMARK VINA RESULT:      -4.4     22.299     22.902
REMARK  Name = 326_Cuminaldehyde.pdb
REMARK  1 active torsions:
REMARK  status: ('A' for Active; 'I' for Inactive)
REMARK    1  A    between atoms: C_1  and  C_7
REMARK                            x       y       z     vdW  Elec       q    Type
REMARK                         _______ _______ _______ _____ _____    ______ ____
ROOT
ATOM      1  C   UNL     1     -16.858  38.581   6.119  0.00  0.00    +0.000 C 
ATOM      2  C   UNL     1     -17.991  39.383   5.957  0.00  0.00    +0.000 C 
ATOM      3  C   UNL     1     -15.589  39.148   5.979  0.00  0.00    +0.000 C 
ATOM      4  C   UNL     1     -17.856  40.738   5.660  0.00  0.00    +0.000 C 
ATOM      5  C   UNL     1     -15.454  40.503   5.681  0.00  0.00    +0.000 C 
ATOM      6  C   UNL     1     -16.588  41.296   5.522  0.00  0.00    +0.000 C 
ATOM      7  O   UNL     1     -16.336  43.826   4.966  0.00  0.00    +0.000 OA
ATOM      8  C   UNL     1     -16.450  42.683   5.217  0.00  0.00    +0.000 C 
ENDROOT
BRANCH   1   9
ATOM      9  C   UNL     1     -17.000  37.162   6.430  0.00  0.00    +0.000 C 
ATOM     10  C   UNL     1     -17.977  36.678   7.473  0.00  0.00    +0.000 C 
ATOM     11  C   UNL     1     -16.176  36.115   5.724  0.00  0.00    +0.000 C 
ENDBRANCH   1   9
TORSDOF 1
ENDMDL
MODEL 7
REMARK VINA RESULT:      -4.3     19.958     21.471
REMARK  Name = 326_Cuminaldehyde.pdb
REMARK  1 active torsions:
REMARK  status: ('A' for Active; 'I' for Inactive)
REMARK    1  A    between atoms: C_1  and  C_7
REMARK                            x       y       z     vdW  Elec       q    Type
REMARK                         _______ _______ _______ _____ _____    ______ ____
ROOT
ATOM      1  C   UNL     1     -24.644  38.233  19.718  0.00  0.00    +0.000 C 
ATOM      2  C   UNL     1     -23.532  37.492  19.311  0.00  0.00    +0.000 C 
ATOM      3  C   UNL     1     -25.853  37.578  19.966  0.00  0.00    +0.000 C 
ATOM      4  C   UNL     1     -23.626  36.110  19.157  0.00  0.00    +0.000 C 
ATOM      5  C   UNL     1     -25.948  36.196  19.811  0.00  0.00    +0.000 C 
ATOM      6  C   UNL     1     -24.833  35.464  19.407  0.00  0.00    +0.000 C 
ATOM      7  O   UNL     1     -25.010  32.884  19.118  0.00  0.00    +0.000 OA
ATOM      8  C   UNL     1     -24.930  34.050  19.248  0.00  0.00    +0.000 C 
ENDROOT
BRANCH   1   9
ATOM      9  C   UNL     1     -24.545  39.681  19.880  0.00  0.00    +0.000 C 
ATOM     10  C   UNL     1     -23.807  40.294  21.043  0.00  0.00    +0.000 C 
ATOM     11  C   UNL     1     -25.177  40.629  18.892  0.00  0.00    +0.000 C 
ENDBRANCH   1   9
TORSDOF 1
ENDMDL
MODEL 8
REMARK VINA RESULT:      -4.3     22.389     23.065
REMARK  Name = 326_Cuminaldehyde.pdb
REMARK  1 active torsions:
REMARK  status: ('A' for Active; 'I' for Inactive)
REMARK    1  A    between atoms: C_1  and  C_7
REMARK                            x       y       z     vdW  Elec       q    Type
REMARK                         _______ _______ _______ _____ _____    ______ ____
ROOT
ATOM      1  C   UNL     1     -17.605  38.160   6.662  0.00  0.00    +0.000 C 
ATOM      2  C   UNL     1     -16.236  37.887   6.609  0.00  0.00    +0.000 C 
ATOM      3  C   UNL     1     -18.077  39.396   6.214  0.00  0.00    +0.000 C 
ATOM      4  C   UNL     1     -15.348  38.840   6.111  0.00  0.00    +0.000 C 
ATOM      5  C   UNL     1     -17.190  40.350   5.717  0.00  0.00    +0.000 C 
ATOM      6  C   UNL     1     -15.826  40.069   5.666  0.00  0.00    +0.000 C 
ATOM      7  O   UNL     1     -14.170  41.849   4.738  0.00  0.00    +0.000 OA
ATOM      8  C   UNL     1     -14.918  41.045   5.157  0.00  0.00    +0.000 C 
ENDROOT
BRANCH   1   9
ATOM      9  C   UNL     1     -18.534  37.162   7.183  0.00  0.00    +0.000 C 
ATOM     10  C   UNL     1     -18.095  35.746   7.461  0.00  0.00    +0.000 C 
ATOM     11  C   UNL     1     -19.976  37.501   7.468  0.00  0.00    +0.000 C 
ENDBRANCH   1   9
TORSDOF 1
ENDMDL
MODEL 9
REMARK VINA RESULT:      -4.3     12.476     13.305
REMARK  Name = 326_Cuminaldehyde.pdb
REMARK  1 active torsions:
REMARK  status: ('A' for Active; 'I' for Inactive)
REMARK    1  A    between atoms: C_1  and  C_7
REMARK                            x       y       z     vdW  Elec       q    Type
REMARK                         _______ _______ _______ _____ _____    ______ ____
ROOT
ATOM      1  C   UNL     1      -1.759  39.019  33.756  0.00  0.00    +0.000 C 
ATOM      2  C   UNL     1      -0.542  38.715  33.141  0.00  0.00    +0.000 C 
ATOM      3  C   UNL     1      -2.046  40.344  34.092  0.00  0.00    +0.000 C 
ATOM      4  C   UNL     1       0.378  39.725  32.863  0.00  0.00    +0.000 C 
ATOM      5  C   UNL     1      -1.127  41.355  33.815  0.00  0.00    +0.000 C 
ATOM      6  C   UNL     1       0.084  41.044  33.201  0.00  0.00    +0.000 C 
ATOM      7  O   UNL     1       1.800  42.930  32.685  0.00  0.00    +0.000 OA
ATOM      8  C   UNL     1       1.025  42.078  32.918  0.00  0.00    +0.000 C 
ENDROOT
BRANCH   1   9
ATOM      9  C   UNL     1      -2.722  37.961  34.045  0.00  0.00    +0.000 C 
ATOM     10  C   UNL     1      -4.187  38.260  34.239  0.00  0.00    +0.000 C 
ATOM     11  C   UNL     1      -2.295  36.519  34.164  0.00  0.00    +0.000 C 
ENDBRANCH   1   9
TORSDOF 1
ENDMDL
