MODEL 1
REMARK VINA RESULT:      -5.1      0.000      0.000
REMARK  Name = 3363_5FluorouracilDeoxyriboside.pdbqt.pdb
REMARK  4 active torsions:
REMARK  status: ('A' for Active; 'I' for Inactive)
REMARK    1  A    between atoms: N_4  and  C1*_13
REMARK    2  A    between atoms: C3*_12  and  O3*_16
REMARK    3  A    between atoms: C4*_15  and  C5*_18
REMARK    4  A    between atoms: C5*_18  and  O5*_19
REMARK                            x       y       z     vdW  Elec       q    Type
REMARK                         _______ _______ _______ _____ _____    ______ ____
ROOT
ATOM      1  F   UNL     1      11.281  35.949   7.421  0.00  0.00    +0.000 F 
ATOM      2  O   UNL     1       8.093  38.809  10.763  0.00  0.00    +0.000 OA
ATOM      3  O   UNL     1      10.950  35.271  10.148  0.00  0.00    +0.000 OA
ATOM      4  N   UNL     1       9.201  38.629   8.675  0.00  0.00    +0.000 N 
ATOM      5  N   UNL     1       9.593  37.110  10.426  0.00  0.00    +0.000 N 
ATOM      6  C   UNL     1       8.882  38.260  10.004  0.00  0.00    +0.000 C 
ATOM      7  C   UNL     1      10.102  37.865   8.024  0.00  0.00    +0.000 C 
ATOM      8  C   UNL     1      10.792  36.817   8.323  0.00  0.00    +0.000 C 
ATOM      9  C   UNL     1      10.482  36.309   9.698  0.00  0.00    +0.000 C 
ATOM     10  H   UNL     1       9.368  36.786  11.356  0.00  0.00    +0.000 HD
ENDROOT
BRANCH   4  13
ATOM     11  O4* UNL     1       7.368  39.630   7.453  0.00  0.00    +0.000 OA
ATOM     12  C3* UNL     1       8.254  41.743   7.103  0.00  0.00    +0.000 A 
ATOM     13  C1* UNL     1       8.646  39.694   8.023  0.00  0.00    +0.000 A 
ATOM     14  C2* UNL     1       9.189  40.978   7.823  0.00  0.00    +0.000 A 
ATOM     15  C4* UNL     1       7.116  40.884   6.883  0.00  0.00    +0.000 A 
BRANCH  12  16
ATOM     16  O3* UNL     1       8.125  43.097   7.236  0.00  0.00    +0.000 OA
ATOM     17  H3* UNL     1       8.730  43.583   6.647  0.00  0.00    +0.000 HD
ENDBRANCH  12  16
BRANCH  15  18
ATOM     18  C5* UNL     1       5.848  41.249   6.391  0.00  0.00    +0.000 C 
BRANCH  18  19
ATOM     19  O5* UNL     1       4.645  41.574   5.928  0.00  0.00    +0.000 OA
ATOM     20  H5* UNL     1       4.488  42.530   6.021  0.00  0.00    +0.000 HD
ENDBRANCH  18  19
ENDBRANCH  15  18
ENDBRANCH   4  13
TORSDOF 4
ENDMDL
MODEL 2
REMARK VINA RESULT:      -4.9     24.787     26.240
REMARK  Name = 3363_5FluorouracilDeoxyriboside.pdbqt.pdb
REMARK  4 active torsions:
REMARK  status: ('A' for Active; 'I' for Inactive)
REMARK    1  A    between atoms: N_4  and  C1*_13
REMARK    2  A    between atoms: C3*_12  and  O3*_16
REMARK    3  A    between atoms: C4*_15  and  C5*_18
REMARK    4  A    between atoms: C5*_18  and  O5*_19
REMARK                            x       y       z     vdW  Elec       q    Type
REMARK                         _______ _______ _______ _____ _____    ______ ____
ROOT
ATOM      1  F   UNL     1      -8.894  51.713  25.550  0.00  0.00    +0.000 F 
ATOM      2  O   UNL     1     -10.242  46.574  24.416  0.00  0.00    +0.000 OA
ATOM      3  O   UNL     1     -11.173  51.049  24.011  0.00  0.00    +0.000 OA
ATOM      4  N   UNL     1      -8.644  48.118  25.243  0.00  0.00    +0.000 N 
ATOM      5  N   UNL     1     -10.614  48.821  24.168  0.00  0.00    +0.000 N 
ATOM      6  C   UNL     1      -9.842  47.717  24.604  0.00  0.00    +0.000 C 
ATOM      7  C   UNL     1      -8.414  49.443  25.341  0.00  0.00    +0.000 C 
ATOM      8  C   UNL     1      -9.048  50.507  24.979  0.00  0.00    +0.000 C 
ATOM      9  C   UNL     1     -10.366  50.189  24.341  0.00  0.00    +0.000 C 
ATOM     10  H   UNL     1     -11.498  48.584  23.742  0.00  0.00    +0.000 HD
ENDROOT
BRANCH   4  13
ATOM     11  O4* UNL     1      -6.641  46.781  25.015  0.00  0.00    +0.000 OA
ATOM     12  C3* UNL     1      -6.552  45.863  27.141  0.00  0.00    +0.000 A 
ATOM     13  C1* UNL     1      -7.728  47.249  25.764  0.00  0.00    +0.000 A 
ATOM     14  C2* UNL     1      -7.677  46.703  27.061  0.00  0.00    +0.000 A 
ATOM     15  C4* UNL     1      -5.910  45.928  25.851  0.00  0.00    +0.000 A 
BRANCH  12  16
ATOM     16  O3* UNL     1      -5.845  45.657  28.293  0.00  0.00    +0.000 OA
ATOM     17  H3* UNL     1      -4.933  45.365  28.116  0.00  0.00    +0.000 HD
ENDBRANCH  12  16
BRANCH  15  18
ATOM     18  C5* UNL     1      -4.642  45.427  25.497  0.00  0.00    +0.000 C 
BRANCH  18  19
ATOM     19  O5* UNL     1      -3.438  44.974  25.163  0.00  0.00    +0.000 OA
ATOM     20  H5* UNL     1      -3.445  44.618  24.257  0.00  0.00    +0.000 HD
ENDBRANCH  18  19
ENDBRANCH  15  18
ENDBRANCH   4  13
TORSDOF 4
ENDMDL
MODEL 3
REMARK VINA RESULT:      -4.7     18.182     19.724
REMARK  Name = 3363_5FluorouracilDeoxyriboside.pdbqt.pdb
REMARK  4 active torsions:
REMARK  status: ('A' for Active; 'I' for Inactive)
REMARK    1  A    between atoms: N_4  and  C1*_13
REMARK    2  A    between atoms: C3*_12  and  O3*_16
REMARK    3  A    between atoms: C4*_15  and  C5*_18
REMARK    4  A    between atoms: C5*_18  and  O5*_19
REMARK                            x       y       z     vdW  Elec       q    Type
REMARK                         _______ _______ _______ _____ _____    ______ ____
ROOT
ATOM      1  F   UNL     1       7.067  56.385  21.010  0.00  0.00    +0.000 F 
ATOM      2  O   UNL     1       2.250  55.761  18.577  0.00  0.00    +0.000 OA
ATOM      3  O   UNL     1       4.691  57.523  22.041  0.00  0.00    +0.000 OA
ATOM      4  N   UNL     1       4.610  55.545  18.494  0.00  0.00    +0.000 N 
ATOM      5  N   UNL     1       3.526  56.692  20.237  0.00  0.00    +0.000 N 
ATOM      6  C   UNL     1       3.370  55.966  19.032  0.00  0.00    +0.000 C 
ATOM      7  C   UNL     1       5.722  55.884  19.176  0.00  0.00    +0.000 C 
ATOM      8  C   UNL     1       5.960  56.535  20.264  0.00  0.00    +0.000 C 
ATOM      9  C   UNL     1       4.701  56.976  20.946  0.00  0.00    +0.000 C 
ATOM     10  H   UNL     1       2.665  56.979  20.679  0.00  0.00    +0.000 HD
ENDROOT
BRANCH   4  13
ATOM     11  O4* UNL     1       3.834  54.950  16.281  0.00  0.00    +0.000 OA
ATOM     12  C3* UNL     1       5.453  53.391  15.716  0.00  0.00    +0.000 A 
ATOM     13  C1* UNL     1       4.737  54.819  17.344  0.00  0.00    +0.000 A 
ATOM     14  C2* UNL     1       5.730  53.879  17.006  0.00  0.00    +0.000 A 
ATOM     15  C4* UNL     1       4.264  54.077  15.274  0.00  0.00    +0.000 A 
BRANCH  12  16
ATOM     16  O3* UNL     1       6.420  52.980  14.842  0.00  0.00    +0.000 OA
ATOM     17  H3* UNL     1       6.713  52.069  15.021  0.00  0.00    +0.000 HD
ENDBRANCH  12  16
BRANCH  15  18
ATOM     18  C5* UNL     1       3.708  54.085  13.979  0.00  0.00    +0.000 C 
BRANCH  18  19
ATOM     19  O5* UNL     1       3.204  54.088  12.750  0.00  0.00    +0.000 OA
ATOM     20  H5* UNL     1       2.350  54.553  12.730  0.00  0.00    +0.000 HD
ENDBRANCH  18  19
ENDBRANCH  15  18
ENDBRANCH   4  13
TORSDOF 4
ENDMDL
MODEL 4
REMARK VINA RESULT:      -4.6     24.508     25.450
REMARK  Name = 3363_5FluorouracilDeoxyriboside.pdbqt.pdb
REMARK  4 active torsions:
REMARK  status: ('A' for Active; 'I' for Inactive)
REMARK    1  A    between atoms: N_4  and  C1*_13
REMARK    2  A    between atoms: C3*_12  and  O3*_16
REMARK    3  A    between atoms: C4*_15  and  C5*_18
REMARK    4  A    between atoms: C5*_18  and  O5*_19
REMARK                            x       y       z     vdW  Elec       q    Type
REMARK                         _______ _______ _______ _____ _____    ______ ____
ROOT
ATOM      1  F   UNL     1     -15.326  36.045   2.762  0.00  0.00    +0.000 F 
ATOM      2  O   UNL     1     -17.360  37.934   7.432  0.00  0.00    +0.000 OA
ATOM      3  O   UNL     1     -16.105  34.334   4.876  0.00  0.00    +0.000 OA
ATOM      4  N   UNL     1     -16.260  38.363   5.376  0.00  0.00    +0.000 N 
ATOM      5  N   UNL     1     -16.637  36.176   6.152  0.00  0.00    +0.000 N 
ATOM      6  C   UNL     1     -16.798  37.559   6.409  0.00  0.00    +0.000 C 
ATOM      7  C   UNL     1     -15.690  37.725   4.334  0.00  0.00    +0.000 C 
ATOM      8  C   UNL     1     -15.497  36.489   4.018  0.00  0.00    +0.000 C 
ATOM      9  C   UNL     1     -16.086  35.549   5.026  0.00  0.00    +0.000 C 
ATOM     10  H   UNL     1     -17.042  35.561   6.844  0.00  0.00    +0.000 HD
ENDROOT
BRANCH   4  13
ATOM     11  O4* UNL     1     -17.496  40.440   5.496  0.00  0.00    +0.000 OA
ATOM     12  C3* UNL     1     -15.738  41.939   5.322  0.00  0.00    +0.000 A 
ATOM     13  C1* UNL     1     -16.295  39.729   5.374  0.00  0.00    +0.000 A 
ATOM     14  C2* UNL     1     -15.220  40.633   5.276  0.00  0.00    +0.000 A 
ATOM     15  C4* UNL     1     -17.166  41.800   5.465  0.00  0.00    +0.000 A 
BRANCH  12  16
ATOM     16  O3* UNL     1     -15.057  43.003   5.846  0.00  0.00    +0.000 OA
ATOM     17  H3* UNL     1     -15.104  43.025   6.818  0.00  0.00    +0.000 HD
ENDBRANCH  12  16
BRANCH  15  18
ATOM     18  C5* UNL     1     -18.102  42.811   5.759  0.00  0.00    +0.000 C 
BRANCH  18  19
ATOM     19  O5* UNL     1     -18.990  43.766   6.016  0.00  0.00    +0.000 OA
ATOM     20  H5* UNL     1     -19.611  43.866   5.274  0.00  0.00    +0.000 HD
ENDBRANCH  18  19
ENDBRANCH  15  18
ENDBRANCH   4  13
TORSDOF 4
ENDMDL
MODEL 5
REMARK VINA RESULT:      -4.4     25.920     27.646
REMARK  Name = 3363_5FluorouracilDeoxyriboside.pdbqt.pdb
REMARK  4 active torsions:
REMARK  status: ('A' for Active; 'I' for Inactive)
REMARK    1  A    between atoms: N_4  and  C1*_13
REMARK    2  A    between atoms: C3*_12  and  O3*_16
REMARK    3  A    between atoms: C4*_15  and  C5*_18
REMARK    4  A    between atoms: C5*_18  and  O5*_19
REMARK                            x       y       z     vdW  Elec       q    Type
REMARK                         _______ _______ _______ _____ _____    ______ ____
ROOT
ATOM      1  F   UNL     1     -18.356  34.519   5.388  0.00  0.00    +0.000 F 
ATOM      2  O   UNL     1     -20.617  38.637   8.116  0.00  0.00    +0.000 OA
ATOM      3  O   UNL     1     -20.405  34.126   7.299  0.00  0.00    +0.000 OA
ATOM      4  N   UNL     1     -18.887  37.846   6.702  0.00  0.00    +0.000 N 
ATOM      5  N   UNL     1     -20.411  36.387   7.737  0.00  0.00    +0.000 N 
ATOM      6  C   UNL     1     -20.007  37.732   7.559  0.00  0.00    +0.000 C 
ATOM      7  C   UNL     1     -18.381  36.703   6.195  0.00  0.00    +0.000 C 
ATOM      8  C   UNL     1     -18.676  35.452   6.300  0.00  0.00    +0.000 C 
ATOM      9  C   UNL     1     -19.892  35.227   7.146  0.00  0.00    +0.000 C 
ATOM     10  H   UNL     1     -21.233  36.259   8.310  0.00  0.00    +0.000 HD
ENDROOT
BRANCH   4  13
ATOM     11  O4* UNL     1     -19.065  40.180   6.088  0.00  0.00    +0.000 OA
ATOM     12  C3* UNL     1     -16.815  40.687   5.862  0.00  0.00    +0.000 A 
ATOM     13  C1* UNL     1     -18.306  39.034   6.357  0.00  0.00    +0.000 A 
ATOM     14  C2* UNL     1     -16.936  39.335   6.230  0.00  0.00    +0.000 A 
ATOM     15  C4* UNL     1     -18.160  41.203   5.782  0.00  0.00    +0.000 A 
BRANCH  12  16
ATOM     16  O3* UNL     1     -15.757  41.475   6.219  0.00  0.00    +0.000 OA
ATOM     17  H3* UNL     1     -14.909  41.118   5.900  0.00  0.00    +0.000 HD
ENDBRANCH  12  16
BRANCH  15  18
ATOM     18  C5* UNL     1     -18.557  42.549   5.649  0.00  0.00    +0.000 C 
BRANCH  18  19
ATOM     19  O5* UNL     1     -18.924  43.821   5.543  0.00  0.00    +0.000 OA
ATOM     20  H5* UNL     1     -18.155  44.386   5.353  0.00  0.00    +0.000 HD
ENDBRANCH  18  19
ENDBRANCH  15  18
ENDBRANCH   4  13
TORSDOF 4
ENDMDL
MODEL 6
REMARK VINA RESULT:      -4.3     19.337     21.116
REMARK  Name = 3363_5FluorouracilDeoxyriboside.pdbqt.pdb
REMARK  4 active torsions:
REMARK  status: ('A' for Active; 'I' for Inactive)
REMARK    1  A    between atoms: N_4  and  C1*_13
REMARK    2  A    between atoms: C3*_12  and  O3*_16
REMARK    3  A    between atoms: C4*_15  and  C5*_18
REMARK    4  A    between atoms: C5*_18  and  O5*_19
REMARK                            x       y       z     vdW  Elec       q    Type
REMARK                         _______ _______ _______ _____ _____    ______ ____
ROOT
ATOM      1  F   UNL     1       7.352  29.801  26.096  0.00  0.00    +0.000 F 
ATOM      2  O   UNL     1       4.519  34.274  27.312  0.00  0.00    +0.000 OA
ATOM      3  O   UNL     1       8.405  32.403  25.743  0.00  0.00    +0.000 OA
ATOM      4  N   UNL     1       4.561  31.929  26.969  0.00  0.00    +0.000 N 
ATOM      5  N   UNL     1       6.404  33.294  26.453  0.00  0.00    +0.000 N 
ATOM      6  C   UNL     1       5.079  33.246  26.951  0.00  0.00    +0.000 C 
ATOM      7  C   UNL     1       5.369  30.944  26.526  0.00  0.00    +0.000 C 
ATOM      8  C   UNL     1       6.570  30.893  26.059  0.00  0.00    +0.000 C 
ATOM      9  C   UNL     1       7.232  32.237  26.053  0.00  0.00    +0.000 C 
ATOM     10  H   UNL     1       6.830  34.210  26.458  0.00  0.00    +0.000 HD
ENDROOT
BRANCH   4  13
ATOM     11  O4* UNL     1       2.242  31.396  26.532  0.00  0.00    +0.000 OA
ATOM     12  C3* UNL     1       1.505  31.089  28.707  0.00  0.00    +0.000 A 
ATOM     13  C1* UNL     1       3.310  31.606  27.413  0.00  0.00    +0.000 A 
ATOM     14  C2* UNL     1       2.873  31.413  28.738  0.00  0.00    +0.000 A 
ATOM     15  C4* UNL     1       1.126  31.077  27.315  0.00  0.00    +0.000 A 
BRANCH  12  16
ATOM     16  O3* UNL     1       0.900  30.282  29.629  0.00  0.00    +0.000 OA
ATOM     17  H3* UNL     1       1.145  29.346  29.515  0.00  0.00    +0.000 HD
ENDBRANCH  12  16
BRANCH  15  18
ATOM     18  C5* UNL     1      -0.081  30.612  26.758  0.00  0.00    +0.000 C 
BRANCH  18  19
ATOM     19  O5* UNL     1      -1.224  30.192  26.225  0.00  0.00    +0.000 OA
ATOM     20  H5* UNL     1      -1.340  30.556  25.330  0.00  0.00    +0.000 HD
ENDBRANCH  18  19
ENDBRANCH  15  18
ENDBRANCH   4  13
TORSDOF 4
ENDMDL
MODEL 7
REMARK VINA RESULT:      -4.3     17.965     19.467
REMARK  Name = 3363_5FluorouracilDeoxyriboside.pdbqt.pdb
REMARK  4 active torsions:
REMARK  status: ('A' for Active; 'I' for Inactive)
REMARK    1  A    between atoms: N_4  and  C1*_13
REMARK    2  A    between atoms: C3*_12  and  O3*_16
REMARK    3  A    between atoms: C4*_15  and  C5*_18
REMARK    4  A    between atoms: C5*_18  and  O5*_19
REMARK                            x       y       z     vdW  Elec       q    Type
REMARK                         _______ _______ _______ _____ _____    ______ ____
ROOT
ATOM      1  F   UNL     1       5.161  57.746  20.949  0.00  0.00    +0.000 F 
ATOM      2  O   UNL     1       7.562  54.270  17.533  0.00  0.00    +0.000 OA
ATOM      3  O   UNL     1       7.891  57.038  21.179  0.00  0.00    +0.000 OA
ATOM      4  N   UNL     1       5.569  55.245  18.368  0.00  0.00    +0.000 N 
ATOM      5  N   UNL     1       7.653  55.595  19.400  0.00  0.00    +0.000 N 
ATOM      6  C   UNL     1       6.956  54.962  18.342  0.00  0.00    +0.000 C 
ATOM      7  C   UNL     1       5.123  56.045  19.359  0.00  0.00    +0.000 C 
ATOM      8  C   UNL     1       5.673  56.656  20.352  0.00  0.00    +0.000 C 
ATOM      9  C   UNL     1       7.159  56.467  20.380  0.00  0.00    +0.000 C 
ATOM     10  H   UNL     1       8.653  55.454  19.399  0.00  0.00    +0.000 HD
ENDROOT
BRANCH   4  13
ATOM     11  O4* UNL     1       4.807  55.023  16.083  0.00  0.00    +0.000 OA
ATOM     12  C3* UNL     1       2.925  53.719  16.434  0.00  0.00    +0.000 A 
ATOM     13  C1* UNL     1       4.674  54.767  17.454  0.00  0.00    +0.000 A 
ATOM     14  C2* UNL     1       3.537  53.967  17.675  0.00  0.00    +0.000 A 
ATOM     15  C4* UNL     1       3.738  54.384  15.445  0.00  0.00    +0.000 A 
BRANCH  12  16
ATOM     16  O3* UNL     1       2.229  52.577  16.151  0.00  0.00    +0.000 OA
ATOM     17  H3* UNL     1       1.415  52.758  15.648  0.00  0.00    +0.000 HD
ENDBRANCH  12  16
BRANCH  15  18
ATOM     18  C5* UNL     1       3.656  54.262  14.044  0.00  0.00    +0.000 C 
BRANCH  18  19
ATOM     19  O5* UNL     1       3.565  54.132  12.725  0.00  0.00    +0.000 OA
ATOM     20  H5* UNL     1       3.144  53.286  12.491  0.00  0.00    +0.000 HD
ENDBRANCH  18  19
ENDBRANCH  15  18
ENDBRANCH   4  13
TORSDOF 4
ENDMDL
MODEL 8
REMARK VINA RESULT:      -4.2      2.548      2.954
REMARK  Name = 3363_5FluorouracilDeoxyriboside.pdbqt.pdb
REMARK  4 active torsions:
REMARK  status: ('A' for Active; 'I' for Inactive)
REMARK    1  A    between atoms: N_4  and  C1*_13
REMARK    2  A    between atoms: C3*_12  and  O3*_16
REMARK    3  A    between atoms: C4*_15  and  C5*_18
REMARK    4  A    between atoms: C5*_18  and  O5*_19
REMARK                            x       y       z     vdW  Elec       q    Type
REMARK                         _______ _______ _______ _____ _____    ______ ____
ROOT
ATOM      1  F   UNL     1      12.411  39.112   7.587  0.00  0.00    +0.000 F 
ATOM      2  O   UNL     1       7.994  40.978  10.139  0.00  0.00    +0.000 OA
ATOM      3  O   UNL     1      12.462  39.940  10.292  0.00  0.00    +0.000 OA
ATOM      4  N   UNL     1       9.059  40.362   8.113  0.00  0.00    +0.000 N 
ATOM      5  N   UNL     1      10.240  40.528  10.138  0.00  0.00    +0.000 N 
ATOM      6  C   UNL     1       8.985  40.655   9.496  0.00  0.00    +0.000 C 
ATOM      7  C   UNL     1      10.267  40.019   7.620  0.00  0.00    +0.000 C 
ATOM      8  C   UNL     1      11.448  39.881   8.120  0.00  0.00    +0.000 C 
ATOM      9  C   UNL     1      11.466  40.113   9.600  0.00  0.00    +0.000 C 
ATOM     10  H   UNL     1      10.229  40.689  11.136  0.00  0.00    +0.000 HD
ENDROOT
BRANCH   4  13
ATOM     11  O4* UNL     1       7.351  41.600   6.928  0.00  0.00    +0.000 OA
ATOM     12  C3* UNL     1       6.305  39.849   5.829  0.00  0.00    +0.000 A 
ATOM     13  C1* UNL     1       7.988  40.399   7.266  0.00  0.00    +0.000 A 
ATOM     14  C2* UNL     1       7.363  39.330   6.595  0.00  0.00    +0.000 A 
ATOM     15  C4* UNL     1       6.314  41.275   6.045  0.00  0.00    +0.000 A 
BRANCH  12  16
ATOM     16  O3* UNL     1       5.885  39.297   4.651  0.00  0.00    +0.000 OA
ATOM     17  H3* UNL     1       5.660  38.354   4.746  0.00  0.00    +0.000 HD
ENDBRANCH  12  16
BRANCH  15  18
ATOM     18  C5* UNL     1       5.583  42.254   5.344  0.00  0.00    +0.000 C 
BRANCH  18  19
ATOM     19  O5* UNL     1       4.879  43.163   4.678  0.00  0.00    +0.000 OA
ATOM     20  H5* UNL     1       3.927  42.970   4.735  0.00  0.00    +0.000 HD
ENDBRANCH  18  19
ENDBRANCH  15  18
ENDBRANCH   4  13
TORSDOF 4
ENDMDL
MODEL 9
REMARK VINA RESULT:      -4.2      1.994      3.031
REMARK  Name = 3363_5FluorouracilDeoxyriboside.pdbqt.pdb
REMARK  4 active torsions:
REMARK  status: ('A' for Active; 'I' for Inactive)
REMARK    1  A    between atoms: N_4  and  C1*_13
REMARK    2  A    between atoms: C3*_12  and  O3*_16
REMARK    3  A    between atoms: C4*_15  and  C5*_18
REMARK    4  A    between atoms: C5*_18  and  O5*_19
REMARK                            x       y       z     vdW  Elec       q    Type
REMARK                         _______ _______ _______ _____ _____    ______ ____
ROOT
ATOM      1  F   UNL     1       8.862  36.957   5.876  0.00  0.00    +0.000 F 
ATOM      2  O   UNL     1       8.219  40.828   9.632  0.00  0.00    +0.000 OA
ATOM      3  O   UNL     1       9.767  36.648   8.538  0.00  0.00    +0.000 OA
ATOM      4  N   UNL     1       8.139  40.177   7.354  0.00  0.00    +0.000 N 
ATOM      5  N   UNL     1       9.053  38.785   9.014  0.00  0.00    +0.000 N 
ATOM      6  C   UNL     1       8.439  40.029   8.730  0.00  0.00    +0.000 C 
ATOM      7  C   UNL     1       8.469  39.154   6.539  0.00  0.00    +0.000 C 
ATOM      8  C   UNL     1       9.024  38.001   6.704  0.00  0.00    +0.000 C 
ATOM      9  C   UNL     1       9.329  37.722   8.144  0.00  0.00    +0.000 C 
ATOM     10  H   UNL     1       9.249  38.618   9.991  0.00  0.00    +0.000 HD
ENDROOT
BRANCH   4  13
ATOM     11  O4* UNL     1       8.205  42.502   6.688  0.00  0.00    +0.000 OA
ATOM     12  C3* UNL     1       6.053  42.721   5.858  0.00  0.00    +0.000 A 
ATOM     13  C1* UNL     1       7.535  41.278   6.818  0.00  0.00    +0.000 A 
ATOM     14  C2* UNL     1       6.228  41.400   6.307  0.00  0.00    +0.000 A 
ATOM     15  C4* UNL     1       7.304  43.397   6.100  0.00  0.00    +0.000 A 
BRANCH  12  16
ATOM     16  O3* UNL     1       5.235  43.061   4.817  0.00  0.00    +0.000 OA
ATOM     17  H3* UNL     1       4.479  42.452   4.730  0.00  0.00    +0.000 HD
ENDBRANCH  12  16
BRANCH  15  18
ATOM     18  C5* UNL     1       7.695  44.670   5.639  0.00  0.00    +0.000 C 
BRANCH  18  19
ATOM     19  O5* UNL     1       8.072  45.875   5.224  0.00  0.00    +0.000 OA
ATOM     20  H5* UNL     1       8.425  46.398   5.964  0.00  0.00    +0.000 HD
ENDBRANCH  18  19
ENDBRANCH  15  18
ENDBRANCH   4  13
TORSDOF 4
ENDMDL
