REMARK  Name = 3363_5FluorouracilDeoxyriboside.pdbqt.pdb
REMARK  4 active torsions:
REMARK  status: ('A' for Active; 'I' for Inactive)
REMARK    1  A    between atoms: N_4  and  C1*_13
REMARK    2  A    between atoms: C3*_12  and  O3*_16
REMARK    3  A    between atoms: C4*_15  and  C5*_18
REMARK    4  A    between atoms: C5*_18  and  O5*_19
REMARK                            x       y       z     vdW  Elec       q    Type
REMARK                         _______ _______ _______ _____ _____    ______ ____
ROOT
ATOM      1  F   UNL     1      -3.070   2.524  -0.324  0.00  0.00    +0.000 F 
ATOM      2  O   UNL     1      -1.326  -2.549   0.533  0.00  0.00    +0.000 OA
ATOM      3  O   UNL     1      -4.847   0.349   0.015  0.00  0.00    +0.000 OA
ATOM      4  N   UNL     1      -0.840  -0.313  -0.087  0.00  0.00    +0.000 N 
ATOM      5  N   UNL     1      -3.047  -1.078   0.180  0.00  0.00    +0.000 N 
ATOM      6  C   UNL     1      -1.672  -1.413   0.231  0.00  0.00    +0.000 C 
ATOM      7  C   UNL     1      -1.449   0.853  -0.384  0.00  0.00    +0.000 C 
ATOM      8  C   UNL     1      -2.675   1.247  -0.457  0.00  0.00    +0.000 C 
ATOM      9  C   UNL     1      -3.640   0.165  -0.079  0.00  0.00    +0.000 C 
ATOM     10  H   UNL     1      -3.679  -1.822   0.439  0.00  0.00    +0.000 HD
ENDROOT
BRANCH   4  13
ATOM     11  O4* UNL     1       1.307   0.750  -0.425  0.00  0.00    +0.000 OA
ATOM     12  C3* UNL     1       2.698  -1.039   0.059  0.00  0.00    +0.000 A 
ATOM     13  C1* UNL     1       0.525  -0.366  -0.100  0.00  0.00    +0.000 A 
ATOM     14  C2* UNL     1       1.363  -1.456   0.204  0.00  0.00    +0.000 A 
ATOM     15  C4* UNL     1       2.645   0.349  -0.331  0.00  0.00    +0.000 A 
BRANCH  12  16
ATOM     16  O3* UNL     1       3.731  -1.545   0.797  0.00  0.00    +0.000 OA
ATOM     17  H3* UNL     1       4.529  -0.989   0.741  0.00  0.00    +0.000 HD
ENDBRANCH  12  16
BRANCH  15  18
ATOM     18  C5* UNL     1       3.715   1.263  -0.399  0.00  0.00    +0.000 C 
BRANCH  18  19
ATOM     19  O5* UNL     1       4.737   2.110  -0.456  0.00  0.00    +0.000 OA
ATOM     20  H5* UNL     1       4.444   2.981  -0.776  0.00  0.00    +0.000 HD
ENDBRANCH  18  19
ENDBRANCH  15  18
ENDBRANCH   4  13
TORSDOF 4
