MODEL 1
REMARK VINA RESULT:      -3.8      0.000      0.000
REMARK  Name = 3385_5Fluorouracil.pdbqt.pdb
REMARK  0 active torsions:
REMARK  status: ('A' for Active; 'I' for Inactive)
REMARK                            x       y       z     vdW  Elec       q    Type
REMARK                         _______ _______ _______ _____ _____    ______ ____
ROOT
ATOM      1  F   UNL     1     -16.091  41.331   6.951  0.00  0.00    +0.000 F 
ATOM      2  O   UNL     1     -18.143  43.075   6.074  0.00  0.00    +0.000 OA
ATOM      3  O   UNL     1     -15.610  44.256   2.404  0.00  0.00    +0.000 OA
ATOM      4  N   UNL     1     -16.845  43.711   4.283  0.00  0.00    +0.000 N 
ATOM      5  N   UNL     1     -14.692  42.887   4.013  0.00  0.00    +0.000 N 
ATOM      6  C   UNL     1     -17.064  43.041   5.495  0.00  0.00    +0.000 C 
ATOM      7  C   UNL     1     -15.701  43.670   3.473  0.00  0.00    +0.000 C 
ATOM      8  C   UNL     1     -15.884  42.268   6.012  0.00  0.00    +0.000 C 
ATOM      9  C   UNL     1     -14.887  42.281   5.193  0.00  0.00    +0.000 C 
ATOM     10  H   UNL     1     -17.625  44.238   3.919  0.00  0.00    +0.000 HD
ATOM     11  H   UNL     1     -13.824  42.788   3.502  0.00  0.00    +0.000 HD
ENDROOT
TORSDOF 0
ENDMDL
MODEL 2
REMARK VINA RESULT:      -3.7     21.218     21.691
REMARK  Name = 3385_5Fluorouracil.pdbqt.pdb
REMARK  0 active torsions:
REMARK  status: ('A' for Active; 'I' for Inactive)
REMARK                            x       y       z     vdW  Elec       q    Type
REMARK                         _______ _______ _______ _____ _____    ______ ____
ROOT
ATOM      1  F   UNL     1      -7.585  46.139  25.412  0.00  0.00    +0.000 F 
ATOM      2  O   UNL     1      -6.367  48.527  24.497  0.00  0.00    +0.000 OA
ATOM      3  O   UNL     1     -10.517  50.355  23.655  0.00  0.00    +0.000 OA
ATOM      4  N   UNL     1      -8.439  49.406  24.015  0.00  0.00    +0.000 N 
ATOM      5  N   UNL     1     -10.370  48.155  24.320  0.00  0.00    +0.000 N 
ATOM      6  C   UNL     1      -7.578  48.369  24.404  0.00  0.00    +0.000 C 
ATOM      7  C   UNL     1      -9.840  49.387  23.967  0.00  0.00    +0.000 C 
ATOM      8  C   UNL     1      -8.258  47.065  24.710  0.00  0.00    +0.000 C 
ATOM      9  C   UNL     1      -9.545  47.151  24.650  0.00  0.00    +0.000 C 
ATOM     10  H   UNL     1      -8.002  50.291  23.803  0.00  0.00    +0.000 HD
ATOM     11  H   UNL     1     -11.375  48.038  24.322  0.00  0.00    +0.000 HD
ENDROOT
TORSDOF 0
ENDMDL
MODEL 3
REMARK VINA RESULT:      -3.6     24.452     25.166
REMARK  Name = 3385_5Fluorouracil.pdbqt.pdb
REMARK  0 active torsions:
REMARK  status: ('A' for Active; 'I' for Inactive)
REMARK                            x       y       z     vdW  Elec       q    Type
REMARK                         _______ _______ _______ _____ _____    ______ ____
ROOT
ATOM      1  F   UNL     1      -2.356  46.116  25.429  0.00  0.00    +0.000 F 
ATOM      2  O   UNL     1      -4.128  43.951  24.987  0.00  0.00    +0.000 OA
ATOM      3  O   UNL     1      -6.753  45.341  28.517  0.00  0.00    +0.000 OA
ATOM      4  N   UNL     1      -5.394  44.611  26.793  0.00  0.00    +0.000 N 
ATOM      5  N   UNL     1      -4.762  46.421  28.100  0.00  0.00    +0.000 N 
ATOM      6  C   UNL     1      -4.269  44.684  25.959  0.00  0.00    +0.000 C 
ATOM      7  C   UNL     1      -5.724  45.450  27.866  0.00  0.00    +0.000 C 
ATOM      8  C   UNL     1      -3.268  45.737  26.340  0.00  0.00    +0.000 C 
ATOM      9  C   UNL     1      -3.666  46.464  27.329  0.00  0.00    +0.000 C 
ATOM     10  H   UNL     1      -6.079  43.909  26.555  0.00  0.00    +0.000 HD
ATOM     11  H   UNL     1      -4.908  47.083  28.852  0.00  0.00    +0.000 HD
ENDROOT
TORSDOF 0
ENDMDL
MODEL 4
REMARK VINA RESULT:      -3.6     21.309     21.944
REMARK  Name = 3385_5Fluorouracil.pdbqt.pdb
REMARK  0 active torsions:
REMARK  status: ('A' for Active; 'I' for Inactive)
REMARK                            x       y       z     vdW  Elec       q    Type
REMARK                         _______ _______ _______ _____ _____    ______ ____
ROOT
ATOM      1  F   UNL     1      -9.737  49.724  23.500  0.00  0.00    +0.000 F 
ATOM      2  O   UNL     1     -10.516  47.125  24.313  0.00  0.00    +0.000 OA
ATOM      3  O   UNL     1      -6.260  46.313  25.896  0.00  0.00    +0.000 OA
ATOM      4  N   UNL     1      -8.373  46.702  25.037  0.00  0.00    +0.000 N 
ATOM      5  N   UNL     1      -6.685  48.272  24.762  0.00  0.00    +0.000 N 
ATOM      6  C   UNL     1      -9.345  47.478  24.390  0.00  0.00    +0.000 C 
ATOM      7  C   UNL     1      -7.033  47.034  25.282  0.00  0.00    +0.000 C 
ATOM      8  C   UNL     1      -8.843  48.773  23.818  0.00  0.00    +0.000 C 
ATOM      9  C   UNL     1      -7.605  48.994  24.106  0.00  0.00    +0.000 C 
ATOM     10  H   UNL     1      -8.689  45.827  25.428  0.00  0.00    +0.000 HD
ATOM     11  H   UNL     1      -5.739  48.608  24.890  0.00  0.00    +0.000 HD
ENDROOT
TORSDOF 0
ENDMDL
MODEL 5
REMARK VINA RESULT:      -3.5      7.458      8.151
REMARK  Name = 3385_5Fluorouracil.pdbqt.pdb
REMARK  0 active torsions:
REMARK  status: ('A' for Active; 'I' for Inactive)
REMARK                            x       y       z     vdW  Elec       q    Type
REMARK                         _______ _______ _______ _____ _____    ______ ____
ROOT
ATOM      1  F   UNL     1     -20.470  39.222   7.882  0.00  0.00    +0.000 F 
ATOM      2  O   UNL     1     -22.013  36.875   7.520  0.00  0.00    +0.000 OA
ATOM      3  O   UNL     1     -18.203  34.291   7.809  0.00  0.00    +0.000 OA
ATOM      4  N   UNL     1     -20.099  35.598   7.596  0.00  0.00    +0.000 N 
ATOM      5  N   UNL     1     -18.009  36.586   7.798  0.00  0.00    +0.000 N 
ATOM      6  C   UNL     1     -20.790  36.818   7.553  0.00  0.00    +0.000 C 
ATOM      7  C   UNL     1     -18.719  35.397   7.738  0.00  0.00    +0.000 C 
ATOM      8  C   UNL     1     -19.915  38.040   7.570  0.00  0.00    +0.000 C 
ATOM      9  C   UNL     1     -18.666  37.752   7.715  0.00  0.00    +0.000 C 
ATOM     10  H   UNL     1     -20.668  34.764   7.584  0.00  0.00    +0.000 HD
ATOM     11  H   UNL     1     -17.003  36.550   7.906  0.00  0.00    +0.000 HD
ENDROOT
TORSDOF 0
ENDMDL
MODEL 6
REMARK VINA RESULT:      -3.5      2.376      3.480
REMARK  Name = 3385_5Fluorouracil.pdbqt.pdb
REMARK  0 active torsions:
REMARK  status: ('A' for Active; 'I' for Inactive)
REMARK                            x       y       z     vdW  Elec       q    Type
REMARK                         _______ _______ _______ _____ _____    ______ ____
ROOT
ATOM      1  F   UNL     1     -14.617  42.713   2.697  0.00  0.00    +0.000 F 
ATOM      2  O   UNL     1     -14.301  41.188   5.063  0.00  0.00    +0.000 OA
ATOM      3  O   UNL     1     -18.266  42.873   6.712  0.00  0.00    +0.000 OA
ATOM      4  N   UNL     1     -16.245  42.086   5.908  0.00  0.00    +0.000 N 
ATOM      5  N   UNL     1     -17.433  43.694   4.727  0.00  0.00    +0.000 N 
ATOM      6  C   UNL     1     -15.216  41.997   4.959  0.00  0.00    +0.000 C 
ATOM      7  C   UNL     1     -17.393  42.889   5.857  0.00  0.00    +0.000 C 
ATOM      8  C   UNL     1     -15.334  42.953   3.806  0.00  0.00    +0.000 C 
ATOM      9  C   UNL     1     -16.428  43.638   3.842  0.00  0.00    +0.000 C 
ATOM     10  H   UNL     1     -16.184  41.454   6.692  0.00  0.00    +0.000 HD
ATOM     11  H   UNL     1     -18.226  44.308   4.593  0.00  0.00    +0.000 HD
ENDROOT
TORSDOF 0
ENDMDL
MODEL 7
REMARK VINA RESULT:      -3.5     24.488     25.253
REMARK  Name = 3385_5Fluorouracil.pdbqt.pdb
REMARK  0 active torsions:
REMARK  status: ('A' for Active; 'I' for Inactive)
REMARK                            x       y       z     vdW  Elec       q    Type
REMARK                         _______ _______ _______ _____ _____    ______ ____
ROOT
ATOM      1  F   UNL     1       1.575  29.867  18.014  0.00  0.00    +0.000 F 
ATOM      2  O   UNL     1      -0.517  29.080  16.274  0.00  0.00    +0.000 OA
ATOM      3  O   UNL     1      -3.073  27.781  19.887  0.00  0.00    +0.000 OA
ATOM      4  N   UNL     1      -1.758  28.370  18.077  0.00  0.00    +0.000 N 
ATOM      5  N   UNL     1      -0.901  28.467  20.233  0.00  0.00    +0.000 N 
ATOM      6  C   UNL     1      -0.588  28.855  17.476  0.00  0.00    +0.000 C 
ATOM      7  C   UNL     1      -2.002  28.169  19.443  0.00  0.00    +0.000 C 
ATOM      8  C   UNL     1       0.557  29.091  18.420  0.00  0.00    +0.000 C 
ATOM      9  C   UNL     1       0.231  28.891  19.653  0.00  0.00    +0.000 C 
ATOM     10  H   UNL     1      -2.539  28.203  17.460  0.00  0.00    +0.000 HD
ATOM     11  H   UNL     1      -0.976  28.360  21.236  0.00  0.00    +0.000 HD
ENDROOT
TORSDOF 0
ENDMDL
MODEL 8
REMARK VINA RESULT:      -3.5      2.214      2.636
REMARK  Name = 3385_5Fluorouracil.pdbqt.pdb
REMARK  0 active torsions:
REMARK  status: ('A' for Active; 'I' for Inactive)
REMARK                            x       y       z     vdW  Elec       q    Type
REMARK                         _______ _______ _______ _____ _____    ______ ____
ROOT
ATOM      1  F   UNL     1     -19.067  43.152   5.492  0.00  0.00    +0.000 F 
ATOM      2  O   UNL     1     -17.627  44.014   3.210  0.00  0.00    +0.000 OA
ATOM      3  O   UNL     1     -13.828  41.921   4.781  0.00  0.00    +0.000 OA
ATOM      4  N   UNL     1     -15.718  43.026   4.034  0.00  0.00    +0.000 N 
ATOM      5  N   UNL     1     -15.710  41.984   6.108  0.00  0.00    +0.000 N 
ATOM      6  C   UNL     1     -17.054  43.442   4.129  0.00  0.00    +0.000 C 
ATOM      7  C   UNL     1     -14.983  42.280   4.965  0.00  0.00    +0.000 C 
ATOM      8  C   UNL     1     -17.726  43.116   5.434  0.00  0.00    +0.000 C 
ATOM      9  C   UNL     1     -16.974  42.419   6.217  0.00  0.00    +0.000 C 
ATOM     10  H   UNL     1     -15.248  43.237   3.166  0.00  0.00    +0.000 HD
ATOM     11  H   UNL     1     -15.269  41.443   6.841  0.00  0.00    +0.000 HD
ENDROOT
TORSDOF 0
ENDMDL
MODEL 9
REMARK VINA RESULT:      -3.4     23.078     23.862
REMARK  Name = 3385_5Fluorouracil.pdbqt.pdb
REMARK  0 active torsions:
REMARK  status: ('A' for Active; 'I' for Inactive)
REMARK                            x       y       z     vdW  Elec       q    Type
REMARK                         _______ _______ _______ _____ _____    ______ ____
ROOT
ATOM      1  F   UNL     1       2.380  28.487   9.513  0.00  0.00    +0.000 F 
ATOM      2  O   UNL     1      -0.229  29.304  10.253  0.00  0.00    +0.000 OA
ATOM      3  O   UNL     1       0.764  28.552  14.694  0.00  0.00    +0.000 OA
ATOM      4  N   UNL     1       0.251  28.860  12.459  0.00  0.00    +0.000 N 
ATOM      5  N   UNL     1       2.303  27.970  13.082  0.00  0.00    +0.000 N 
ATOM      6  C   UNL     1       0.541  28.844  11.088  0.00  0.00    +0.000 C 
ATOM      7  C   UNL     1       1.082  28.463  13.517  0.00  0.00    +0.000 C 
ATOM      8  C   UNL     1       1.868  28.237  10.729  0.00  0.00    +0.000 C 
ATOM      9  C   UNL     1       2.562  27.915  11.768  0.00  0.00    +0.000 C 
ATOM     10  H   UNL     1      -0.636  29.262  12.722  0.00  0.00    +0.000 HD
ATOM     11  H   UNL     1       2.978  27.661  13.770  0.00  0.00    +0.000 HD
ENDROOT
TORSDOF 0
ENDMDL
