MODEL 1
REMARK VINA RESULT:      -7.2      0.000      0.000
REMARK  Name = 342374_SipholenolA.pdbqt.pdb
REMARK  5 active torsions:
REMARK  status: ('A' for Active; 'I' for Inactive)
REMARK    1  A    between atoms: C_3  and  C_20
REMARK    2  A    between atoms: C_4  and  O_16
REMARK    3  A    between atoms: C_13  and  O_18
REMARK    4  A    between atoms: C_21  and  C_25
REMARK    5  A    between atoms: C_26  and  O_36
REMARK                            x       y       z     vdW  Elec       q    Type
REMARK                         _______ _______ _______ _____ _____    ______ ____
ROOT
ATOM      1  O   UNL     1      -6.016  46.529  24.859  0.00  0.00    +0.000 OA
ATOM      2  C   UNL     1      -7.336  48.759  25.180  0.00  0.00    +0.000 C 
ATOM      3  C   UNL     1      -8.631  49.359  25.735  0.00  0.00    +0.000 C 
ATOM      4  C   UNL     1      -9.955  48.653  25.495  0.00  0.00    +0.000 C 
ATOM      5  C   UNL     1      -7.225  47.171  25.150  0.00  0.00    +0.000 C 
ATOM      6  C   UNL     1      -6.199  49.112  26.044  0.00  0.00    +0.000 C 
ATOM      7  C   UNL     1      -9.692  47.267  25.159  0.00  0.00    +0.000 C 
ATOM      8  C   UNL     1      -8.439  46.477  24.987  0.00  0.00    +0.000 C 
ATOM      9  C   UNL     1      -7.103  49.279  23.735  0.00  0.00    +0.000 C 
ATOM     10  C   UNL     1      -4.947  48.522  26.645  0.00  0.00    +0.000 C 
ATOM     11  C   UNL     1      -5.166  46.075  25.962  0.00  0.00    +0.000 C 
ATOM     12  C   UNL     1     -10.872  48.769  26.722  0.00  0.00    +0.000 C 
ATOM     13  C   UNL     1      -4.360  47.239  26.614  0.00  0.00    +0.000 C 
ATOM     14  C   UNL     1      -5.987  45.361  27.076  0.00  0.00    +0.000 C 
ATOM     15  C   UNL     1      -4.130  45.080  25.362  0.00  0.00    +0.000 C 
ENDROOT
BRANCH   4  16
ATOM     16  O   UNL     1     -10.645  49.278  24.443  0.00  0.00    +0.000 OA
ATOM     17  H   UNL     1     -11.545  48.930  24.572  0.00  0.00    +0.000 HD
ENDBRANCH   4  16
BRANCH  13  18
ATOM     18  O   UNL     1      -3.088  47.066  27.150  0.00  0.00    +0.000 OA
ATOM     19  H   UNL     1      -2.858  47.793  27.766  0.00  0.00    +0.000 HD
ENDBRANCH  13  18
BRANCH   3  20
ATOM     20  C   UNL     1      -8.625  50.696  26.272  0.00  0.00    +0.000 C 
ATOM     21  C   UNL     1      -8.628  52.122  26.829  0.00  0.00    +0.000 C 
BRANCH  21  25
ATOM     22  C   UNL     1      -8.537  55.550  25.753  0.00  0.00    +0.000 C 
ATOM     23  C   UNL     1      -9.396  54.613  26.646  0.00  0.00    +0.000 C 
ATOM     24  C   UNL     1      -7.361  56.357  26.223  0.00  0.00    +0.000 C 
ATOM     25  C   UNL     1      -8.635  53.461  27.344  0.00  0.00    +0.000 C 
ATOM     26  C   UNL     1      -6.977  57.469  25.254  0.00  0.00    +0.000 C 
ATOM     27  C   UNL     1      -8.913  56.114  24.498  0.00  0.00    +0.000 C 
ATOM     28  C   UNL     1      -7.981  57.261  24.216  0.00  0.00    +0.000 C 
ATOM     29  C   UNL     1      -6.760  55.972  27.435  0.00  0.00    +0.000 C 
ATOM     30  C   UNL     1      -7.761  53.758  28.479  0.00  0.00    +0.000 C 
ATOM     31  C   UNL     1     -10.519  53.986  25.736  0.00  0.00    +0.000 C 
ATOM     32  C   UNL     1     -10.131  55.494  27.713  0.00  0.00    +0.000 C 
ATOM     33  C   UNL     1      -7.019  54.814  28.362  0.00  0.00    +0.000 C 
ATOM     34  C   UNL     1      -5.530  57.365  24.793  0.00  0.00    +0.000 C 
ATOM     35  C   UNL     1      -7.344  52.739  29.507  0.00  0.00    +0.000 C 
BRANCH  26  36
ATOM     36  O   UNL     1      -7.132  58.724  25.863  0.00  0.00    +0.000 OA
ATOM     37  H   UNL     1      -7.732  58.500  26.596  0.00  0.00    +0.000 HD
ENDBRANCH  26  36
ENDBRANCH  21  25
ENDBRANCH   3  20
TORSDOF 5
ENDMDL
MODEL 2
REMARK VINA RESULT:      -6.6     26.556     29.275
REMARK  Name = 342374_SipholenolA.pdbqt.pdb
REMARK  5 active torsions:
REMARK  status: ('A' for Active; 'I' for Inactive)
REMARK    1  A    between atoms: C_3  and  C_20
REMARK    2  A    between atoms: C_4  and  O_16
REMARK    3  A    between atoms: C_13  and  O_18
REMARK    4  A    between atoms: C_21  and  C_25
REMARK    5  A    between atoms: C_26  and  O_36
REMARK                            x       y       z     vdW  Elec       q    Type
REMARK                         _______ _______ _______ _____ _____    ______ ____
ROOT
ATOM      1  O   UNL     1      -4.204  36.484   2.690  0.00  0.00    +0.000 OA
ATOM      2  C   UNL     1      -6.795  36.351   2.986  0.00  0.00    +0.000 C 
ATOM      3  C   UNL     1      -8.133  36.570   2.274  0.00  0.00    +0.000 C 
ATOM      4  C   UNL     1      -8.332  37.799   1.403  0.00  0.00    +0.000 C 
ATOM      5  C   UNL     1      -5.480  36.822   2.224  0.00  0.00    +0.000 C 
ATOM      6  C   UNL     1      -6.535  34.912   3.150  0.00  0.00    +0.000 C 
ATOM      7  C   UNL     1      -7.034  38.327   1.033  0.00  0.00    +0.000 C 
ATOM      8  C   UNL     1      -5.636  37.924   1.361  0.00  0.00    +0.000 C 
ATOM      9  C   UNL     1      -6.823  37.059   4.369  0.00  0.00    +0.000 C 
ATOM     10  C   UNL     1      -5.422  33.897   3.053  0.00  0.00    +0.000 C 
ATOM     11  C   UNL     1      -3.523  35.319   2.120  0.00  0.00    +0.000 C 
ATOM     12  C   UNL     1      -9.176  37.465   0.163  0.00  0.00    +0.000 C 
ATOM     13  C   UNL     1      -4.060  33.973   2.691  0.00  0.00    +0.000 C 
ATOM     14  C   UNL     1      -3.640  35.277   0.567  0.00  0.00    +0.000 C 
ATOM     15  C   UNL     1      -2.023  35.423   2.524  0.00  0.00    +0.000 C 
ENDROOT
BRANCH   4  16
ATOM     16  O   UNL     1      -9.061  38.771   2.109  0.00  0.00    +0.000 OA
ATOM     17  H   UNL     1      -9.975  38.471   1.959  0.00  0.00    +0.000 HD
ENDBRANCH   4  16
BRANCH  13  18
ATOM     18  O   UNL     1      -3.252  32.854   2.869  0.00  0.00    +0.000 OA
ATOM     19  H   UNL     1      -2.965  32.766   3.802  0.00  0.00    +0.000 HD
ENDBRANCH  13  18
BRANCH   3  20
ATOM     20  C   UNL     1      -9.266  35.749   2.615  0.00  0.00    +0.000 C 
ATOM     21  C   UNL     1     -10.459  34.862   2.981  0.00  0.00    +0.000 C 
BRANCH  21  25
ATOM     22  C   UNL     1     -11.683  32.754   5.623  0.00  0.00    +0.000 C 
ATOM     23  C   UNL     1     -12.148  33.960   4.761  0.00  0.00    +0.000 C 
ATOM     24  C   UNL     1     -11.885  31.308   5.273  0.00  0.00    +0.000 C 
ATOM     25  C   UNL     1     -11.572  34.024   3.326  0.00  0.00    +0.000 C 
ATOM     26  C   UNL     1     -11.702  30.376   6.464  0.00  0.00    +0.000 C 
ATOM     27  C   UNL     1     -11.367  32.772   7.014  0.00  0.00    +0.000 C 
ATOM     28  C   UNL     1     -11.389  31.350   7.504  0.00  0.00    +0.000 C 
ATOM     29  C   UNL     1     -12.166  31.006   3.928  0.00  0.00    +0.000 C 
ATOM     30  C   UNL     1     -12.064  33.094   2.308  0.00  0.00    +0.000 C 
ATOM     31  C   UNL     1     -11.736  35.277   5.520  0.00  0.00    +0.000 C 
ATOM     32  C   UNL     1     -13.714  33.949   4.710  0.00  0.00    +0.000 C 
ATOM     33  C   UNL     1     -12.234  31.869   2.696  0.00  0.00    +0.000 C 
ATOM     34  C   UNL     1     -10.634  29.319   6.218  0.00  0.00    +0.000 C 
ATOM     35  C   UNL     1     -11.949  33.334   0.827  0.00  0.00    +0.000 C 
BRANCH  26  36
ATOM     36  O   UNL     1     -12.900  29.702   6.746  0.00  0.00    +0.000 OA
ATOM     37  H   UNL     1     -13.496  30.452   6.923  0.00  0.00    +0.000 HD
ENDBRANCH  26  36
ENDBRANCH  21  25
ENDBRANCH   3  20
TORSDOF 5
ENDMDL
MODEL 3
REMARK VINA RESULT:      -6.3     11.447     15.621
REMARK  Name = 342374_SipholenolA.pdbqt.pdb
REMARK  5 active torsions:
REMARK  status: ('A' for Active; 'I' for Inactive)
REMARK    1  A    between atoms: C_3  and  C_20
REMARK    2  A    between atoms: C_4  and  O_16
REMARK    3  A    between atoms: C_13  and  O_18
REMARK    4  A    between atoms: C_21  and  C_25
REMARK    5  A    between atoms: C_26  and  O_36
REMARK                            x       y       z     vdW  Elec       q    Type
REMARK                         _______ _______ _______ _____ _____    ______ ____
ROOT
ATOM      1  O   UNL     1       0.870  57.782  24.962  0.00  0.00    +0.000 OA
ATOM      2  C   UNL     1       3.064  57.876  23.549  0.00  0.00    +0.000 C 
ATOM      3  C   UNL     1       4.524  57.417  23.504  0.00  0.00    +0.000 C 
ATOM      4  C   UNL     1       5.375  57.477  24.761  0.00  0.00    +0.000 C 
ATOM      5  C   UNL     1       2.255  57.592  24.890  0.00  0.00    +0.000 C 
ATOM      6  C   UNL     1       2.264  57.129  22.566  0.00  0.00    +0.000 C 
ATOM      7  C   UNL     1       4.500  57.538  25.916  0.00  0.00    +0.000 C 
ATOM      8  C   UNL     1       3.018  57.582  26.074  0.00  0.00    +0.000 C 
ATOM      9  C   UNL     1       2.991  59.401  23.264  0.00  0.00    +0.000 C 
ATOM     10  C   UNL     1       0.924  56.456  22.403  0.00  0.00    +0.000 C 
ATOM     11  C   UNL     1      -0.018  56.633  24.766  0.00  0.00    +0.000 C 
ATOM     12  C   UNL     1       6.327  56.274  24.841  0.00  0.00    +0.000 C 
ATOM     13  C   UNL     1      -0.175  56.247  23.265  0.00  0.00    +0.000 C 
ATOM     14  C   UNL     1       0.471  55.378  25.548  0.00  0.00    +0.000 C 
ATOM     15  C   UNL     1      -1.427  57.050  25.282  0.00  0.00    +0.000 C 
ENDROOT
BRANCH   4  16
ATOM     16  O   UNL     1       6.200  58.615  24.726  0.00  0.00    +0.000 OA
ATOM     17  H   UNL     1       5.581  59.289  24.392  0.00  0.00    +0.000 HD
ENDBRANCH   4  16
BRANCH  13  18
ATOM     18  O   UNL     1      -1.351  55.721  22.742  0.00  0.00    +0.000 OA
ATOM     19  H   UNL     1      -1.973  55.457  23.453  0.00  0.00    +0.000 HD
ENDBRANCH  13  18
BRANCH   3  20
ATOM     20  C   UNL     1       5.151  57.158  22.233  0.00  0.00    +0.000 C 
ATOM     21  C   UNL     1       5.802  56.886  20.874  0.00  0.00    +0.000 C 
BRANCH  21  25
ATOM     22  C   UNL     1       5.055  55.533  17.629  0.00  0.00    +0.000 C 
ATOM     23  C   UNL     1       5.638  56.823  18.266  0.00  0.00    +0.000 C 
ATOM     24  C   UNL     1       5.855  54.331  17.216  0.00  0.00    +0.000 C 
ATOM     25  C   UNL     1       6.405  56.632  19.597  0.00  0.00    +0.000 C 
ATOM     26  C   UNL     1       5.097  53.409  16.268  0.00  0.00    +0.000 C 
ATOM     27  C   UNL     1       3.794  55.399  16.974  0.00  0.00    +0.000 C 
ATOM     28  C   UNL     1       3.836  54.134  16.161  0.00  0.00    +0.000 C 
ATOM     29  C   UNL     1       7.141  54.195  17.769  0.00  0.00    +0.000 C 
ATOM     30  C   UNL     1       7.737  56.025  19.581  0.00  0.00    +0.000 C 
ATOM     31  C   UNL     1       4.440  57.813  18.523  0.00  0.00    +0.000 C 
ATOM     32  C   UNL     1       6.565  57.515  17.209  0.00  0.00    +0.000 C 
ATOM     33  C   UNL     1       7.884  55.004  18.798  0.00  0.00    +0.000 C 
ATOM     34  C   UNL     1       4.989  51.988  16.803  0.00  0.00    +0.000 C 
ATOM     35  C   UNL     1       8.750  56.197  20.682  0.00  0.00    +0.000 C 
BRANCH  26  36
ATOM     36  O   UNL     1       5.749  53.341  15.027  0.00  0.00    +0.000 OA
ATOM     37  H   UNL     1       5.439  52.476  14.704  0.00  0.00    +0.000 HD
ENDBRANCH  26  36
ENDBRANCH  21  25
ENDBRANCH   3  20
TORSDOF 5
ENDMDL
MODEL 4
REMARK VINA RESULT:      -6.3     15.318     18.661
REMARK  Name = 342374_SipholenolA.pdbqt.pdb
REMARK  5 active torsions:
REMARK  status: ('A' for Active; 'I' for Inactive)
REMARK    1  A    between atoms: C_3  and  C_20
REMARK    2  A    between atoms: C_4  and  O_16
REMARK    3  A    between atoms: C_13  and  O_18
REMARK    4  A    between atoms: C_21  and  C_25
REMARK    5  A    between atoms: C_26  and  O_36
REMARK                            x       y       z     vdW  Elec       q    Type
REMARK                         _______ _______ _______ _____ _____    ______ ____
ROOT
ATOM      1  O   UNL     1      11.731  56.542  21.221  0.00  0.00    +0.000 OA
ATOM      2  C   UNL     1       9.169  56.465  20.722  0.00  0.00    +0.000 C 
ATOM      3  C   UNL     1       7.996  57.272  20.157  0.00  0.00    +0.000 C 
ATOM      4  C   UNL     1       7.845  58.740  20.519  0.00  0.00    +0.000 C 
ATOM      5  C   UNL     1      10.553  57.230  20.911  0.00  0.00    +0.000 C 
ATOM      6  C   UNL     1       9.554  55.400  19.784  0.00  0.00    +0.000 C 
ATOM      7  C   UNL     1       9.123  59.241  20.986  0.00  0.00    +0.000 C 
ATOM      8  C   UNL     1      10.457  58.607  21.191  0.00  0.00    +0.000 C 
ATOM      9  C   UNL     1       8.769  55.861  22.096  0.00  0.00    +0.000 C 
ATOM     10  C   UNL     1      10.771  54.726  19.199  0.00  0.00    +0.000 C 
ATOM     11  C   UNL     1      12.648  56.173  20.139  0.00  0.00    +0.000 C 
ATOM     12  C   UNL     1       7.327  59.551  19.322  0.00  0.00    +0.000 C 
ATOM     13  C   UNL     1      12.161  54.927  19.341  0.00  0.00    +0.000 C 
ATOM     14  C   UNL     1      12.867  57.345  19.136  0.00  0.00    +0.000 C 
ATOM     15  C   UNL     1      14.006  55.794  20.799  0.00  0.00    +0.000 C 
ENDROOT
BRANCH   4  16
ATOM     16  O   UNL     1       6.876  58.886  21.527  0.00  0.00    +0.000 OA
ATOM     17  H   UNL     1       6.933  58.021  21.972  0.00  0.00    +0.000 HD
ENDBRANCH   4  16
BRANCH  13  18
ATOM     18  O   UNL     1      13.037  54.004  18.778  0.00  0.00    +0.000 OA
ATOM     19  H   UNL     1      13.648  53.635  19.450  0.00  0.00    +0.000 HD
ENDBRANCH  13  18
BRANCH   3  20
ATOM     20  C   UNL     1       6.920  56.590  19.486  0.00  0.00    +0.000 C 
ATOM     21  C   UNL     1       5.783  55.867  18.758  0.00  0.00    +0.000 C 
BRANCH  21  25
ATOM     22  C   UNL     1       4.854  54.686  15.493  0.00  0.00    +0.000 C 
ATOM     23  C   UNL     1       4.987  54.159  16.947  0.00  0.00    +0.000 C 
ATOM     24  C   UNL     1       3.615  55.294  14.900  0.00  0.00    +0.000 C 
ATOM     25  C   UNL     1       4.721  55.193  18.067  0.00  0.00    +0.000 C 
ATOM     26  C   UNL     1       3.646  55.341  13.377  0.00  0.00    +0.000 C 
ATOM     27  C   UNL     1       5.685  54.349  14.383  0.00  0.00    +0.000 C 
ATOM     28  C   UNL     1       4.950  54.737  13.129  0.00  0.00    +0.000 C 
ATOM     29  C   UNL     1       2.638  55.762  15.796  0.00  0.00    +0.000 C 
ATOM     30  C   UNL     1       3.350  55.626  18.339  0.00  0.00    +0.000 C 
ATOM     31  C   UNL     1       6.451  53.604  17.122  0.00  0.00    +0.000 C 
ATOM     32  C   UNL     1       4.026  52.932  17.112  0.00  0.00    +0.000 C 
ATOM     33  C   UNL     1       2.612  55.853  17.298  0.00  0.00    +0.000 C 
ATOM     34  C   UNL     1       3.467  56.752  12.834  0.00  0.00    +0.000 C 
ATOM     35  C   UNL     1       2.905  56.236  19.641  0.00  0.00    +0.000 C 
BRANCH  26  36
ATOM     36  O   UNL     1       2.614  54.553  12.843  0.00  0.00    +0.000 OA
ATOM     37  H   UNL     1       3.028  54.241  12.019  0.00  0.00    +0.000 HD
ENDBRANCH  26  36
ENDBRANCH  21  25
ENDBRANCH   3  20
TORSDOF 5
ENDMDL
MODEL 5
REMARK VINA RESULT:      -5.9      4.069      8.266
REMARK  Name = 342374_SipholenolA.pdbqt.pdb
REMARK  5 active torsions:
REMARK  status: ('A' for Active; 'I' for Inactive)
REMARK    1  A    between atoms: C_3  and  C_20
REMARK    2  A    between atoms: C_4  and  O_16
REMARK    3  A    between atoms: C_13  and  O_18
REMARK    4  A    between atoms: C_21  and  C_25
REMARK    5  A    between atoms: C_26  and  O_36
REMARK                            x       y       z     vdW  Elec       q    Type
REMARK                         _______ _______ _______ _____ _____    ______ ____
ROOT
ATOM      1  O   UNL     1     -10.678  50.148  27.036  0.00  0.00    +0.000 OA
ATOM      2  C   UNL     1      -8.384  50.281  28.277  0.00  0.00    +0.000 C 
ATOM      3  C   UNL     1      -7.490  49.573  29.298  0.00  0.00    +0.000 C 
ATOM      4  C   UNL     1      -8.099  48.995  30.564  0.00  0.00    +0.000 C 
ATOM      5  C   UNL     1      -9.857  49.710  28.081  0.00  0.00    +0.000 C 
ATOM      6  C   UNL     1      -7.832  50.127  26.922  0.00  0.00    +0.000 C 
ATOM      7  C   UNL     1      -9.524  48.818  30.359  0.00  0.00    +0.000 C 
ATOM      8  C   UNL     1     -10.437  49.113  29.218  0.00  0.00    +0.000 C 
ATOM      9  C   UNL     1      -8.503  51.785  28.647  0.00  0.00    +0.000 C 
ATOM     10  C   UNL     1      -8.257  49.856  25.499  0.00  0.00    +0.000 C 
ATOM     11  C   UNL     1     -10.741  49.362  25.801  0.00  0.00    +0.000 C 
ATOM     12  C   UNL     1      -7.419  47.673  30.949  0.00  0.00    +0.000 C 
ATOM     13  C   UNL     1      -9.500  49.587  24.886  0.00  0.00    +0.000 C 
ATOM     14  C   UNL     1     -10.872  47.837  26.086  0.00  0.00    +0.000 C 
ATOM     15  C   UNL     1     -11.989  49.852  25.009  0.00  0.00    +0.000 C 
ENDROOT
BRANCH   4  16
ATOM     16  O   UNL     1      -7.876  49.867  31.643  0.00  0.00    +0.000 OA
ATOM     17  H   UNL     1      -7.305  49.321  32.214  0.00  0.00    +0.000 HD
ENDBRANCH   4  16
BRANCH  13  18
ATOM     18  O   UNL     1      -9.571  49.545  23.497  0.00  0.00    +0.000 OA
ATOM     19  H   UNL     1      -8.960  48.874  23.127  0.00  0.00    +0.000 HD
ENDBRANCH  13  18
BRANCH   3  20
ATOM     20  C   UNL     1      -6.058  49.664  29.175  0.00  0.00    +0.000 C 
ATOM     21  C   UNL     1      -4.534  49.767  29.061  0.00  0.00    +0.000 C 
BRANCH  21  25
ATOM     22  C   UNL     1      -1.678  48.043  27.723  0.00  0.00    +0.000 C 
ATOM     23  C   UNL     1      -2.333  49.451  27.687  0.00  0.00    +0.000 C 
ATOM     24  C   UNL     1      -0.655  47.587  28.723  0.00  0.00    +0.000 C 
ATOM     25  C   UNL     1      -3.106  49.868  28.961  0.00  0.00    +0.000 C 
ATOM     26  C   UNL     1       0.094  46.336  28.280  0.00  0.00    +0.000 C 
ATOM     27  C   UNL     1      -1.608  47.106  26.649  0.00  0.00    +0.000 C 
ATOM     28  C   UNL     1      -0.544  46.100  26.990  0.00  0.00    +0.000 C 
ATOM     29  C   UNL     1      -0.552  48.324  29.917  0.00  0.00    +0.000 C 
ATOM     30  C   UNL     1      -2.364  50.233  30.168  0.00  0.00    +0.000 C 
ATOM     31  C   UNL     1      -3.331  49.482  26.469  0.00  0.00    +0.000 C 
ATOM     32  C   UNL     1      -1.215  50.502  27.371  0.00  0.00    +0.000 C 
ATOM     33  C   UNL     1      -1.346  49.484  30.455  0.00  0.00    +0.000 C 
ATOM     34  C   UNL     1      -0.026  45.199  29.286  0.00  0.00    +0.000 C 
ATOM     35  C   UNL     1      -2.933  51.071  31.282  0.00  0.00    +0.000 C 
BRANCH  26  36
ATOM     36  O   UNL     1       1.461  46.614  28.126  0.00  0.00    +0.000 OA
ATOM     37  H   UNL     1       1.557  46.538  27.160  0.00  0.00    +0.000 HD
ENDBRANCH  26  36
ENDBRANCH  21  25
ENDBRANCH   3  20
TORSDOF 5
ENDMDL
MODEL 6
REMARK VINA RESULT:      -5.9     26.162     28.727
REMARK  Name = 342374_SipholenolA.pdbqt.pdb
REMARK  5 active torsions:
REMARK  status: ('A' for Active; 'I' for Inactive)
REMARK    1  A    between atoms: C_3  and  C_20
REMARK    2  A    between atoms: C_4  and  O_16
REMARK    3  A    between atoms: C_13  and  O_18
REMARK    4  A    between atoms: C_21  and  C_25
REMARK    5  A    between atoms: C_26  and  O_36
REMARK                            x       y       z     vdW  Elec       q    Type
REMARK                         _______ _______ _______ _____ _____    ______ ____
ROOT
ATOM      1  O   UNL     1      -4.544  40.711   1.788  0.00  0.00    +0.000 OA
ATOM      2  C   UNL     1      -6.871  39.526   1.763  0.00  0.00    +0.000 C 
ATOM      3  C   UNL     1      -7.974  38.990   0.847  0.00  0.00    +0.000 C 
ATOM      4  C   UNL     1      -8.415  39.801  -0.360  0.00  0.00    +0.000 C 
ATOM      5  C   UNL     1      -5.697  40.356   1.079  0.00  0.00    +0.000 C 
ATOM      6  C   UNL     1      -6.124  38.412   2.367  0.00  0.00    +0.000 C 
ATOM      7  C   UNL     1      -7.373  40.753  -0.690  0.00  0.00    +0.000 C 
ATOM      8  C   UNL     1      -6.052  41.077  -0.078  0.00  0.00    +0.000 C 
ATOM      9  C   UNL     1      -7.503  40.419   2.867  0.00  0.00    +0.000 C 
ATOM     10  C   UNL     1      -4.718  37.987   2.716  0.00  0.00    +0.000 C 
ATOM     11  C   UNL     1      -3.350  39.869   1.673  0.00  0.00    +0.000 C 
ATOM     12  C   UNL     1      -8.737  38.886  -1.551  0.00  0.00    +0.000 C 
ATOM     13  C   UNL     1      -3.447  38.573   2.532  0.00  0.00    +0.000 C 
ATOM     14  C   UNL     1      -3.063  39.462   0.198  0.00  0.00    +0.000 C 
ATOM     15  C   UNL     1      -2.152  40.697   2.226  0.00  0.00    +0.000 C 
ENDROOT
BRANCH   4  16
ATOM     16  O   UNL     1      -9.610  40.481  -0.067  0.00  0.00    +0.000 OA
ATOM     17  H   UNL     1      -9.656  41.112  -0.808  0.00  0.00    +0.000 HD
ENDBRANCH   4  16
BRANCH  13  18
ATOM     18  O   UNL     1      -2.339  37.981   3.130  0.00  0.00    +0.000 OA
ATOM     19  H   UNL     1      -2.591  37.178   3.633  0.00  0.00    +0.000 HD
ENDBRANCH  13  18
BRANCH   3  20
ATOM     20  C   UNL     1      -8.748  37.846   1.257  0.00  0.00    +0.000 C 
ATOM     21  C   UNL     1      -9.582  36.641   1.700  0.00  0.00    +0.000 C 
BRANCH  21  25
ATOM     22  C   UNL     1     -12.977  35.683   2.392  0.00  0.00    +0.000 C 
ATOM     23  C   UNL     1     -11.769  35.219   1.533  0.00  0.00    +0.000 C 
ATOM     24  C   UNL     1     -13.263  35.240   3.798  0.00  0.00    +0.000 C 
ATOM     25  C   UNL     1     -10.369  35.517   2.121  0.00  0.00    +0.000 C 
ATOM     26  C   UNL     1     -14.696  35.526   4.232  0.00  0.00    +0.000 C 
ATOM     27  C   UNL     1     -14.193  36.256   1.915  0.00  0.00    +0.000 C 
ATOM     28  C   UNL     1     -15.210  36.149   3.018  0.00  0.00    +0.000 C 
ATOM     29  C   UNL     1     -12.198  34.674   4.522  0.00  0.00    +0.000 C 
ATOM     30  C   UNL     1      -9.879  34.730   3.253  0.00  0.00    +0.000 C 
ATOM     31  C   UNL     1     -11.880  35.929   0.131  0.00  0.00    +0.000 C 
ATOM     32  C   UNL     1     -11.922  33.683   1.265  0.00  0.00    +0.000 C 
ATOM     33  C   UNL     1     -10.743  34.483   4.187  0.00  0.00    +0.000 C 
ATOM     34  C   UNL     1     -14.762  36.386   5.486  0.00  0.00    +0.000 C 
ATOM     35  C   UNL     1      -8.424  34.591   3.612  0.00  0.00    +0.000 C 
BRANCH  26  36
ATOM     36  O   UNL     1     -15.370  34.327   4.511  0.00  0.00    +0.000 OA
ATOM     37  H   UNL     1     -14.745  33.902   5.124  0.00  0.00    +0.000 HD
ENDBRANCH  26  36
ENDBRANCH  21  25
ENDBRANCH   3  20
TORSDOF 5
ENDMDL
MODEL 7
REMARK VINA RESULT:      -5.7     24.042     28.256
REMARK  Name = 342374_SipholenolA.pdbqt.pdb
REMARK  5 active torsions:
REMARK  status: ('A' for Active; 'I' for Inactive)
REMARK    1  A    between atoms: C_3  and  C_20
REMARK    2  A    between atoms: C_4  and  O_16
REMARK    3  A    between atoms: C_13  and  O_18
REMARK    4  A    between atoms: C_21  and  C_25
REMARK    5  A    between atoms: C_26  and  O_36
REMARK                            x       y       z     vdW  Elec       q    Type
REMARK                         _______ _______ _______ _____ _____    ______ ____
ROOT
ATOM      1  O   UNL     1     -27.083  32.504  10.235  0.00  0.00    +0.000 OA
ATOM      2  C   UNL     1     -27.540  32.667  12.801  0.00  0.00    +0.000 C 
ATOM      3  C   UNL     1     -27.555  31.866  14.106  0.00  0.00    +0.000 C 
ATOM      4  C   UNL     1     -28.146  30.467  14.127  0.00  0.00    +0.000 C 
ATOM      5  C   UNL     1     -27.319  31.853  11.451  0.00  0.00    +0.000 C 
ATOM      6  C   UNL     1     -26.388  33.583  12.778  0.00  0.00    +0.000 C 
ATOM      7  C   UNL     1     -28.184  29.954  12.772  0.00  0.00    +0.000 C 
ATOM      8  C   UNL     1     -27.802  30.530  11.450  0.00  0.00    +0.000 C 
ATOM      9  C   UNL     1     -28.868  33.461  12.665  0.00  0.00    +0.000 C 
ATOM     10  C   UNL     1     -25.316  34.106  11.854  0.00  0.00    +0.000 C 
ATOM     11  C   UNL     1     -25.702  32.679   9.776  0.00  0.00    +0.000 C 
ATOM     12  C   UNL     1     -27.343  29.543  15.055  0.00  0.00    +0.000 C 
ATOM     13  C   UNL     1     -24.971  33.842  10.511  0.00  0.00    +0.000 C 
ATOM     14  C   UNL     1     -24.861  31.381   9.950  0.00  0.00    +0.000 C 
ATOM     15  C   UNL     1     -25.767  33.059   8.267  0.00  0.00    +0.000 C 
ENDROOT
BRANCH   4  16
ATOM     16  O   UNL     1     -29.446  30.506  14.660  0.00  0.00    +0.000 OA
ATOM     17  H   UNL     1     -29.291  30.179  15.565  0.00  0.00    +0.000 HD
ENDBRANCH   4  16
BRANCH  13  18
ATOM     18  O   UNL     1     -24.007  34.634   9.895  0.00  0.00    +0.000 OA
ATOM     19  H   UNL     1     -23.986  35.536  10.279  0.00  0.00    +0.000 HD
ENDBRANCH  13  18
BRANCH   3  20
ATOM     20  C   UNL     1     -27.232  32.521  15.348  0.00  0.00    +0.000 C 
ATOM     21  C   UNL     1     -26.885  33.201  16.675  0.00  0.00    +0.000 C 
BRANCH  21  25
ATOM     22  C   UNL     1     -25.809  36.346  18.043  0.00  0.00    +0.000 C 
ATOM     23  C   UNL     1     -26.939  35.298  18.235  0.00  0.00    +0.000 C 
ATOM     24  C   UNL     1     -24.488  36.338  18.756  0.00  0.00    +0.000 C 
ATOM     25  C   UNL     1     -26.558  33.831  17.923  0.00  0.00    +0.000 C 
ATOM     26  C   UNL     1     -23.763  37.677  18.682  0.00  0.00    +0.000 C 
ATOM     27  C   UNL     1     -25.947  37.661  17.505  0.00  0.00    +0.000 C 
ATOM     28  C   UNL     1     -24.725  38.444  17.900  0.00  0.00    +0.000 C 
ATOM     29  C   UNL     1     -24.083  35.126  19.344  0.00  0.00    +0.000 C 
ATOM     30  C   UNL     1     -25.702  33.094  18.853  0.00  0.00    +0.000 C 
ATOM     31  C   UNL     1     -28.136  35.710  17.298  0.00  0.00    +0.000 C 
ATOM     32  C   UNL     1     -27.468  35.413  19.705  0.00  0.00    +0.000 C 
ATOM     33  C   UNL     1     -24.697  33.751  19.340  0.00  0.00    +0.000 C 
ATOM     34  C   UNL     1     -22.374  37.554  18.071  0.00  0.00    +0.000 C 
ATOM     35  C   UNL     1     -25.636  31.592  18.922  0.00  0.00    +0.000 C 
BRANCH  26  36
ATOM     36  O   UNL     1     -23.607  38.219  19.967  0.00  0.00    +0.000 OA
ATOM     37  H   UNL     1     -22.669  38.023  20.138  0.00  0.00    +0.000 HD
ENDBRANCH  26  36
ENDBRANCH  21  25
ENDBRANCH   3  20
TORSDOF 5
ENDMDL
MODEL 8
REMARK VINA RESULT:      -5.7     26.184     29.117
REMARK  Name = 342374_SipholenolA.pdbqt.pdb
REMARK  5 active torsions:
REMARK  status: ('A' for Active; 'I' for Inactive)
REMARK    1  A    between atoms: C_3  and  C_20
REMARK    2  A    between atoms: C_4  and  O_16
REMARK    3  A    between atoms: C_13  and  O_18
REMARK    4  A    between atoms: C_21  and  C_25
REMARK    5  A    between atoms: C_26  and  O_36
REMARK                            x       y       z     vdW  Elec       q    Type
REMARK                         _______ _______ _______ _____ _____    ______ ____
ROOT
ATOM      1  O   UNL     1      -3.331  40.072   2.232  0.00  0.00    +0.000 OA
ATOM      2  C   UNL     1      -5.603  38.788   2.152  0.00  0.00    +0.000 C 
ATOM      3  C   UNL     1      -6.834  38.509   1.285  0.00  0.00    +0.000 C 
ATOM      4  C   UNL     1      -7.490  39.643   0.516  0.00  0.00    +0.000 C 
ATOM      5  C   UNL     1      -4.580  39.889   1.628  0.00  0.00    +0.000 C 
ATOM      6  C   UNL     1      -4.741  37.598   2.212  0.00  0.00    +0.000 C 
ATOM      7  C   UNL     1      -6.540  40.729   0.382  0.00  0.00    +0.000 C 
ATOM      8  C   UNL     1      -5.141  40.929   0.861  0.00  0.00    +0.000 C 
ATOM      9  C   UNL     1      -6.057  39.202   3.579  0.00  0.00    +0.000 C 
ATOM     10  C   UNL     1      -3.288  37.191   2.174  0.00  0.00    +0.000 C 
ATOM     11  C   UNL     1      -2.156  39.415   1.653  0.00  0.00    +0.000 C 
ATOM     12  C   UNL     1      -7.990  39.162  -0.854  0.00  0.00    +0.000 C 
ATOM     13  C   UNL     1      -2.079  37.901   2.013  0.00  0.00    +0.000 C 
ATOM     14  C   UNL     1      -2.115  39.555   0.102  0.00  0.00    +0.000 C 
ATOM     15  C   UNL     1      -0.900  40.098   2.270  0.00  0.00    +0.000 C 
ENDROOT
BRANCH   4  16
ATOM     16  O   UNL     1      -8.632  40.088   1.204  0.00  0.00    +0.000 OA
ATOM     17  H   UNL     1      -9.337  39.608   0.734  0.00  0.00    +0.000 HD
ENDBRANCH   4  16
BRANCH  13  18
ATOM     18  O   UNL     1      -0.874  37.231   2.194  0.00  0.00    +0.000 OA
ATOM     19  H   UNL     1      -0.119  37.855   2.227  0.00  0.00    +0.000 HD
ENDBRANCH  13  18
BRANCH   3  20
ATOM     20  C   UNL     1      -7.503  37.237   1.386  0.00  0.00    +0.000 C 
ATOM     21  C   UNL     1      -8.214  35.886   1.510  0.00  0.00    +0.000 C 
BRANCH  21  25
ATOM     22  C   UNL     1     -11.107  34.361   3.002  0.00  0.00    +0.000 C 
ATOM     23  C   UNL     1     -10.419  34.488   1.615  0.00  0.00    +0.000 C 
ATOM     24  C   UNL     1     -10.837  33.281   4.009  0.00  0.00    +0.000 C 
ATOM     25  C   UNL     1      -8.878  34.620   1.636  0.00  0.00    +0.000 C 
ATOM     26  C   UNL     1     -11.923  33.176   5.074  0.00  0.00    +0.000 C 
ATOM     27  C   UNL     1     -12.340  34.959   3.400  0.00  0.00    +0.000 C 
ATOM     28  C   UNL     1     -12.818  34.239   4.630  0.00  0.00    +0.000 C 
ATOM     29  C   UNL     1      -9.639  32.558   3.869  0.00  0.00    +0.000 C 
ATOM     30  C   UNL     1      -8.057  33.450   1.948  0.00  0.00    +0.000 C 
ATOM     31  C   UNL     1     -11.017  35.757   0.899  0.00  0.00    +0.000 C 
ATOM     32  C   UNL     1     -10.839  33.252   0.747  0.00  0.00    +0.000 C 
ATOM     33  C   UNL     1      -8.482  32.703   2.918  0.00  0.00    +0.000 C 
ATOM     34  C   UNL     1     -11.372  33.332   6.484  0.00  0.00    +0.000 C 
ATOM     35  C   UNL     1      -6.608  33.314   1.563  0.00  0.00    +0.000 C 
BRANCH  26  36
ATOM     36  O   UNL     1     -12.552  31.923   5.007  0.00  0.00    +0.000 OA
ATOM     37  H   UNL     1     -11.782  31.328   5.028  0.00  0.00    +0.000 HD
ENDBRANCH  26  36
ENDBRANCH  21  25
ENDBRANCH   3  20
TORSDOF 5
ENDMDL
MODEL 9
REMARK VINA RESULT:      -5.5     20.343     25.221
REMARK  Name = 342374_SipholenolA.pdbqt.pdb
REMARK  5 active torsions:
REMARK  status: ('A' for Active; 'I' for Inactive)
REMARK    1  A    between atoms: C_3  and  C_20
REMARK    2  A    between atoms: C_4  and  O_16
REMARK    3  A    between atoms: C_13  and  O_18
REMARK    4  A    between atoms: C_21  and  C_25
REMARK    5  A    between atoms: C_26  and  O_36
REMARK                            x       y       z     vdW  Elec       q    Type
REMARK                         _______ _______ _______ _____ _____    ______ ____
ROOT
ATOM      1  O   UNL     1     -25.516  43.248  18.578  0.00  0.00    +0.000 OA
ATOM      2  C   UNL     1     -26.223  40.795  19.129  0.00  0.00    +0.000 C 
ATOM      3  C   UNL     1     -25.788  39.331  19.020  0.00  0.00    +0.000 C 
ATOM      4  C   UNL     1     -25.161  38.822  17.733  0.00  0.00    +0.000 C 
ATOM      5  C   UNL     1     -25.330  41.876  18.375  0.00  0.00    +0.000 C 
ATOM      6  C   UNL     1     -26.117  41.256  20.523  0.00  0.00    +0.000 C 
ATOM      7  C   UNL     1     -24.663  39.953  16.976  0.00  0.00    +0.000 C 
ATOM      8  C   UNL     1     -24.684  41.427  17.206  0.00  0.00    +0.000 C 
ATOM      9  C   UNL     1     -27.681  40.942  18.617  0.00  0.00    +0.000 C 
ATOM     10  C   UNL     1     -25.680  42.445  21.342  0.00  0.00    +0.000 C 
ATOM     11  C   UNL     1     -24.668  43.947  19.547  0.00  0.00    +0.000 C 
ATOM     12  C   UNL     1     -24.046  37.807  18.027  0.00  0.00    +0.000 C 
ATOM     13  C   UNL     1     -25.109  43.695  21.020  0.00  0.00    +0.000 C 
ATOM     14  C   UNL     1     -23.170  43.545  19.406  0.00  0.00    +0.000 C 
ATOM     15  C   UNL     1     -24.824  45.472  19.275  0.00  0.00    +0.000 C 
ENDROOT
BRANCH   4  16
ATOM     16  O   UNL     1     -26.121  38.126  16.978  0.00  0.00    +0.000 OA
ATOM     17  H   UNL     1     -25.553  37.590  16.396  0.00  0.00    +0.000 HD
ENDBRANCH   4  16
BRANCH  13  18
ATOM     18  O   UNL     1     -24.975  44.653  22.020  0.00  0.00    +0.000 OA
ATOM     19  H   UNL     1     -25.806  45.158  22.145  0.00  0.00    +0.000 HD
ENDBRANCH  13  18
BRANCH   3  20
ATOM     20  C   UNL     1     -26.186  38.391  20.037  0.00  0.00    +0.000 C 
ATOM     21  C   UNL     1     -26.602  37.403  21.130  0.00  0.00    +0.000 C 
BRANCH  21  25
ATOM     22  C   UNL     1     -29.080  34.914  21.898  0.00  0.00    +0.000 C 
ATOM     23  C   UNL     1     -27.535  35.068  21.846  0.00  0.00    +0.000 C 
ATOM     24  C   UNL     1     -29.939  35.188  23.098  0.00  0.00    +0.000 C 
ATOM     25  C   UNL     1     -26.987  36.481  22.160  0.00  0.00    +0.000 C 
ATOM     26  C   UNL     1     -31.330  34.573  22.987  0.00  0.00    +0.000 C 
ATOM     27  C   UNL     1     -29.890  34.143  21.012  0.00  0.00    +0.000 C 
ATOM     28  C   UNL     1     -31.225  33.941  21.677  0.00  0.00    +0.000 C 
ATOM     29  C   UNL     1     -29.385  35.984  24.117  0.00  0.00    +0.000 C 
ATOM     30  C   UNL     1     -27.000  36.969  23.540  0.00  0.00    +0.000 C 
ATOM     31  C   UNL     1     -27.063  34.664  20.398  0.00  0.00    +0.000 C 
ATOM     32  C   UNL     1     -26.906  34.019  22.825  0.00  0.00    +0.000 C 
ATOM     33  C   UNL     1     -28.073  36.714  24.221  0.00  0.00    +0.000 C 
ATOM     34  C   UNL     1     -32.437  35.610  23.125  0.00  0.00    +0.000 C 
ATOM     35  C   UNL     1     -26.114  38.075  24.047  0.00  0.00    +0.000 C 
BRANCH  26  36
ATOM     36  O   UNL     1     -31.523  33.618  23.997  0.00  0.00    +0.000 OA
ATOM     37  H   UNL     1     -31.967  32.910  23.498  0.00  0.00    +0.000 HD
ENDBRANCH  26  36
ENDBRANCH  21  25
ENDBRANCH   3  20
TORSDOF 5
ENDMDL
