MODEL 1
REMARK VINA RESULT:      -4.1      0.000      0.000
REMARK  Name = 43806_Diaminocyclohexane.pdbqt.pdb
REMARK  2 active torsions:
REMARK  status: ('A' for Active; 'I' for Inactive)
REMARK    1  A    between atoms: C_1  and  N_7
REMARK    2  A    between atoms: C_2  and  N_10
REMARK                            x       y       z     vdW  Elec       q    Type
REMARK                         _______ _______ _______ _____ _____    ______ ____
ROOT
ATOM      1  C   UNL     1     -15.776  51.891  11.524  0.00  0.00    +0.000 A 
ATOM      2  C   UNL     1     -15.363  51.402  10.191  0.00  0.00    +0.000 A 
ATOM      3  C   UNL     1     -16.189  53.261  11.571  0.00  0.00    +0.000 A 
ATOM      4  C   UNL     1     -15.468  52.361   9.131  0.00  0.00    +0.000 A 
ATOM      5  C   UNL     1     -16.317  54.344  10.487  0.00  0.00    +0.000 A 
ATOM      6  C   UNL     1     -15.910  53.833   9.103  0.00  0.00    +0.000 A 
ENDROOT
BRANCH   1   7
ATOM      7  N   UNL     1     -15.836  51.050  12.661  0.00  0.00    +0.000 N 
ATOM      8  H   UNL     1     -15.031  51.137  13.272  0.00  0.00    +0.000 HD
ATOM      9  H   UNL     1     -16.065  50.082  12.458  0.00  0.00    +0.000 HD
ENDBRANCH   1   7
BRANCH   2  10
ATOM     10  N   UNL     1     -14.827  50.109   9.982  0.00  0.00    +0.000 N 
ATOM     11  H   UNL     1     -15.317  49.380  10.492  0.00  0.00    +0.000 HD
ATOM     12  H   UNL     1     -13.821  50.047  10.092  0.00  0.00    +0.000 HD
ENDBRANCH   2  10
TORSDOF 2
ENDMDL
MODEL 2
REMARK VINA RESULT:      -3.8      1.706      2.311
REMARK  Name = 43806_Diaminocyclohexane.pdbqt.pdb
REMARK  2 active torsions:
REMARK  status: ('A' for Active; 'I' for Inactive)
REMARK    1  A    between atoms: C_1  and  N_7
REMARK    2  A    between atoms: C_2  and  N_10
REMARK                            x       y       z     vdW  Elec       q    Type
REMARK                         _______ _______ _______ _____ _____    ______ ____
ROOT
ATOM      1  C   UNL     1     -17.768  51.738  11.378  0.00  0.00    +0.000 A 
ATOM      2  C   UNL     1     -16.328  51.551  11.662  0.00  0.00    +0.000 A 
ATOM      3  C   UNL     1     -18.068  52.324  10.106  0.00  0.00    +0.000 A 
ATOM      4  C   UNL     1     -15.442  51.953  10.610  0.00  0.00    +0.000 A 
ATOM      5  C   UNL     1     -17.177  52.787   8.941  0.00  0.00    +0.000 A 
ATOM      6  C   UNL     1     -15.689  52.574   9.226  0.00  0.00    +0.000 A 
ENDROOT
BRANCH   1   7
ATOM      7  N   UNL     1     -18.784  51.299  12.260  0.00  0.00    +0.000 N 
ATOM      8  H   UNL     1     -19.718  51.568  11.967  0.00  0.00    +0.000 HD
ATOM      9  H   UNL     1     -18.611  51.506  13.239  0.00  0.00    +0.000 HD
ENDBRANCH   1   7
BRANCH   2  10
ATOM     10  N   UNL     1     -15.849  51.084  12.909  0.00  0.00    +0.000 N 
ATOM     11  H   UNL     1     -16.490  50.454  13.380  0.00  0.00    +0.000 HD
ATOM     12  H   UNL     1     -15.501  51.811  13.525  0.00  0.00    +0.000 HD
ENDBRANCH   2  10
TORSDOF 2
ENDMDL
MODEL 3
REMARK VINA RESULT:      -3.6     20.812     21.186
REMARK  Name = 43806_Diaminocyclohexane.pdbqt.pdb
REMARK  2 active torsions:
REMARK  status: ('A' for Active; 'I' for Inactive)
REMARK    1  A    between atoms: C_1  and  N_7
REMARK    2  A    between atoms: C_2  and  N_10
REMARK                            x       y       z     vdW  Elec       q    Type
REMARK                         _______ _______ _______ _____ _____    ______ ____
ROOT
ATOM      1  C   UNL     1       4.543  54.145  14.372  0.00  0.00    +0.000 A 
ATOM      2  C   UNL     1       5.691  53.610  15.137  0.00  0.00    +0.000 A 
ATOM      3  C   UNL     1       3.272  54.041  15.025  0.00  0.00    +0.000 A 
ATOM      4  C   UNL     1       5.370  53.095  16.435  0.00  0.00    +0.000 A 
ATOM      5  C   UNL     1       2.854  53.496  16.400  0.00  0.00    +0.000 A 
ATOM      6  C   UNL     1       4.044  52.962  17.200  0.00  0.00    +0.000 A 
ENDROOT
BRANCH   1   7
ATOM      7  N   UNL     1       4.692  54.786  13.119  0.00  0.00    +0.000 N 
ATOM      8  H   UNL     1       4.864  54.143  12.353  0.00  0.00    +0.000 HD
ATOM      9  H   UNL     1       5.339  55.569  13.120  0.00  0.00    +0.000 HD
ENDBRANCH   1   7
BRANCH   2  10
ATOM     10  N   UNL     1       6.998  53.536  14.602  0.00  0.00    +0.000 N 
ATOM     11  H   UNL     1       7.665  53.089  15.223  0.00  0.00    +0.000 HD
ATOM     12  H   UNL     1       7.349  54.409  14.223  0.00  0.00    +0.000 HD
ENDBRANCH   2  10
TORSDOF 2
ENDMDL
MODEL 4
REMARK VINA RESULT:      -3.5     28.873     29.230
REMARK  Name = 43806_Diaminocyclohexane.pdbqt.pdb
REMARK  2 active torsions:
REMARK  status: ('A' for Active; 'I' for Inactive)
REMARK    1  A    between atoms: C_1  and  N_7
REMARK    2  A    between atoms: C_2  and  N_10
REMARK                            x       y       z     vdW  Elec       q    Type
REMARK                         _______ _______ _______ _____ _____    ______ ____
ROOT
ATOM      1  C   UNL     1      -1.929  28.157  19.005  0.00  0.00    +0.000 A 
ATOM      2  C   UNL     1      -0.914  28.664  19.953  0.00  0.00    +0.000 A 
ATOM      3  C   UNL     1      -1.583  28.273  17.620  0.00  0.00    +0.000 A 
ATOM      4  C   UNL     1       0.284  29.169  19.350  0.00  0.00    +0.000 A 
ATOM      5  C   UNL     1      -0.332  28.809  16.904  0.00  0.00    +0.000 A 
ATOM      6  C   UNL     1       0.727  29.315  17.886  0.00  0.00    +0.000 A 
ENDROOT
BRANCH   1   7
ATOM      7  N   UNL     1      -3.124  27.528  19.429  0.00  0.00    +0.000 N 
ATOM      8  H   UNL     1      -3.954  28.091  19.276  0.00  0.00    +0.000 HD
ATOM      9  H   UNL     1      -3.087  27.141  20.366  0.00  0.00    +0.000 HD
ENDBRANCH   1   7
BRANCH   2  10
ATOM     10  N   UNL     1      -1.133  28.724  21.350  0.00  0.00    +0.000 N 
ATOM     11  H   UNL     1      -0.874  29.614  21.763  0.00  0.00    +0.000 HD
ATOM     12  H   UNL     1      -0.763  27.935  21.868  0.00  0.00    +0.000 HD
ENDBRANCH   2  10
TORSDOF 2
ENDMDL
MODEL 5
REMARK VINA RESULT:      -3.3     19.506     20.420
REMARK  Name = 43806_Diaminocyclohexane.pdbqt.pdb
REMARK  2 active torsions:
REMARK  status: ('A' for Active; 'I' for Inactive)
REMARK    1  A    between atoms: C_1  and  N_7
REMARK    2  A    between atoms: C_2  and  N_10
REMARK                            x       y       z     vdW  Elec       q    Type
REMARK                         _______ _______ _______ _____ _____    ______ ____
ROOT
ATOM      1  C   UNL     1     -25.608  36.250  19.946  0.00  0.00    +0.000 A 
ATOM      2  C   UNL     1     -24.600  35.370  19.315  0.00  0.00    +0.000 A 
ATOM      3  C   UNL     1     -25.200  37.611  20.130  0.00  0.00    +0.000 A 
ATOM      4  C   UNL     1     -23.373  36.014  18.948  0.00  0.00    +0.000 A 
ATOM      5  C   UNL     1     -23.908  38.364  19.775  0.00  0.00    +0.000 A 
ATOM      6  C   UNL     1     -22.873  37.459  19.103  0.00  0.00    +0.000 A 
ENDROOT
BRANCH   1   7
ATOM      7  N   UNL     1     -26.911  35.807  20.275  0.00  0.00    +0.000 N 
ATOM      8  H   UNL     1     -27.516  36.546  20.616  0.00  0.00    +0.000 HD
ATOM      9  H   UNL     1     -26.939  34.981  20.865  0.00  0.00    +0.000 HD
ENDBRANCH   1   7
BRANCH   2  10
ATOM     10  N   UNL     1     -24.794  33.978  19.153  0.00  0.00    +0.000 N 
ATOM     11  H   UNL     1     -24.569  33.643  18.222  0.00  0.00    +0.000 HD
ATOM     12  H   UNL     1     -25.692  33.637  19.480  0.00  0.00    +0.000 HD
ENDBRANCH   2  10
TORSDOF 2
ENDMDL
MODEL 6
REMARK VINA RESULT:      -3.2     17.536     18.430
REMARK  Name = 43806_Diaminocyclohexane.pdbqt.pdb
REMARK  2 active torsions:
REMARK  status: ('A' for Active; 'I' for Inactive)
REMARK    1  A    between atoms: C_1  and  N_7
REMARK    2  A    between atoms: C_2  and  N_10
REMARK                            x       y       z     vdW  Elec       q    Type
REMARK                         _______ _______ _______ _____ _____    ______ ____
ROOT
ATOM      1  C   UNL     1      -5.967  37.691   3.274  0.00  0.00    +0.000 A 
ATOM      2  C   UNL     1      -5.011  38.813   3.146  0.00  0.00    +0.000 A 
ATOM      3  C   UNL     1      -7.332  38.017   2.986  0.00  0.00    +0.000 A 
ATOM      4  C   UNL     1      -5.583  40.056   2.720  0.00  0.00    +0.000 A 
ATOM      5  C   UNL     1      -8.016  39.319   2.538  0.00  0.00    +0.000 A 
ATOM      6  C   UNL     1      -7.024  40.474   2.385  0.00  0.00    +0.000 A 
ENDROOT
BRANCH   1   7
ATOM      7  N   UNL     1      -5.559  36.371   3.580  0.00  0.00    +0.000 N 
ATOM      8  H   UNL     1      -6.269  35.831   4.065  0.00  0.00    +0.000 HD
ATOM      9  H   UNL     1      -4.650  36.304   4.027  0.00  0.00    +0.000 HD
ENDBRANCH   1   7
BRANCH   2  10
ATOM     10  N   UNL     1      -3.644  38.697   3.493  0.00  0.00    +0.000 N 
ATOM     11  H   UNL     1      -3.457  38.883   4.473  0.00  0.00    +0.000 HD
ATOM     12  H   UNL     1      -3.009  39.195   2.877  0.00  0.00    +0.000 HD
ENDBRANCH   2  10
TORSDOF 2
ENDMDL
MODEL 7
REMARK VINA RESULT:      -3.1     27.388     28.416
REMARK  Name = 43806_Diaminocyclohexane.pdbqt.pdb
REMARK  2 active torsions:
REMARK  status: ('A' for Active; 'I' for Inactive)
REMARK    1  A    between atoms: C_1  and  N_7
REMARK    2  A    between atoms: C_2  and  N_10
REMARK                            x       y       z     vdW  Elec       q    Type
REMARK                         _______ _______ _______ _____ _____    ______ ____
ROOT
ATOM      1  C   UNL     1       8.876  38.852   9.714  0.00  0.00    +0.000 A 
ATOM      2  C   UNL     1       8.939  40.325   9.586  0.00  0.00    +0.000 A 
ATOM      3  C   UNL     1       9.927  38.137   9.054  0.00  0.00    +0.000 A 
ATOM      4  C   UNL     1      10.061  40.825   8.847  0.00  0.00    +0.000 A 
ATOM      5  C   UNL     1      11.147  38.601   8.240  0.00  0.00    +0.000 A 
ATOM      6  C   UNL     1      11.223  40.125   8.126  0.00  0.00    +0.000 A 
ENDROOT
BRANCH   1   7
ATOM      7  N   UNL     1       7.898  38.194  10.497  0.00  0.00    +0.000 N 
ATOM      8  H   UNL     1       7.163  37.762   9.947  0.00  0.00    +0.000 HD
ATOM      9  H   UNL     1       7.532  38.747  11.266  0.00  0.00    +0.000 HD
ENDBRANCH   1   7
BRANCH   2  10
ATOM     10  N   UNL     1       7.928  41.180  10.085  0.00  0.00    +0.000 N 
ATOM     11  H   UNL     1       7.261  40.709  10.688  0.00  0.00    +0.000 HD
ATOM     12  H   UNL     1       7.475  41.752   9.380  0.00  0.00    +0.000 HD
ENDBRANCH   2  10
TORSDOF 2
ENDMDL
MODEL 8
REMARK VINA RESULT:      -3.1     21.618     21.965
REMARK  Name = 43806_Diaminocyclohexane.pdbqt.pdb
REMARK  2 active torsions:
REMARK  status: ('A' for Active; 'I' for Inactive)
REMARK    1  A    between atoms: C_1  and  N_7
REMARK    2  A    between atoms: C_2  and  N_10
REMARK                            x       y       z     vdW  Elec       q    Type
REMARK                         _______ _______ _______ _____ _____    ______ ____
ROOT
ATOM      1  C   UNL     1       5.762  53.824  15.395  0.00  0.00    +0.000 A 
ATOM      2  C   UNL     1       6.099  54.198  16.786  0.00  0.00    +0.000 A 
ATOM      3  C   UNL     1       4.362  53.799  15.092  0.00  0.00    +0.000 A 
ATOM      4  C   UNL     1       4.977  54.514  17.621  0.00  0.00    +0.000 A 
ATOM      5  C   UNL     1       3.113  54.114  15.931  0.00  0.00    +0.000 A 
ATOM      6  C   UNL     1       3.462  54.521  17.364  0.00  0.00    +0.000 A 
ENDROOT
BRANCH   1   7
ATOM      7  N   UNL     1       6.748  53.583  14.409  0.00  0.00    +0.000 N 
ATOM      8  H   UNL     1       6.855  54.347  13.749  0.00  0.00    +0.000 HD
ATOM      9  H   UNL     1       6.671  52.682  13.948  0.00  0.00    +0.000 HD
ENDBRANCH   1   7
BRANCH   2  10
ATOM     10  N   UNL     1       7.422  54.171  17.287  0.00  0.00    +0.000 N 
ATOM     11  H   UNL     1       7.482  53.884  18.259  0.00  0.00    +0.000 HD
ATOM     12  H   UNL     1       7.961  55.009  17.098  0.00  0.00    +0.000 HD
ENDBRANCH   2  10
TORSDOF 2
ENDMDL
MODEL 9
REMARK VINA RESULT:      -3.1     29.162     29.396
REMARK  Name = 43806_Diaminocyclohexane.pdbqt.pdb
REMARK  2 active torsions:
REMARK  status: ('A' for Active; 'I' for Inactive)
REMARK    1  A    between atoms: C_1  and  N_7
REMARK    2  A    between atoms: C_2  and  N_10
REMARK                            x       y       z     vdW  Elec       q    Type
REMARK                         _______ _______ _______ _____ _____    ______ ____
ROOT
ATOM      1  C   UNL     1      -1.387  28.256  18.912  0.00  0.00    +0.000 A 
ATOM      2  C   UNL     1      -1.936  28.223  20.285  0.00  0.00    +0.000 A 
ATOM      3  C   UNL     1      -2.188  27.606  17.919  0.00  0.00    +0.000 A 
ATOM      4  C   UNL     1      -3.207  27.573  20.418  0.00  0.00    +0.000 A 
ATOM      5  C   UNL     1      -3.544  26.884  17.988  0.00  0.00    +0.000 A 
ATOM      6  C   UNL     1      -4.122  26.868  19.405  0.00  0.00    +0.000 A 
ENDROOT
BRANCH   1   7
ATOM      7  N   UNL     1      -0.197  28.947  18.581  0.00  0.00    +0.000 N 
ATOM      8  H   UNL     1       0.566  28.770  19.226  0.00  0.00    +0.000 HD
ATOM      9  H   UNL     1      -0.323  29.937  18.394  0.00  0.00    +0.000 HD
ENDBRANCH   1   7
BRANCH   2  10
ATOM     10  N   UNL     1      -1.229  28.723  21.404  0.00  0.00    +0.000 N 
ATOM     11  H   UNL     1      -1.235  29.735  21.468  0.00  0.00    +0.000 HD
ATOM     12  H   UNL     1      -0.299  28.334  21.523  0.00  0.00    +0.000 HD
ENDBRANCH   2  10
TORSDOF 2
ENDMDL
