MODEL 1
REMARK VINA RESULT:      -7.8      0.000      0.000
REMARK  Name = 44234954_SipholenolL.pdbqt.pdb
REMARK  5 active torsions:
REMARK  status: ('A' for Active; 'I' for Inactive)
REMARK    1  A    between atoms: C_3  and  C_20
REMARK    2  A    between atoms: C_4  and  O_16
REMARK    3  A    between atoms: C_13  and  O_18
REMARK    4  A    between atoms: C_21  and  C_25
REMARK    5  A    between atoms: C_26  and  O_36
REMARK                            x       y       z     vdW  Elec       q    Type
REMARK                         _______ _______ _______ _____ _____    ______ ____
ROOT
ATOM      1  O   UNL     1       5.253  47.126  30.246  0.00  0.00    +0.000 OA
ATOM      2  C   UNL     1       2.665  47.007  29.966  0.00  0.00    +0.000 C 
ATOM      3  C   UNL     1       1.552  46.357  29.139  0.00  0.00    +0.000 C 
ATOM      4  C   UNL     1       1.596  44.864  28.869  0.00  0.00    +0.000 C 
ATOM      5  C   UNL     1       4.141  46.472  29.706  0.00  0.00    +0.000 C 
ATOM      6  C   UNL     1       2.818  48.428  29.621  0.00  0.00    +0.000 C 
ATOM      7  C   UNL     1       2.975  44.420  28.951  0.00  0.00    +0.000 C 
ATOM      8  C   UNL     1       4.241  45.117  29.327  0.00  0.00    +0.000 C 
ATOM      9  C   UNL     1       2.350  46.859  31.477  0.00  0.00    +0.000 C 
ATOM     10  C   UNL     1       3.883  49.460  29.347  0.00  0.00    +0.000 C 
ATOM     11  C   UNL     1       6.023  48.064  29.411  0.00  0.00    +0.000 C 
ATOM     12  C   UNL     1       0.635  44.091  29.767  0.00  0.00    +0.000 C 
ATOM     13  C   UNL     1       5.293  49.440  29.252  0.00  0.00    +0.000 C 
ATOM     14  C   UNL     1       7.363  48.288  30.163  0.00  0.00    +0.000 C 
ATOM     15  C   UNL     1       6.283  47.468  27.992  0.00  0.00    +0.000 C 
ENDROOT
BRANCH   4  16
ATOM     16  O   UNL     1       1.136  44.627  27.554  0.00  0.00    +0.000 OA
ATOM     17  H   UNL     1       1.947  44.280  27.138  0.00  0.00    +0.000 HD
ENDBRANCH   4  16
BRANCH  13  18
ATOM     18  O   UNL     1       5.956  50.577  28.806  0.00  0.00    +0.000 OA
ATOM     19  H   UNL     1       5.793  50.756  27.862  0.00  0.00    +0.000 HD
ENDBRANCH  13  18
BRANCH   3  20
ATOM     20  C   UNL     1       0.436  47.131  28.670  0.00  0.00    +0.000 C 
ATOM     21  C   UNL     1      -0.775  47.927  28.172  0.00  0.00    +0.000 C 
BRANCH  21  25
ATOM     22  C   UNL     1      -3.088  47.884  27.026  0.00  0.00    +0.000 A 
ATOM     23  C   UNL     1      -4.369  48.685  26.572  0.00  0.00    +0.000 A 
ATOM     24  C   UNL     1      -2.940  46.328  26.760  0.00  0.00    +0.000 C 
ATOM     25  C   UNL     1      -1.935  48.634  27.728  0.00  0.00    +0.000 A 
ATOM     26  C   UNL     1      -5.641  48.139  25.882  0.00  0.00    +0.000 C 
ATOM     27  C   UNL     1      -4.171  45.945  26.061  0.00  0.00    +0.000 C 
ATOM     28  C   UNL     1      -5.388  46.730  25.652  0.00  0.00    +0.000 C 
ATOM     29  C   UNL     1      -4.214  50.076  26.847  0.00  0.00    +0.000 A 
ATOM     30  C   UNL     1      -1.953  50.104  27.965  0.00  0.00    +0.000 A 
ATOM     31  C   UNL     1      -2.862  45.574  28.109  0.00  0.00    +0.000 C 
ATOM     32  C   UNL     1      -1.730  46.063  25.839  0.00  0.00    +0.000 C 
ATOM     33  C   UNL     1      -3.023  50.687  27.525  0.00  0.00    +0.000 A 
ATOM     34  C   UNL     1      -6.884  48.403  26.722  0.00  0.00    +0.000 C 
ATOM     35  C   UNL     1      -0.945  50.887  28.753  0.00  0.00    +0.000 C 
BRANCH  26  36
ATOM     36  O   UNL     1      -5.827  48.793  24.653  0.00  0.00    +0.000 OA
ATOM     37  H   UNL     1      -5.074  49.412  24.657  0.00  0.00    +0.000 HD
ENDBRANCH  26  36
ENDBRANCH  21  25
ENDBRANCH   3  20
TORSDOF 5
ENDMDL
MODEL 2
REMARK VINA RESULT:      -7.4     11.107     13.598
REMARK  Name = 44234954_SipholenolL.pdbqt.pdb
REMARK  5 active torsions:
REMARK  status: ('A' for Active; 'I' for Inactive)
REMARK    1  A    between atoms: C_3  and  C_20
REMARK    2  A    between atoms: C_4  and  O_16
REMARK    3  A    between atoms: C_13  and  O_18
REMARK    4  A    between atoms: C_21  and  C_25
REMARK    5  A    between atoms: C_26  and  O_36
REMARK                            x       y       z     vdW  Elec       q    Type
REMARK                         _______ _______ _______ _____ _____    ______ ____
ROOT
ATOM      1  O   UNL     1       1.827  57.552  25.533  0.00  0.00    +0.000 OA
ATOM      2  C   UNL     1       2.491  57.620  23.014  0.00  0.00    +0.000 C 
ATOM      3  C   UNL     1       2.148  57.036  21.642  0.00  0.00    +0.000 C 
ATOM      4  C   UNL     1       0.697  56.964  21.201  0.00  0.00    +0.000 C 
ATOM      5  C   UNL     1       1.504  57.250  24.206  0.00  0.00    +0.000 C 
ATOM      6  C   UNL     1       3.759  57.071  23.520  0.00  0.00    +0.000 C 
ATOM      7  C   UNL     1      -0.143  56.930  22.384  0.00  0.00    +0.000 C 
ATOM      8  C   UNL     1       0.157  57.047  23.841  0.00  0.00    +0.000 C 
ATOM      9  C   UNL     1       2.584  59.166  22.917  0.00  0.00    +0.000 C 
ATOM     10  C   UNL     1       4.381  56.529  24.782  0.00  0.00    +0.000 C 
ATOM     11  C   UNL     1       2.401  56.509  26.399  0.00  0.00    +0.000 C 
ATOM     12  C   UNL     1       0.343  58.071  20.213  0.00  0.00    +0.000 C 
ATOM     13  C   UNL     1       3.915  56.261  26.090  0.00  0.00    +0.000 C 
ATOM     14  C   UNL     1       2.265  57.048  27.849  0.00  0.00    +0.000 C 
ATOM     15  C   UNL     1       1.631  55.161  26.240  0.00  0.00    +0.000 C 
ENDROOT
BRANCH   4  16
ATOM     16  O   UNL     1       0.498  55.761  20.486  0.00  0.00    +0.000 OA
ATOM     17  H   UNL     1       0.655  55.104  21.190  0.00  0.00    +0.000 HD
ENDBRANCH   4  16
BRANCH  13  18
ATOM     18  O   UNL     1       4.746  55.586  26.976  0.00  0.00    +0.000 OA
ATOM     19  H   UNL     1       4.251  55.012  27.587  0.00  0.00    +0.000 HD
ENDBRANCH  13  18
BRANCH   3  20
ATOM     20  C   UNL     1       3.185  56.612  20.741  0.00  0.00    +0.000 C 
ATOM     21  C   UNL     1       4.265  56.152  19.757  0.00  0.00    +0.000 C 
BRANCH  21  25
ATOM     22  C   UNL     1       4.799  55.146  17.440  0.00  0.00    +0.000 A 
ATOM     23  C   UNL     1       5.897  54.714  16.392  0.00  0.00    +0.000 A 
ATOM     24  C   UNL     1       3.252  54.976  17.144  0.00  0.00    +0.000 C 
ATOM     25  C   UNL     1       5.240  55.729  18.801  0.00  0.00    +0.000 A 
ATOM     26  C   UNL     1       5.686  54.136  14.973  0.00  0.00    +0.000 C 
ATOM     27  C   UNL     1       3.185  54.376  15.808  0.00  0.00    +0.000 C 
ATOM     28  C   UNL     1       4.252  53.987  14.820  0.00  0.00    +0.000 C 
ATOM     29  C   UNL     1       7.204  54.886  16.936  0.00  0.00    +0.000 A 
ATOM     30  C   UNL     1       6.669  55.868  19.196  0.00  0.00    +0.000 A 
ATOM     31  C   UNL     1       2.571  56.366  17.115  0.00  0.00    +0.000 C 
ATOM     32  C   UNL     1       2.622  54.007  18.167  0.00  0.00    +0.000 C 
ATOM     33  C   UNL     1       7.499  55.452  18.294  0.00  0.00    +0.000 A 
ATOM     34  C   UNL     1       6.319  55.026  13.912  0.00  0.00    +0.000 C 
ATOM     35  C   UNL     1       7.184  56.543  20.433  0.00  0.00    +0.000 C 
BRANCH  26  36
ATOM     36  O   UNL     1       6.305  52.879  14.880  0.00  0.00    +0.000 OA
ATOM     37  H   UNL     1       6.763  52.960  14.024  0.00  0.00    +0.000 HD
ENDBRANCH  26  36
ENDBRANCH  21  25
ENDBRANCH   3  20
TORSDOF 5
ENDMDL
MODEL 3
REMARK VINA RESULT:      -6.8      3.269      5.652
REMARK  Name = 44234954_SipholenolL.pdbqt.pdb
REMARK  5 active torsions:
REMARK  status: ('A' for Active; 'I' for Inactive)
REMARK    1  A    between atoms: C_3  and  C_20
REMARK    2  A    between atoms: C_4  and  O_16
REMARK    3  A    between atoms: C_13  and  O_18
REMARK    4  A    between atoms: C_21  and  C_25
REMARK    5  A    between atoms: C_26  and  O_36
REMARK                            x       y       z     vdW  Elec       q    Type
REMARK                         _______ _______ _______ _____ _____    ______ ____
ROOT
ATOM      1  O   UNL     1       2.349  54.587  27.692  0.00  0.00    +0.000 OA
ATOM      2  C   UNL     1       1.444  52.393  28.768  0.00  0.00    +0.000 C 
ATOM      3  C   UNL     1       1.814  50.941  29.081  0.00  0.00    +0.000 C 
ATOM      4  C   UNL     1       3.159  50.631  29.712  0.00  0.00    +0.000 C 
ATOM      5  C   UNL     1       2.614  53.313  28.204  0.00  0.00    +0.000 C 
ATOM      6  C   UNL     1       0.475  52.465  27.663  0.00  0.00    +0.000 C 
ATOM      7  C   UNL     1       4.082  51.699  29.377  0.00  0.00    +0.000 C 
ATOM      8  C   UNL     1       3.911  52.996  28.657  0.00  0.00    +0.000 C 
ATOM      9  C   UNL     1       0.856  53.070  30.033  0.00  0.00    +0.000 C 
ATOM     10  C   UNL     1       0.190  53.242  26.402  0.00  0.00    +0.000 C 
ATOM     11  C   UNL     1       2.228  54.776  26.236  0.00  0.00    +0.000 C 
ATOM     12  C   UNL     1       3.040  50.352  31.207  0.00  0.00    +0.000 C 
ATOM     13  C   UNL     1       0.848  54.275  25.695  0.00  0.00    +0.000 C 
ATOM     14  C   UNL     1       2.333  56.308  26.004  0.00  0.00    +0.000 C 
ATOM     15  C   UNL     1       3.366  54.027  25.476  0.00  0.00    +0.000 C 
ENDROOT
BRANCH   4  16
ATOM     16  O   UNL     1       3.655  49.431  29.156  0.00  0.00    +0.000 OA
ATOM     17  H   UNL     1       4.307  49.173  29.834  0.00  0.00    +0.000 HD
ENDBRANCH   4  16
BRANCH  13  18
ATOM     18  O   UNL     1       0.369  54.645  24.444  0.00  0.00    +0.000 OA
ATOM     19  H   UNL     1       0.732  54.093  23.728  0.00  0.00    +0.000 HD
ENDBRANCH  13  18
BRANCH   3  20
ATOM     20  C   UNL     1       0.879  49.875  28.843  0.00  0.00    +0.000 C 
ATOM     21  C   UNL     1      -0.141  48.756  28.610  0.00  0.00    +0.000 C 
BRANCH  21  25
ATOM     22  C   UNL     1      -2.447  48.073  27.672  0.00  0.00    +0.000 A 
ATOM     23  C   UNL     1      -3.508  46.929  27.436  0.00  0.00    +0.000 A 
ATOM     24  C   UNL     1      -2.706  49.562  27.194  0.00  0.00    +0.000 C 
ATOM     25  C   UNL     1      -1.130  47.744  28.407  0.00  0.00    +0.000 A 
ATOM     26  C   UNL     1      -4.869  47.025  26.709  0.00  0.00    +0.000 C 
ATOM     27  C   UNL     1      -4.036  49.535  26.576  0.00  0.00    +0.000 C 
ATOM     28  C   UNL     1      -5.024  48.422  26.350  0.00  0.00    +0.000 C 
ATOM     29  C   UNL     1      -3.073  45.711  28.037  0.00  0.00    +0.000 A 
ATOM     30  C   UNL     1      -0.823  46.391  28.950  0.00  0.00    +0.000 A 
ATOM     31  C   UNL     1      -1.655  49.957  26.129  0.00  0.00    +0.000 C 
ATOM     32  C   UNL     1      -2.732  50.510  28.411  0.00  0.00    +0.000 C 
ATOM     33  C   UNL     1      -1.765  45.526  28.747  0.00  0.00    +0.000 A 
ATOM     34  C   UNL     1      -4.928  46.083  25.515  0.00  0.00    +0.000 C 
ATOM     35  C   UNL     1       0.479  45.953  29.554  0.00  0.00    +0.000 C 
BRANCH  26  36
ATOM     36  O   UNL     1      -5.899  46.646  27.586  0.00  0.00    +0.000 OA
ATOM     37  H   UNL     1      -5.464  46.775  28.449  0.00  0.00    +0.000 HD
ENDBRANCH  26  36
ENDBRANCH  21  25
ENDBRANCH   3  20
TORSDOF 5
ENDMDL
MODEL 4
REMARK VINA RESULT:      -6.6      3.693     11.212
REMARK  Name = 44234954_SipholenolL.pdbqt.pdb
REMARK  5 active torsions:
REMARK  status: ('A' for Active; 'I' for Inactive)
REMARK    1  A    between atoms: C_3  and  C_20
REMARK    2  A    between atoms: C_4  and  O_16
REMARK    3  A    between atoms: C_13  and  O_18
REMARK    4  A    between atoms: C_21  and  C_25
REMARK    5  A    between atoms: C_26  and  O_36
REMARK                            x       y       z     vdW  Elec       q    Type
REMARK                         _______ _______ _______ _____ _____    ______ ____
ROOT
ATOM      1  O   UNL     1     -11.459  49.942  28.072  0.00  0.00    +0.000 OA
ATOM      2  C   UNL     1      -9.137  49.574  26.948  0.00  0.00    +0.000 C 
ATOM      3  C   UNL     1      -8.380  48.671  25.971  0.00  0.00    +0.000 C 
ATOM      4  C   UNL     1      -9.020  48.300  24.646  0.00  0.00    +0.000 C 
ATOM      5  C   UNL     1     -10.704  49.324  27.070  0.00  0.00    +0.000 C 
ATOM      6  C   UNL     1      -8.707  49.332  28.334  0.00  0.00    +0.000 C 
ATOM      7  C   UNL     1     -10.461  48.394  24.787  0.00  0.00    +0.000 C 
ATOM      8  C   UNL     1     -11.339  48.857  25.901  0.00  0.00    +0.000 C 
ATOM      9  C   UNL     1      -8.906  51.061  26.573  0.00  0.00    +0.000 C 
ATOM     10  C   UNL     1      -9.268  49.163  29.723  0.00  0.00    +0.000 C 
ATOM     11  C   UNL     1     -11.788  49.198  29.300  0.00  0.00    +0.000 C 
ATOM     12  C   UNL     1      -8.449  49.112  23.487  0.00  0.00    +0.000 C 
ATOM     13  C   UNL     1     -10.568  49.111  30.276  0.00  0.00    +0.000 C 
ATOM     14  C   UNL     1     -12.925  50.005  29.984  0.00  0.00    +0.000 C 
ATOM     15  C   UNL     1     -12.267  47.751  28.967  0.00  0.00    +0.000 C 
ENDROOT
BRANCH   4  16
ATOM     16  O   UNL     1      -8.695  46.958  24.345  0.00  0.00    +0.000 OA
ATOM     17  H   UNL     1      -7.848  47.076  23.877  0.00  0.00    +0.000 HD
ENDBRANCH   4  16
BRANCH  13  18
ATOM     18  O   UNL     1     -10.719  48.765  31.613  0.00  0.00    +0.000 OA
ATOM     19  H   UNL     1     -10.913  49.535  32.177  0.00  0.00    +0.000 HD
ENDBRANCH  13  18
BRANCH   3  20
ATOM     20  C   UNL     1      -7.047  48.221  26.266  0.00  0.00    +0.000 C 
ATOM     21  C   UNL     1      -5.617  47.747  26.547  0.00  0.00    +0.000 C 
BRANCH  21  25
ATOM     22  C   UNL     1      -3.389  48.050  27.815  0.00  0.00    +0.000 A 
ATOM     23  C   UNL     1      -1.912  47.551  28.059  0.00  0.00    +0.000 A 
ATOM     24  C   UNL     1      -3.991  49.287  28.602  0.00  0.00    +0.000 C 
ATOM     25  C   UNL     1      -4.268  47.331  26.768  0.00  0.00    +0.000 A 
ATOM     26  C   UNL     1      -0.873  48.099  29.065  0.00  0.00    +0.000 C 
ATOM     27  C   UNL     1      -2.905  49.746  29.474  0.00  0.00    +0.000 C 
ATOM     28  C   UNL     1      -1.505  49.241  29.697  0.00  0.00    +0.000 C 
ATOM     29  C   UNL     1      -1.589  46.486  27.166  0.00  0.00    +0.000 A 
ATOM     30  C   UNL     1      -3.771  46.201  25.935  0.00  0.00    +0.000 A 
ATOM     31  C   UNL     1      -5.183  48.821  29.471  0.00  0.00    +0.000 C 
ATOM     32  C   UNL     1      -4.357  50.414  27.612  0.00  0.00    +0.000 C 
ATOM     33  C   UNL     1      -2.538  45.885  26.172  0.00  0.00    +0.000 A 
ATOM     34  C   UNL     1      -0.436  47.025  30.051  0.00  0.00    +0.000 C 
ATOM     35  C   UNL     1      -4.591  45.365  24.997  0.00  0.00    +0.000 C 
BRANCH  26  36
ATOM     36  O   UNL     1       0.275  48.518  28.374  0.00  0.00    +0.000 OA
ATOM     37  H   UNL     1       0.297  47.873  27.643  0.00  0.00    +0.000 HD
ENDBRANCH  26  36
ENDBRANCH  21  25
ENDBRANCH   3  20
TORSDOF 5
ENDMDL
MODEL 5
REMARK VINA RESULT:      -6.5      5.226     12.977
REMARK  Name = 44234954_SipholenolL.pdbqt.pdb
REMARK  5 active torsions:
REMARK  status: ('A' for Active; 'I' for Inactive)
REMARK    1  A    between atoms: C_3  and  C_20
REMARK    2  A    between atoms: C_4  and  O_16
REMARK    3  A    between atoms: C_13  and  O_18
REMARK    4  A    between atoms: C_21  and  C_25
REMARK    5  A    between atoms: C_26  and  O_36
REMARK                            x       y       z     vdW  Elec       q    Type
REMARK                         _______ _______ _______ _____ _____    ______ ____
ROOT
ATOM      1  O   UNL     1     -14.228  50.648  27.566  0.00  0.00    +0.000 OA
ATOM      2  C   UNL     1     -11.696  50.268  27.081  0.00  0.00    +0.000 C 
ATOM      3  C   UNL     1     -10.718  49.375  26.314  0.00  0.00    +0.000 C 
ATOM      4  C   UNL     1     -10.991  49.044  24.858  0.00  0.00    +0.000 C 
ATOM      5  C   UNL     1     -13.242  50.041  26.781  0.00  0.00    +0.000 C 
ATOM      6  C   UNL     1     -11.647  49.988  28.524  0.00  0.00    +0.000 C 
ATOM      7  C   UNL     1     -12.417  49.159  24.618  0.00  0.00    +0.000 C 
ATOM      8  C   UNL     1     -13.553  49.610  25.475  0.00  0.00    +0.000 C 
ATOM      9  C   UNL     1     -11.361  51.759  26.818  0.00  0.00    +0.000 C 
ATOM     10  C   UNL     1     -12.555  49.797  29.713  0.00  0.00    +0.000 C 
ATOM     11  C   UNL     1     -14.875  49.882  28.644  0.00  0.00    +0.000 C 
ATOM     12  C   UNL     1     -10.128  49.873  23.911  0.00  0.00    +0.000 C 
ATOM     13  C   UNL     1     -13.955  49.753  29.904  0.00  0.00    +0.000 C 
ATOM     14  C   UNL     1     -16.144  50.691  29.028  0.00  0.00    +0.000 C 
ATOM     15  C   UNL     1     -15.263  48.450  28.160  0.00  0.00    +0.000 C 
ENDROOT
BRANCH   4  16
ATOM     16  O   UNL     1     -10.611  47.704  24.617  0.00  0.00    +0.000 OA
ATOM     17  H   UNL     1     -10.765  47.311  25.497  0.00  0.00    +0.000 HD
ENDBRANCH   4  16
BRANCH  13  18
ATOM     18  O   UNL     1     -14.455  49.379  31.146  0.00  0.00    +0.000 OA
ATOM     19  H   UNL     1     -15.352  49.006  31.088  0.00  0.00    +0.000 HD
ENDBRANCH  13  18
BRANCH   3  20
ATOM     20  C   UNL     1      -9.513  48.897  26.936  0.00  0.00    +0.000 C 
ATOM     21  C   UNL     1      -8.216  48.420  27.598  0.00  0.00    +0.000 C 
BRANCH  21  25
ATOM     22  C   UNL     1      -5.870  47.361  27.406  0.00  0.00    +0.000 A 
ATOM     23  C   UNL     1      -4.522  46.960  28.123  0.00  0.00    +0.000 A 
ATOM     24  C   UNL     1      -6.110  47.081  25.865  0.00  0.00    +0.000 C 
ATOM     25  C   UNL     1      -6.996  48.024  28.229  0.00  0.00    +0.000 A 
ATOM     26  C   UNL     1      -3.264  46.315  27.496  0.00  0.00    +0.000 C 
ATOM     27  C   UNL     1      -4.882  46.427  25.403  0.00  0.00    +0.000 C 
ATOM     28  C   UNL     1      -3.601  46.068  26.107  0.00  0.00    +0.000 C 
ATOM     29  C   UNL     1      -4.596  47.237  29.519  0.00  0.00    +0.000 A 
ATOM     30  C   UNL     1      -6.890  48.269  29.694  0.00  0.00    +0.000 A 
ATOM     31  C   UNL     1      -6.288  48.423  25.113  0.00  0.00    +0.000 C 
ATOM     32  C   UNL     1      -7.299  46.114  25.683  0.00  0.00    +0.000 C 
ATOM     33  C   UNL     1      -5.769  47.873  30.206  0.00  0.00    +0.000 A 
ATOM     34  C   UNL     1      -2.040  47.202  27.674  0.00  0.00    +0.000 C 
ATOM     35  C   UNL     1      -7.874  49.024  30.540  0.00  0.00    +0.000 C 
BRANCH  26  36
ATOM     36  O   UNL     1      -2.990  45.097  28.139  0.00  0.00    +0.000 OA
ATOM     37  H   UNL     1      -3.239  44.460  27.445  0.00  0.00    +0.000 HD
ENDBRANCH  26  36
ENDBRANCH  21  25
ENDBRANCH   3  20
TORSDOF 5
ENDMDL
MODEL 6
REMARK VINA RESULT:      -6.5     28.109     32.171
REMARK  Name = 44234954_SipholenolL.pdbqt.pdb
REMARK  5 active torsions:
REMARK  status: ('A' for Active; 'I' for Inactive)
REMARK    1  A    between atoms: C_3  and  C_20
REMARK    2  A    between atoms: C_4  and  O_16
REMARK    3  A    between atoms: C_13  and  O_18
REMARK    4  A    between atoms: C_21  and  C_25
REMARK    5  A    between atoms: C_26  and  O_36
REMARK                            x       y       z     vdW  Elec       q    Type
REMARK                         _______ _______ _______ _____ _____    ______ ____
ROOT
ATOM      1  O   UNL     1     -17.785  44.013   1.286  0.00  0.00    +0.000 OA
ATOM      2  C   UNL     1     -17.867  42.575   3.457  0.00  0.00    +0.000 C 
ATOM      3  C   UNL     1     -17.039  41.629   4.330  0.00  0.00    +0.000 C 
ATOM      4  C   UNL     1     -15.615  42.006   4.699  0.00  0.00    +0.000 C 
ATOM      5  C   UNL     1     -17.094  43.295   2.267  0.00  0.00    +0.000 C 
ATOM      6  C   UNL     1     -18.900  41.838   2.713  0.00  0.00    +0.000 C 
ATOM      7  C   UNL     1     -15.102  42.912   3.689  0.00  0.00    +0.000 C 
ATOM      8  C   UNL     1     -15.729  43.561   2.500  0.00  0.00    +0.000 C 
ATOM      9  C   UNL     1     -18.526  43.664   4.342  0.00  0.00    +0.000 C 
ATOM     10  C   UNL     1     -19.520  41.750   1.341  0.00  0.00    +0.000 C 
ATOM     11  C   UNL     1     -18.082  43.377  -0.009  0.00  0.00    +0.000 C 
ATOM     12  C   UNL     1     -15.514  42.535   6.126  0.00  0.00    +0.000 C 
ATOM     13  C   UNL     1     -19.279  42.373   0.095  0.00  0.00    +0.000 C 
ATOM     14  C   UNL     1     -18.479  44.537  -0.962  0.00  0.00    +0.000 C 
ATOM     15  C   UNL     1     -16.836  42.616  -0.560  0.00  0.00    +0.000 C 
ENDROOT
BRANCH   4  16
ATOM     16  O   UNL     1     -14.819  40.838   4.686  0.00  0.00    +0.000 OA
ATOM     17  H   UNL     1     -13.956  41.203   4.958  0.00  0.00    +0.000 HD
ENDBRANCH   4  16
BRANCH  13  18
ATOM     18  O   UNL     1     -19.953  41.914  -1.030  0.00  0.00    +0.000 OA
ATOM     19  H   UNL     1     -20.604  41.221  -0.817  0.00  0.00    +0.000 HD
ENDBRANCH  13  18
BRANCH   3  20
ATOM     20  C   UNL     1     -17.612  40.421   4.857  0.00  0.00    +0.000 C 
ATOM     21  C   UNL     1     -18.208  39.140   5.450  0.00  0.00    +0.000 C 
BRANCH  21  25
ATOM     22  C   UNL     1     -20.284  37.725   6.046  0.00  0.00    +0.000 A 
ATOM     23  C   UNL     1     -20.861  36.405   6.690  0.00  0.00    +0.000 A 
ATOM     24  C   UNL     1     -21.231  38.828   5.415  0.00  0.00    +0.000 C 
ATOM     25  C   UNL     1     -18.758  37.965   6.049  0.00  0.00    +0.000 A 
ATOM     26  C   UNL     1     -22.337  35.951   6.774  0.00  0.00    +0.000 C 
ATOM     27  C   UNL     1     -22.590  38.312   5.603  0.00  0.00    +0.000 C 
ATOM     28  C   UNL     1     -23.114  37.038   6.210  0.00  0.00    +0.000 C 
ATOM     29  C   UNL     1     -19.812  35.627   7.263  0.00  0.00    +0.000 A 
ATOM     30  C   UNL     1     -17.793  37.019   6.674  0.00  0.00    +0.000 A 
ATOM     31  C   UNL     1     -20.939  38.960   3.900  0.00  0.00    +0.000 C 
ATOM     32  C   UNL     1     -21.081  40.157   6.186  0.00  0.00    +0.000 C 
ATOM     33  C   UNL     1     -18.356  35.985   7.213  0.00  0.00    +0.000 A 
ATOM     34  C   UNL     1     -22.550  34.622   6.064  0.00  0.00    +0.000 C 
ATOM     35  C   UNL     1     -16.296  37.105   6.605  0.00  0.00    +0.000 C 
BRANCH  26  36
ATOM     36  O   UNL     1     -22.694  35.764   8.119  0.00  0.00    +0.000 OA
ATOM     37  H   UNL     1     -22.864  34.804   8.134  0.00  0.00    +0.000 HD
ENDBRANCH  26  36
ENDBRANCH  21  25
ENDBRANCH   3  20
TORSDOF 5
ENDMDL
MODEL 7
REMARK VINA RESULT:      -6.5      6.031     12.423
REMARK  Name = 44234954_SipholenolL.pdbqt.pdb
REMARK  5 active torsions:
REMARK  status: ('A' for Active; 'I' for Inactive)
REMARK    1  A    between atoms: C_3  and  C_20
REMARK    2  A    between atoms: C_4  and  O_16
REMARK    3  A    between atoms: C_13  and  O_18
REMARK    4  A    between atoms: C_21  and  C_25
REMARK    5  A    between atoms: C_26  and  O_36
REMARK                            x       y       z     vdW  Elec       q    Type
REMARK                         _______ _______ _______ _____ _____    ______ ____
ROOT
ATOM      1  O   UNL     1     -11.781  53.732  25.195  0.00  0.00    +0.000 OA
ATOM      2  C   UNL     1     -10.997  51.334  25.851  0.00  0.00    +0.000 C 
ATOM      3  C   UNL     1     -11.131  50.256  26.928  0.00  0.00    +0.000 C 
ATOM      4  C   UNL     1     -12.507  49.891  27.455  0.00  0.00    +0.000 C 
ATOM      5  C   UNL     1     -11.956  52.597  25.994  0.00  0.00    +0.000 C 
ATOM      6  C   UNL     1      -9.676  51.979  25.909  0.00  0.00    +0.000 C 
ATOM      7  C   UNL     1     -13.391  51.026  27.262  0.00  0.00    +0.000 C 
ATOM      8  C   UNL     1     -13.207  52.348  26.593  0.00  0.00    +0.000 C 
ATOM      9  C   UNL     1     -11.221  50.708  24.450  0.00  0.00    +0.000 C 
ATOM     10  C   UNL     1      -9.031  53.340  25.840  0.00  0.00    +0.000 C 
ATOM     11  C   UNL     1     -11.056  54.896  25.731  0.00  0.00    +0.000 C 
ATOM     12  C   UNL     1     -13.023  48.586  26.855  0.00  0.00    +0.000 C 
ATOM     13  C   UNL     1      -9.508  54.667  25.739  0.00  0.00    +0.000 C 
ATOM     14  C   UNL     1     -11.386  56.071  24.771  0.00  0.00    +0.000 C 
ATOM     15  C   UNL     1     -11.521  55.226  27.184  0.00  0.00    +0.000 C 
ENDROOT
BRANCH   4  16
ATOM     16  O   UNL     1     -12.410  49.640  28.842  0.00  0.00    +0.000 OA
ATOM     17  H   UNL     1     -12.250  48.678  28.843  0.00  0.00    +0.000 HD
ENDBRANCH   4  16
BRANCH  13  18
ATOM     18  O   UNL     1      -8.609  55.718  25.876  0.00  0.00    +0.000 OA
ATOM     19  H   UNL     1      -8.934  56.409  26.480  0.00  0.00    +0.000 HD
ENDBRANCH  13  18
BRANCH   3  20
ATOM     20  C   UNL     1      -9.978  49.541  27.402  0.00  0.00    +0.000 C 
ATOM     21  C   UNL     1      -8.751  48.757  27.879  0.00  0.00    +0.000 C 
BRANCH  21  25
ATOM     22  C   UNL     1      -6.683  47.360  27.216  0.00  0.00    +0.000 A 
ATOM     23  C   UNL     1      -5.404  46.562  27.683  0.00  0.00    +0.000 A 
ATOM     24  C   UNL     1      -7.067  47.497  25.685  0.00  0.00    +0.000 C 
ATOM     25  C   UNL     1      -7.601  48.007  28.276  0.00  0.00    +0.000 A 
ATOM     26  C   UNL     1      -4.343  45.862  26.803  0.00  0.00    +0.000 C 
ATOM     27  C   UNL     1      -6.027  46.754  24.966  0.00  0.00    +0.000 C 
ATOM     28  C   UNL     1      -4.805  46.012  25.437  0.00  0.00    +0.000 C 
ATOM     29  C   UNL     1      -5.336  46.513  29.106  0.00  0.00    +0.000 A 
ATOM     30  C   UNL     1      -7.359  47.879  29.741  0.00  0.00    +0.000 A 
ATOM     31  C   UNL     1      -7.015  48.986  25.266  0.00  0.00    +0.000 C 
ATOM     32  C   UNL     1      -8.436  46.834  25.423  0.00  0.00    +0.000 C 
ATOM     33  C   UNL     1      -6.313  47.175  30.034  0.00  0.00    +0.000 A 
ATOM     34  C   UNL     1      -2.956  46.442  27.040  0.00  0.00    +0.000 C 
ATOM     35  C   UNL     1      -8.117  48.583  30.828  0.00  0.00    +0.000 C 
BRANCH  26  36
ATOM     36  O   UNL     1      -4.283  44.498  27.134  0.00  0.00    +0.000 OA
ATOM     37  H   UNL     1      -3.325  44.384  27.275  0.00  0.00    +0.000 HD
ENDBRANCH  26  36
ENDBRANCH  21  25
ENDBRANCH   3  20
TORSDOF 5
ENDMDL
MODEL 8
REMARK VINA RESULT:      -6.4     27.821     31.717
REMARK  Name = 44234954_SipholenolL.pdbqt.pdb
REMARK  5 active torsions:
REMARK  status: ('A' for Active; 'I' for Inactive)
REMARK    1  A    between atoms: C_3  and  C_20
REMARK    2  A    between atoms: C_4  and  O_16
REMARK    3  A    between atoms: C_13  and  O_18
REMARK    4  A    between atoms: C_21  and  C_25
REMARK    5  A    between atoms: C_26  and  O_36
REMARK                            x       y       z     vdW  Elec       q    Type
REMARK                         _______ _______ _______ _____ _____    ______ ____
ROOT
ATOM      1  O   UNL     1     -16.788  43.087   1.137  0.00  0.00    +0.000 OA
ATOM      2  C   UNL     1     -17.324  41.975   3.432  0.00  0.00    +0.000 C 
ATOM      3  C   UNL     1     -16.700  41.180   4.581  0.00  0.00    +0.000 C 
ATOM      4  C   UNL     1     -15.376  41.630   5.170  0.00  0.00    +0.000 C 
ATOM      5  C   UNL     1     -16.318  42.530   2.331  0.00  0.00    +0.000 C 
ATOM      6  C   UNL     1     -18.195  41.121   2.610  0.00  0.00    +0.000 C 
ATOM      7  C   UNL     1     -14.658  42.391   4.164  0.00  0.00    +0.000 C 
ATOM      8  C   UNL     1     -15.025  42.850   2.792  0.00  0.00    +0.000 C 
ATOM      9  C   UNL     1     -18.135  43.169   4.000  0.00  0.00    +0.000 C 
ATOM     10  C   UNL     1     -18.526  40.826   1.169  0.00  0.00    +0.000 C 
ATOM     11  C   UNL     1     -16.826  42.266  -0.085  0.00  0.00    +0.000 C 
ATOM     12  C   UNL     1     -15.557  42.361   6.497  0.00  0.00    +0.000 C 
ATOM     13  C   UNL     1     -18.031  41.266  -0.080  0.00  0.00    +0.000 C 
ATOM     14  C   UNL     1     -17.009  43.269  -1.256  0.00  0.00    +0.000 C 
ATOM     15  C   UNL     1     -15.504  41.455  -0.258  0.00  0.00    +0.000 C 
ENDROOT
BRANCH   4  16
ATOM     16  O   UNL     1     -14.607  40.487   5.487  0.00  0.00    +0.000 OA
ATOM     17  H   UNL     1     -13.970  40.866   6.121  0.00  0.00    +0.000 HD
ENDBRANCH   4  16
BRANCH  13  18
ATOM     18  O   UNL     1     -18.470  40.638  -1.239  0.00  0.00    +0.000 OA
ATOM     19  H   UNL     1     -19.406  40.828  -1.433  0.00  0.00    +0.000 HD
ENDBRANCH  13  18
BRANCH   3  20
ATOM     20  C   UNL     1     -17.382  40.050   5.151  0.00  0.00    +0.000 C 
ATOM     21  C   UNL     1     -18.140  38.862   5.753  0.00  0.00    +0.000 C 
BRANCH  21  25
ATOM     22  C   UNL     1     -18.398  36.318   6.108  0.00  0.00    +0.000 A 
ATOM     23  C   UNL     1     -19.230  35.134   6.738  0.00  0.00    +0.000 A 
ATOM     24  C   UNL     1     -17.079  36.056   5.269  0.00  0.00    +0.000 C 
ATOM     25  C   UNL     1     -18.889  37.771   6.292  0.00  0.00    +0.000 A 
ATOM     26  C   UNL     1     -18.914  33.621   6.702  0.00  0.00    +0.000 C 
ATOM     27  C   UNL     1     -16.919  34.598   5.262  0.00  0.00    +0.000 C 
ATOM     28  C   UNL     1     -17.723  33.489   5.886  0.00  0.00    +0.000 C 
ATOM     29  C   UNL     1     -20.412  35.630   7.362  0.00  0.00    +0.000 A 
ATOM     30  C   UNL     1     -20.149  38.113   7.008  0.00  0.00    +0.000 A 
ATOM     31  C   UNL     1     -15.868  36.700   5.987  0.00  0.00    +0.000 C 
ATOM     32  C   UNL     1     -17.268  36.553   3.820  0.00  0.00    +0.000 C 
ATOM     33  C   UNL     1     -20.788  37.080   7.456  0.00  0.00    +0.000 A 
ATOM     34  C   UNL     1     -18.753  33.054   8.105  0.00  0.00    +0.000 C 
ATOM     35  C   UNL     1     -20.628  39.494   7.347  0.00  0.00    +0.000 C 
BRANCH  26  36
ATOM     36  O   UNL     1     -19.979  32.933   6.098  0.00  0.00    +0.000 OA
ATOM     37  H   UNL     1     -20.281  33.594   5.447  0.00  0.00    +0.000 HD
ENDBRANCH  26  36
ENDBRANCH  21  25
ENDBRANCH   3  20
TORSDOF 5
ENDMDL
MODEL 9
REMARK VINA RESULT:      -6.1      5.377     12.157
REMARK  Name = 44234954_SipholenolL.pdbqt.pdb
REMARK  5 active torsions:
REMARK  status: ('A' for Active; 'I' for Inactive)
REMARK    1  A    between atoms: C_3  and  C_20
REMARK    2  A    between atoms: C_4  and  O_16
REMARK    3  A    between atoms: C_13  and  O_18
REMARK    4  A    between atoms: C_21  and  C_25
REMARK    5  A    between atoms: C_26  and  O_36
REMARK                            x       y       z     vdW  Elec       q    Type
REMARK                         _______ _______ _______ _____ _____    ______ ____
ROOT
ATOM      1  O   UNL     1     -12.530  49.808  31.757  0.00  0.00    +0.000 OA
ATOM      2  C   UNL     1     -11.013  49.589  29.649  0.00  0.00    +0.000 C 
ATOM      3  C   UNL     1     -10.847  48.821  28.336  0.00  0.00    +0.000 C 
ATOM      4  C   UNL     1     -12.046  48.627  27.426  0.00  0.00    +0.000 C 
ATOM      5  C   UNL     1     -12.360  49.326  30.455  0.00  0.00    +0.000 C 
ATOM      6  C   UNL     1     -10.009  49.168  30.638  0.00  0.00    +0.000 C 
ATOM      7  C   UNL     1     -13.252  48.703  28.229  0.00  0.00    +0.000 C 
ATOM      8  C   UNL     1     -13.489  49.016  29.669  0.00  0.00    +0.000 C 
ATOM      9  C   UNL     1     -10.891  51.113  29.385  0.00  0.00    +0.000 C 
ATOM     10  C   UNL     1      -9.877  48.819  32.099  0.00  0.00    +0.000 C 
ATOM     11  C   UNL     1     -12.302  48.910  32.901  0.00  0.00    +0.000 C 
ATOM     12  C   UNL     1     -12.024  49.584  26.237  0.00  0.00    +0.000 C 
ATOM     13  C   UNL     1     -10.777  48.695  33.182  0.00  0.00    +0.000 C 
ATOM     14  C   UNL     1     -12.944  49.620  34.124  0.00  0.00    +0.000 C 
ATOM     15  C   UNL     1     -12.968  47.518  32.664  0.00  0.00    +0.000 C 
ENDROOT
BRANCH   4  16
ATOM     16  O   UNL     1     -11.979  47.336  26.855  0.00  0.00    +0.000 OA
ATOM     17  H   UNL     1     -11.014  47.191  26.846  0.00  0.00    +0.000 HD
ENDBRANCH   4  16
BRANCH  13  18
ATOM     18  O   UNL     1     -10.317  48.177  34.387  0.00  0.00    +0.000 OA
ATOM     19  H   UNL     1     -11.037  48.015  35.021  0.00  0.00    +0.000 HD
ENDBRANCH  13  18
BRANCH   3  20
ATOM     20  C   UNL     1      -9.558  48.336  27.924  0.00  0.00    +0.000 C 
ATOM     21  C   UNL     1      -8.175  47.852  27.477  0.00  0.00    +0.000 C 
BRANCH  21  25
ATOM     22  C   UNL     1      -5.672  47.556  28.039  0.00  0.00    +0.000 A 
ATOM     23  C   UNL     1      -4.245  47.075  27.568  0.00  0.00    +0.000 A 
ATOM     24  C   UNL     1      -5.912  48.170  29.481  0.00  0.00    +0.000 C 
ATOM     25  C   UNL     1      -6.867  47.448  27.066  0.00  0.00    +0.000 A 
ATOM     26  C   UNL     1      -2.927  47.067  28.376  0.00  0.00    +0.000 C 
ATOM     27  C   UNL     1      -4.593  48.158  30.121  0.00  0.00    +0.000 C 
ATOM     28  C   UNL     1      -3.245  47.679  29.652  0.00  0.00    +0.000 C 
ATOM     29  C   UNL     1      -4.283  46.651  26.208  0.00  0.00    +0.000 A 
ATOM     30  C   UNL     1      -6.730  46.945  25.671  0.00  0.00    +0.000 A 
ATOM     31  C   UNL     1      -6.876  47.261  30.280  0.00  0.00    +0.000 C 
ATOM     32  C   UNL     1      -6.403  49.628  29.358  0.00  0.00    +0.000 C 
ATOM     33  C   UNL     1      -5.519  46.612  25.357  0.00  0.00    +0.000 A 
ATOM     34  C   UNL     1      -2.362  45.659  28.503  0.00  0.00    +0.000 C 
ATOM     35  C   UNL     1      -7.852  46.682  24.710  0.00  0.00    +0.000 C 
BRANCH  26  36
ATOM     36  O   UNL     1      -1.962  47.840  27.710  0.00  0.00    +0.000 OA
ATOM     37  H   UNL     1      -2.156  48.727  28.067  0.00  0.00    +0.000 HD
ENDBRANCH  26  36
ENDBRANCH  21  25
ENDBRANCH   3  20
TORSDOF 5
ENDMDL
