MODEL 1
REMARK VINA RESULT:      -6.3      0.000      0.000
REMARK  Name = 442793_6gingerol.pdbqt.pdb
REMARK  7 active torsions:
REMARK  status: ('A' for Active; 'I' for Inactive)
REMARK    1  A    between atoms: C_1  and  C_3
REMARK    2  A    between atoms: C_5  and  O_6
REMARK    3  A    between atoms: C_5  and  C_8
REMARK    4  A    between atoms: C_9  and  C_10
REMARK    5  A    between atoms: C_13  and  C_14
REMARK    6  A    between atoms: C_17  and  O_20
REMARK    7  A    between atoms: C_19  and  O_22
REMARK                            x       y       z     vdW  Elec       q    Type
REMARK                         _______ _______ _______ _____ _____    ______ ____
ROOT
ATOM      1  C   UNL     1      -5.615  46.120  25.624  0.00  0.00    +0.000 C 
ATOM      2  C   UNL     1      -7.002  46.733  25.389  0.00  0.00    +0.000 C 
ENDROOT
BRANCH   2   3
ATOM      3  C   UNL     1      -8.290  47.300  25.174  0.00  0.00    +0.000 A 
ATOM      4  C   UNL     1      -9.352  46.942  26.002  0.00  0.00    +0.000 A 
ATOM      5  C   UNL     1      -8.484  48.209  24.138  0.00  0.00    +0.000 A 
ATOM      6  C   UNL     1     -10.623  47.490  25.802  0.00  0.00    +0.000 A 
ATOM      7  C   UNL     1      -9.744  48.763  23.928  0.00  0.00    +0.000 A 
ATOM      8  C   UNL     1     -10.805  48.402  24.758  0.00  0.00    +0.000 A 
BRANCH   6   9
ATOM      9  O   UNL     1     -11.724  47.193  26.569  0.00  0.00    +0.000 OA
ATOM     10  C   UNL     1     -11.881  47.966  27.729  0.00  0.00    +0.000 C 
ENDBRANCH   6   9
BRANCH   8  11
ATOM     11  O   UNL     1     -12.040  48.949  24.547  0.00  0.00    +0.000 OA
ATOM     12  H   UNL     1     -12.434  49.172  25.410  0.00  0.00    +0.000 HD
ENDBRANCH   8  11
ENDBRANCH   2   3
BRANCH   1  14
ATOM     13  O   UNL     1      -4.133  44.346  25.683  0.00  0.00    +0.000 OA
ATOM     14  C   UNL     1      -4.313  45.543  25.847  0.00  0.00    +0.000 C 
ATOM     15  C   UNL     1      -3.229  46.386  26.266  0.00  0.00    +0.000 C 
ATOM     16  C   UNL     1      -2.160  47.211  26.680  0.00  0.00    +0.000 C 
BRANCH  16  17
ATOM     17  O   UNL     1      -2.341  48.570  26.597  0.00  0.00    +0.000 OA
ATOM     18  H   UNL     1      -3.284  48.808  26.565  0.00  0.00    +0.000 HD
ENDBRANCH  16  17
BRANCH  16  19
ATOM     19  C   UNL     1      -0.929  46.712  27.172  0.00  0.00    +0.000 C 
ATOM     20  C   UNL     1       0.403  46.179  27.710  0.00  0.00    +0.000 C 
BRANCH  20  21
ATOM     21  C   UNL     1       1.736  45.653  28.251  0.00  0.00    +0.000 C 
ATOM     22  C   UNL     1       3.069  45.128  28.794  0.00  0.00    +0.000 C 
ATOM     23  C   UNL     1       4.402  44.608  29.342  0.00  0.00    +0.000 C 
ENDBRANCH  20  21
ENDBRANCH  16  19
ENDBRANCH   1  14
TORSDOF 7
ENDMDL
MODEL 2
REMARK VINA RESULT:      -5.9      1.775      2.580
REMARK  Name = 442793_6gingerol.pdbqt.pdb
REMARK  7 active torsions:
REMARK  status: ('A' for Active; 'I' for Inactive)
REMARK    1  A    between atoms: C_1  and  C_3
REMARK    2  A    between atoms: C_5  and  O_6
REMARK    3  A    between atoms: C_5  and  C_8
REMARK    4  A    between atoms: C_9  and  C_10
REMARK    5  A    between atoms: C_13  and  C_14
REMARK    6  A    between atoms: C_17  and  O_20
REMARK    7  A    between atoms: C_19  and  O_22
REMARK                            x       y       z     vdW  Elec       q    Type
REMARK                         _______ _______ _______ _____ _____    ______ ____
ROOT
ATOM      1  C   UNL     1      -5.074  48.731  26.202  0.00  0.00    +0.000 C 
ATOM      2  C   UNL     1      -6.515  48.698  25.679  0.00  0.00    +0.000 C 
ENDROOT
BRANCH   2   3
ATOM      3  C   UNL     1      -7.854  48.665  25.194  0.00  0.00    +0.000 A 
ATOM      4  C   UNL     1      -8.585  49.848  25.095  0.00  0.00    +0.000 A 
ATOM      5  C   UNL     1      -8.428  47.453  24.822  0.00  0.00    +0.000 A 
ATOM      6  C   UNL     1      -9.900  49.831  24.622  0.00  0.00    +0.000 A 
ATOM      7  C   UNL     1      -9.737  47.422  24.349  0.00  0.00    +0.000 A 
ATOM      8  C   UNL     1     -10.465  48.607  24.252  0.00  0.00    +0.000 A 
BRANCH   6   9
ATOM      9  O   UNL     1     -10.691  50.947  24.494  0.00  0.00    +0.000 OA
ATOM     10  C   UNL     1     -10.704  51.811  25.599  0.00  0.00    +0.000 C 
ENDBRANCH   6   9
BRANCH   8  11
ATOM     11  O   UNL     1     -11.750  48.570  23.786  0.00  0.00    +0.000 OA
ATOM     12  H   UNL     1     -12.040  49.481  23.595  0.00  0.00    +0.000 HD
ENDBRANCH   8  11
ENDBRANCH   2   3
BRANCH   1  14
ATOM     13  O   UNL     1      -3.076  49.798  26.670  0.00  0.00    +0.000 OA
ATOM     14  C   UNL     1      -3.720  48.760  26.696  0.00  0.00    +0.000 C 
ATOM     15  C   UNL     1      -3.133  47.557  27.217  0.00  0.00    +0.000 C 
ATOM     16  C   UNL     1      -2.549  46.377  27.728  0.00  0.00    +0.000 C 
BRANCH  16  17
ATOM     17  O   UNL     1      -3.385  45.316  27.978  0.00  0.00    +0.000 OA
ATOM     18  H   UNL     1      -3.937  45.101  27.207  0.00  0.00    +0.000 HD
ENDBRANCH  16  17
BRANCH  16  19
ATOM     19  C   UNL     1      -1.165  46.236  27.990  0.00  0.00    +0.000 C 
ATOM     20  C   UNL     1       0.334  46.093  28.277  0.00  0.00    +0.000 C 
BRANCH  20  21
ATOM     21  C   UNL     1       1.832  45.955  28.565  0.00  0.00    +0.000 C 
ATOM     22  C   UNL     1       3.331  45.817  28.851  0.00  0.00    +0.000 C 
ATOM     23  C   UNL     1       4.830  45.675  29.131  0.00  0.00    +0.000 C 
ENDBRANCH  20  21
ENDBRANCH  16  19
ENDBRANCH   1  14
TORSDOF 7
ENDMDL
MODEL 3
REMARK VINA RESULT:      -5.5      3.159     11.148
REMARK  Name = 442793_6gingerol.pdbqt.pdb
REMARK  7 active torsions:
REMARK  status: ('A' for Active; 'I' for Inactive)
REMARK    1  A    between atoms: C_1  and  C_3
REMARK    2  A    between atoms: C_5  and  O_6
REMARK    3  A    between atoms: C_5  and  C_8
REMARK    4  A    between atoms: C_9  and  C_10
REMARK    5  A    between atoms: C_13  and  C_14
REMARK    6  A    between atoms: C_17  and  O_20
REMARK    7  A    between atoms: C_19  and  O_22
REMARK                            x       y       z     vdW  Elec       q    Type
REMARK                         _______ _______ _______ _____ _____    ______ ____
ROOT
ATOM      1  C   UNL     1      -8.485  47.117  24.745  0.00  0.00    +0.000 C 
ATOM      2  C   UNL     1      -7.026  46.974  25.194  0.00  0.00    +0.000 C 
ENDROOT
BRANCH   2   3
ATOM      3  C   UNL     1      -5.670  46.843  25.609  0.00  0.00    +0.000 A 
ATOM      4  C   UNL     1      -5.062  47.870  26.330  0.00  0.00    +0.000 A 
ATOM      5  C   UNL     1      -4.956  45.691  25.293  0.00  0.00    +0.000 A 
ATOM      6  C   UNL     1      -3.732  47.756  26.743  0.00  0.00    +0.000 A 
ATOM      7  C   UNL     1      -3.629  45.564  25.698  0.00  0.00    +0.000 A 
ATOM      8  C   UNL     1      -3.025  46.594  26.419  0.00  0.00    +0.000 A 
BRANCH   6   9
ATOM      9  O   UNL     1      -3.057  48.718  27.454  0.00  0.00    +0.000 OA
ATOM     10  C   UNL     1      -2.778  49.903  26.757  0.00  0.00    +0.000 C 
ENDBRANCH   6   9
BRANCH   8  11
ATOM     11  O   UNL     1      -1.723  46.464  26.814  0.00  0.00    +0.000 OA
ATOM     12  H   UNL     1      -1.694  46.435  27.788  0.00  0.00    +0.000 HD
ENDBRANCH   8  11
ENDBRANCH   2   3
BRANCH   1  14
ATOM     13  O   UNL     1     -10.423  46.326  23.760  0.00  0.00    +0.000 OA
ATOM     14  C   UNL     1      -9.856  47.252  24.321  0.00  0.00    +0.000 C 
ATOM     15  C   UNL     1     -10.551  48.486  24.559  0.00  0.00    +0.000 C 
ATOM     16  C   UNL     1     -11.238  49.698  24.789  0.00  0.00    +0.000 C 
BRANCH  16  17
ATOM     17  O   UNL     1     -10.655  50.602  25.644  0.00  0.00    +0.000 OA
ATOM     18  H   UNL     1      -9.686  50.603  25.564  0.00  0.00    +0.000 HD
ENDBRANCH  16  17
BRANCH  16  19
ATOM     19  C   UNL     1     -12.479  50.023  24.189  0.00  0.00    +0.000 C 
ATOM     20  C   UNL     1     -13.817  50.374  23.530  0.00  0.00    +0.000 C 
BRANCH  20  21
ATOM     21  C   UNL     1     -15.152  50.727  22.867  0.00  0.00    +0.000 C 
ATOM     22  C   UNL     1     -16.488  51.079  22.205  0.00  0.00    +0.000 C 
ATOM     23  C   UNL     1     -17.827  51.432  21.549  0.00  0.00    +0.000 C 
ENDBRANCH  20  21
ENDBRANCH  16  19
ENDBRANCH   1  14
TORSDOF 7
ENDMDL
MODEL 4
REMARK VINA RESULT:      -5.3      2.945     11.445
REMARK  Name = 442793_6gingerol.pdbqt.pdb
REMARK  7 active torsions:
REMARK  status: ('A' for Active; 'I' for Inactive)
REMARK    1  A    between atoms: C_1  and  C_3
REMARK    2  A    between atoms: C_5  and  O_6
REMARK    3  A    between atoms: C_5  and  C_8
REMARK    4  A    between atoms: C_9  and  C_10
REMARK    5  A    between atoms: C_13  and  C_14
REMARK    6  A    between atoms: C_17  and  O_20
REMARK    7  A    between atoms: C_19  and  O_22
REMARK                            x       y       z     vdW  Elec       q    Type
REMARK                         _______ _______ _______ _____ _____    ______ ____
ROOT
ATOM      1  C   UNL     1      -1.349  47.002  27.485  0.00  0.00    +0.000 C 
ATOM      2  C   UNL     1       0.017  46.477  27.947  0.00  0.00    +0.000 C 
ENDROOT
BRANCH   2   3
ATOM      3  C   UNL     1       1.283  45.988  28.376  0.00  0.00    +0.000 A 
ATOM      4  C   UNL     1       2.161  46.834  29.051  0.00  0.00    +0.000 A 
ATOM      5  C   UNL     1       1.640  44.667  28.119  0.00  0.00    +0.000 A 
ATOM      6  C   UNL     1       3.408  46.368  29.478  0.00  0.00    +0.000 A 
ATOM      7  C   UNL     1       2.879  44.190  28.539  0.00  0.00    +0.000 A 
ATOM      8  C   UNL     1       3.755  45.040  29.214  0.00  0.00    +0.000 A 
BRANCH   6   9
ATOM      9  O   UNL     1       4.332  47.133  30.148  0.00  0.00    +0.000 OA
ATOM     10  C   UNL     1       3.960  47.540  31.439  0.00  0.00    +0.000 C 
ENDBRANCH   6   9
BRANCH   8  11
ATOM     11  O   UNL     1       4.970  44.565  29.624  0.00  0.00    +0.000 OA
ATOM     12  H   UNL     1       5.033  43.622  29.385  0.00  0.00    +0.000 HD
ENDBRANCH   8  11
ENDBRANCH   2   3
BRANCH   1  14
ATOM     13  O   UNL     1      -2.744  48.626  26.611  0.00  0.00    +0.000 OA
ATOM     14  C   UNL     1      -2.633  47.492  27.051  0.00  0.00    +0.000 C 
ATOM     15  C   UNL     1      -3.783  46.636  27.142  0.00  0.00    +0.000 C 
ATOM     16  C   UNL     1      -4.917  45.800  27.232  0.00  0.00    +0.000 C 
BRANCH  16  17
ATOM     17  O   UNL     1      -4.701  44.467  27.481  0.00  0.00    +0.000 OA
ATOM     18  H   UNL     1      -5.035  43.905  26.759  0.00  0.00    +0.000 HD
ENDBRANCH  16  17
BRANCH  16  19
ATOM     19  C   UNL     1      -6.247  46.264  27.082  0.00  0.00    +0.000 C 
ATOM     20  C   UNL     1      -7.687  46.760  26.912  0.00  0.00    +0.000 C 
BRANCH  20  21
ATOM     21  C   UNL     1      -9.126  47.255  26.735  0.00  0.00    +0.000 C 
ATOM     22  C   UNL     1     -10.566  47.748  26.559  0.00  0.00    +0.000 C 
ATOM     23  C   UNL     1     -12.008  48.236  26.389  0.00  0.00    +0.000 C 
ENDBRANCH  20  21
ENDBRANCH  16  19
ENDBRANCH   1  14
TORSDOF 7
ENDMDL
MODEL 5
REMARK VINA RESULT:      -5.2     24.332     26.640
REMARK  Name = 442793_6gingerol.pdbqt.pdb
REMARK  7 active torsions:
REMARK  status: ('A' for Active; 'I' for Inactive)
REMARK    1  A    between atoms: C_1  and  C_3
REMARK    2  A    between atoms: C_5  and  O_6
REMARK    3  A    between atoms: C_5  and  C_8
REMARK    4  A    between atoms: C_9  and  C_10
REMARK    5  A    between atoms: C_13  and  C_14
REMARK    6  A    between atoms: C_17  and  O_20
REMARK    7  A    between atoms: C_19  and  O_22
REMARK                            x       y       z     vdW  Elec       q    Type
REMARK                         _______ _______ _______ _____ _____    ______ ____
ROOT
ATOM      1  C   UNL     1     -19.108  37.785   6.903  0.00  0.00    +0.000 C 
ATOM      2  C   UNL     1     -18.120  38.868   6.453  0.00  0.00    +0.000 C 
ENDROOT
BRANCH   2   3
ATOM      3  C   UNL     1     -17.201  39.873   6.038  0.00  0.00    +0.000 A 
ATOM      4  C   UNL     1     -17.657  41.163   5.773  0.00  0.00    +0.000 A 
ATOM      5  C   UNL     1     -15.851  39.564   5.897  0.00  0.00    +0.000 A 
ATOM      6  C   UNL     1     -16.768  42.161   5.364  0.00  0.00    +0.000 A 
ATOM      7  C   UNL     1     -14.954  40.548   5.490  0.00  0.00    +0.000 A 
ATOM      8  C   UNL     1     -15.415  41.838   5.225  0.00  0.00    +0.000 A 
BRANCH   6   9
ATOM      9  O   UNL     1     -17.132  43.455   5.082  0.00  0.00    +0.000 OA
ATOM     10  C   UNL     1     -18.183  43.603   4.164  0.00  0.00    +0.000 C 
ENDBRANCH   6   9
BRANCH   8  11
ATOM     11  O   UNL     1     -14.528  42.799   4.826  0.00  0.00    +0.000 OA
ATOM     12  H   UNL     1     -13.985  42.441   4.100  0.00  0.00    +0.000 HD
ENDBRANCH   8  11
ENDBRANCH   2   3
BRANCH   1  14
ATOM     13  O   UNL     1     -21.183  37.061   7.624  0.00  0.00    +0.000 OA
ATOM     14  C   UNL     1     -20.035  36.766   7.328  0.00  0.00    +0.000 C 
ATOM     15  C   UNL     1     -19.598  35.400   7.404  0.00  0.00    +0.000 C 
ATOM     16  C   UNL     1     -19.172  34.056   7.482  0.00  0.00    +0.000 C 
BRANCH  16  17
ATOM     17  O   UNL     1     -17.971  33.738   6.896  0.00  0.00    +0.000 OA
ATOM     18  H   UNL     1     -18.090  33.193   6.098  0.00  0.00    +0.000 HD
ENDBRANCH  16  17
BRANCH  16  19
ATOM     19  C   UNL     1     -19.912  33.035   8.127  0.00  0.00    +0.000 C 
ATOM     20  C   UNL     1     -20.704  31.924   8.826  0.00  0.00    +0.000 C 
BRANCH  20  21
ATOM     21  C   UNL     1     -21.490  30.810   9.523  0.00  0.00    +0.000 C 
ATOM     22  C   UNL     1     -22.279  29.698  10.220  0.00  0.00    +0.000 C 
ATOM     23  C   UNL     1     -23.074  28.588  10.916  0.00  0.00    +0.000 C 
ENDBRANCH  20  21
ENDBRANCH  16  19
ENDBRANCH   1  14
TORSDOF 7
ENDMDL
MODEL 6
REMARK VINA RESULT:      -5.1      3.085      5.424
REMARK  Name = 442793_6gingerol.pdbqt.pdb
REMARK  7 active torsions:
REMARK  status: ('A' for Active; 'I' for Inactive)
REMARK    1  A    between atoms: C_1  and  C_3
REMARK    2  A    between atoms: C_5  and  O_6
REMARK    3  A    between atoms: C_5  and  C_8
REMARK    4  A    between atoms: C_9  and  C_10
REMARK    5  A    between atoms: C_13  and  C_14
REMARK    6  A    between atoms: C_17  and  O_20
REMARK    7  A    between atoms: C_19  and  O_22
REMARK                            x       y       z     vdW  Elec       q    Type
REMARK                         _______ _______ _______ _____ _____    ______ ____
ROOT
ATOM      1  C   UNL     1      -0.816  47.130  27.933  0.00  0.00    +0.000 C 
ATOM      2  C   UNL     1      -2.223  46.967  27.344  0.00  0.00    +0.000 C 
ENDROOT
BRANCH   2   3
ATOM      3  C   UNL     1      -3.528  46.814  26.796  0.00  0.00    +0.000 A 
ATOM      4  C   UNL     1      -4.563  47.642  27.227  0.00  0.00    +0.000 A 
ATOM      5  C   UNL     1      -3.766  45.838  25.833  0.00  0.00    +0.000 A 
ATOM      6  C   UNL     1      -5.850  47.502  26.700  0.00  0.00    +0.000 A 
ATOM      7  C   UNL     1      -5.043  45.688  25.298  0.00  0.00    +0.000 A 
ATOM      8  C   UNL     1      -6.076  46.518  25.733  0.00  0.00    +0.000 A 
BRANCH   6   9
ATOM      9  O   UNL     1      -6.926  48.273  27.068  0.00  0.00    +0.000 OA
ATOM     10  C   UNL     1      -6.896  49.605  26.627  0.00  0.00    +0.000 C 
ENDBRANCH   6   9
BRANCH   8  11
ATOM     11  O   UNL     1      -7.328  46.366  25.205  0.00  0.00    +0.000 OA
ATOM     12  H   UNL     1      -7.455  45.428  24.967  0.00  0.00    +0.000 HD
ENDBRANCH   8  11
ENDBRANCH   2   3
BRANCH   1  14
ATOM     13  O   UNL     1       0.898  48.375  28.860  0.00  0.00    +0.000 OA
ATOM     14  C   UNL     1       0.506  47.280  28.487  0.00  0.00    +0.000 C 
ATOM     15  C   UNL     1       1.361  46.131  28.596  0.00  0.00    +0.000 C 
ATOM     16  C   UNL     1       2.206  45.005  28.702  0.00  0.00    +0.000 C 
BRANCH  16  17
ATOM     17  O   UNL     1       1.637  43.768  28.519  0.00  0.00    +0.000 OA
ATOM     18  H   UNL     1       1.411  43.345  29.366  0.00  0.00    +0.000 HD
ENDBRANCH  16  17
BRANCH  16  19
ATOM     19  C   UNL     1       3.592  45.088  28.982  0.00  0.00    +0.000 C 
ATOM     20  C   UNL     1       5.090  45.179  29.295  0.00  0.00    +0.000 C 
BRANCH  20  21
ATOM     21  C   UNL     1       6.585  45.272  29.614  0.00  0.00    +0.000 C 
ATOM     22  C   UNL     1       8.081  45.366  29.933  0.00  0.00    +0.000 C 
ATOM     23  C   UNL     1       9.574  45.465  30.259  0.00  0.00    +0.000 C 
ENDBRANCH  20  21
ENDBRANCH  16  19
ENDBRANCH   1  14
TORSDOF 7
ENDMDL
MODEL 7
REMARK VINA RESULT:      -5.0      2.767     10.759
REMARK  Name = 442793_6gingerol.pdbqt.pdb
REMARK  7 active torsions:
REMARK  status: ('A' for Active; 'I' for Inactive)
REMARK    1  A    between atoms: C_1  and  C_3
REMARK    2  A    between atoms: C_5  and  O_6
REMARK    3  A    between atoms: C_5  and  C_8
REMARK    4  A    between atoms: C_9  and  C_10
REMARK    5  A    between atoms: C_13  and  C_14
REMARK    6  A    between atoms: C_17  and  O_20
REMARK    7  A    between atoms: C_19  and  O_22
REMARK                            x       y       z     vdW  Elec       q    Type
REMARK                         _______ _______ _______ _____ _____    ______ ____
ROOT
ATOM      1  C   UNL     1      -2.705  47.398  27.003  0.00  0.00    +0.000 C 
ATOM      2  C   UNL     1      -1.480  46.642  27.530  0.00  0.00    +0.000 C 
ENDROOT
BRANCH   2   3
ATOM      3  C   UNL     1      -0.340  45.941  28.018  0.00  0.00    +0.000 A 
ATOM      4  C   UNL     1      -0.333  45.450  29.322  0.00  0.00    +0.000 A 
ATOM      5  C   UNL     1       0.763  45.748  27.191  0.00  0.00    +0.000 A 
ATOM      6  C   UNL     1       0.778  44.761  29.816  0.00  0.00    +0.000 A 
ATOM      7  C   UNL     1       1.876  45.063  27.669  0.00  0.00    +0.000 A 
ATOM      8  C   UNL     1       1.879  44.574  28.975  0.00  0.00    +0.000 A 
BRANCH   6   9
ATOM      9  O   UNL     1       0.869  44.247  31.086  0.00  0.00    +0.000 OA
ATOM     10  C   UNL     1      -0.186  44.576  31.950  0.00  0.00    +0.000 C 
ENDBRANCH   6   9
BRANCH   8  11
ATOM     11  O   UNL     1       2.976  43.902  29.439  0.00  0.00    +0.000 OA
ATOM     12  H   UNL     1       3.380  44.422  30.159  0.00  0.00    +0.000 HD
ENDBRANCH   8  11
ENDBRANCH   2   3
BRANCH   1  14
ATOM     13  O   UNL     1      -3.851  49.332  26.457  0.00  0.00    +0.000 OA
ATOM     14  C   UNL     1      -3.855  48.111  26.506  0.00  0.00    +0.000 C 
ATOM     15  C   UNL     1      -5.009  47.375  26.071  0.00  0.00    +0.000 C 
ATOM     16  C   UNL     1      -6.147  46.656  25.644  0.00  0.00    +0.000 C 
BRANCH  16  17
ATOM     17  O   UNL     1      -6.010  45.300  25.472  0.00  0.00    +0.000 OA
ATOM     18  H   UNL     1      -5.597  45.083  24.618  0.00  0.00    +0.000 HD
ENDBRANCH  16  17
BRANCH  16  19
ATOM     19  C   UNL     1      -7.405  47.256  25.390  0.00  0.00    +0.000 C 
ATOM     20  C   UNL     1      -8.769  47.896  25.112  0.00  0.00    +0.000 C 
BRANCH  20  21
ATOM     21  C   UNL     1     -10.133  48.532  24.829  0.00  0.00    +0.000 C 
ATOM     22  C   UNL     1     -11.498  49.169  24.549  0.00  0.00    +0.000 C 
ATOM     23  C   UNL     1     -12.861  49.811  24.273  0.00  0.00    +0.000 C 
ENDBRANCH  20  21
ENDBRANCH  16  19
ENDBRANCH   1  14
TORSDOF 7
ENDMDL
MODEL 8
REMARK VINA RESULT:      -4.9      3.526     11.551
REMARK  Name = 442793_6gingerol.pdbqt.pdb
REMARK  7 active torsions:
REMARK  status: ('A' for Active; 'I' for Inactive)
REMARK    1  A    between atoms: C_1  and  C_3
REMARK    2  A    between atoms: C_5  and  O_6
REMARK    3  A    between atoms: C_5  and  C_8
REMARK    4  A    between atoms: C_9  and  C_10
REMARK    5  A    between atoms: C_13  and  C_14
REMARK    6  A    between atoms: C_17  and  O_20
REMARK    7  A    between atoms: C_19  and  O_22
REMARK                            x       y       z     vdW  Elec       q    Type
REMARK                         _______ _______ _______ _____ _____    ______ ____
ROOT
ATOM      1  C   UNL     1      -9.604  47.660  26.386  0.00  0.00    +0.000 C 
ATOM      2  C   UNL     1      -8.075  47.770  26.420  0.00  0.00    +0.000 C 
ENDROOT
BRANCH   2   3
ATOM      3  C   UNL     1      -6.655  47.874  26.454  0.00  0.00    +0.000 A 
ATOM      4  C   UNL     1      -5.873  46.729  26.309  0.00  0.00    +0.000 A 
ATOM      5  C   UNL     1      -6.054  49.116  26.631  0.00  0.00    +0.000 A 
ATOM      6  C   UNL     1      -4.478  46.815  26.341  0.00  0.00    +0.000 A 
ATOM      7  C   UNL     1      -4.665  49.216  26.664  0.00  0.00    +0.000 A 
ATOM      8  C   UNL     1      -3.886  48.069  26.520  0.00  0.00    +0.000 A 
BRANCH   6   9
ATOM      9  O   UNL     1      -3.633  45.740  26.207  0.00  0.00    +0.000 OA
ATOM     10  C   UNL     1      -3.926  44.866  25.149  0.00  0.00    +0.000 C 
ENDBRANCH   6   9
BRANCH   8  11
ATOM     11  O   UNL     1      -2.523  48.173  26.553  0.00  0.00    +0.000 OA
ATOM     12  H   UNL     1      -2.285  49.101  26.738  0.00  0.00    +0.000 HD
ENDBRANCH   8  11
ENDBRANCH   2   3
BRANCH   1  14
ATOM     13  O   UNL     1     -11.601  46.581  26.832  0.00  0.00    +0.000 OA
ATOM     14  C   UNL     1     -11.042  47.559  26.357  0.00  0.00    +0.000 C 
ATOM     15  C   UNL     1     -11.813  48.615  25.763  0.00  0.00    +0.000 C 
ATOM     16  C   UNL     1     -12.576  49.650  25.179  0.00  0.00    +0.000 C 
BRANCH  16  17
ATOM     17  O   UNL     1     -11.931  50.830  24.901  0.00  0.00    +0.000 OA
ATOM     18  H   UNL     1     -11.765  50.936  23.948  0.00  0.00    +0.000 HD
ENDBRANCH  16  17
BRANCH  16  19
ATOM     19  C   UNL     1     -13.952  49.530  24.868  0.00  0.00    +0.000 C 
ATOM     20  C   UNL     1     -15.442  49.391  24.535  0.00  0.00    +0.000 C 
BRANCH  20  21
ATOM     21  C   UNL     1     -16.930  49.247  24.205  0.00  0.00    +0.000 C 
ATOM     22  C   UNL     1     -18.420  49.103  23.876  0.00  0.00    +0.000 C 
ATOM     23  C   UNL     1     -19.910  48.967  23.550  0.00  0.00    +0.000 C 
ENDBRANCH  20  21
ENDBRANCH  16  19
ENDBRANCH   1  14
TORSDOF 7
ENDMDL
MODEL 9
REMARK VINA RESULT:      -4.9     24.235     27.113
REMARK  Name = 442793_6gingerol.pdbqt.pdb
REMARK  7 active torsions:
REMARK  status: ('A' for Active; 'I' for Inactive)
REMARK    1  A    between atoms: C_1  and  C_3
REMARK    2  A    between atoms: C_5  and  O_6
REMARK    3  A    between atoms: C_5  and  C_8
REMARK    4  A    between atoms: C_9  and  C_10
REMARK    5  A    between atoms: C_13  and  C_14
REMARK    6  A    between atoms: C_17  and  O_20
REMARK    7  A    between atoms: C_19  and  O_22
REMARK                            x       y       z     vdW  Elec       q    Type
REMARK                         _______ _______ _______ _____ _____    ______ ____
ROOT
ATOM      1  C   UNL     1     -17.671  37.270   6.391  0.00  0.00    +0.000 C 
ATOM      2  C   UNL     1     -17.255  38.720   6.117  0.00  0.00    +0.000 C 
ENDROOT
BRANCH   2   3
ATOM      3  C   UNL     1     -16.870  40.067   5.860  0.00  0.00    +0.000 A 
ATOM      4  C   UNL     1     -17.840  41.066   5.802  0.00  0.00    +0.000 A 
ATOM      5  C   UNL     1     -15.528  40.381   5.669  0.00  0.00    +0.000 A 
ATOM      6  C   UNL     1     -17.479  42.393   5.550  0.00  0.00    +0.000 A 
ATOM      7  C   UNL     1     -15.153  41.699   5.417  0.00  0.00    +0.000 A 
ATOM      8  C   UNL     1     -16.127  42.695   5.359  0.00  0.00    +0.000 A 
BRANCH   6   9
ATOM      9  O   UNL     1     -18.368  43.437   5.475  0.00  0.00    +0.000 OA
ATOM     10  C   UNL     1     -19.535  43.187   4.737  0.00  0.00    +0.000 C 
ENDBRANCH   6   9
BRANCH   8  11
ATOM     11  O   UNL     1     -15.753  43.987   5.112  0.00  0.00    +0.000 OA
ATOM     12  H   UNL     1     -15.197  44.003   4.311  0.00  0.00    +0.000 HD
ENDBRANCH   8  11
ENDBRANCH   2   3
BRANCH   1  14
ATOM     13  O   UNL     1     -17.249  35.002   6.555  0.00  0.00    +0.000 OA
ATOM     14  C   UNL     1     -18.065  35.907   6.647  0.00  0.00    +0.000 C 
ATOM     15  C   UNL     1     -19.425  35.621   7.008  0.00  0.00    +0.000 C 
ATOM     16  C   UNL     1     -20.761  35.334   7.362  0.00  0.00    +0.000 C 
BRANCH  16  17
ATOM     17  O   UNL     1     -21.566  36.393   7.706  0.00  0.00    +0.000 OA
ATOM     18  H   UNL     1     -21.075  37.233   7.709  0.00  0.00    +0.000 HD
ENDBRANCH  16  17
BRANCH  16  19
ATOM     19  C   UNL     1     -21.305  34.026   7.377  0.00  0.00    +0.000 C 
ATOM     20  C   UNL     1     -21.900  32.614   7.386  0.00  0.00    +0.000 C 
BRANCH  20  21
ATOM     21  C   UNL     1     -22.500  31.204   7.392  0.00  0.00    +0.000 C 
ATOM     22  C   UNL     1     -23.101  29.795   7.397  0.00  0.00    +0.000 C 
ATOM     23  C   UNL     1     -23.708  28.389   7.398  0.00  0.00    +0.000 C 
ENDBRANCH  20  21
ENDBRANCH  16  19
ENDBRANCH   1  14
TORSDOF 7
ENDMDL
