MODEL 1
REMARK VINA RESULT:      -6.4      0.000      0.000
REMARK  Name = 44423609_SipholenoneA.pdbqt.pdb
REMARK  4 active torsions:
REMARK  status: ('A' for Active; 'I' for Inactive)
REMARK    1  A    between atoms: C_3  and  C_19
REMARK    2  A    between atoms: C_5  and  O_17
REMARK    3  A    between atoms: C_20  and  C_24
REMARK    4  A    between atoms: C_25  and  O_35
REMARK                            x       y       z     vdW  Elec       q    Type
REMARK                         _______ _______ _______ _____ _____    ______ ____
ROOT
ATOM      1  O   UNL     1      -0.690  60.869  19.167  0.00  0.00    +0.000 OA
ATOM      2  O   UNL     1      -1.041  61.032  15.486  0.00  0.00    +0.000 OA
ATOM      3  C   UNL     1       1.406  57.600  19.895  0.00  0.00    +0.000 C 
ATOM      4  C   UNL     1       1.119  59.012  19.387  0.00  0.00    +0.000 C 
ATOM      5  C   UNL     1       0.807  57.125  21.208  0.00  0.00    +0.000 C 
ATOM      6  C   UNL     1      -0.281  59.664  19.747  0.00  0.00    +0.000 C 
ATOM      7  C   UNL     1      -0.268  58.022  21.586  0.00  0.00    +0.000 C 
ATOM      8  C   UNL     1      -0.862  59.237  20.957  0.00  0.00    +0.000 C 
ATOM      9  C   UNL     1       1.066  59.033  17.916  0.00  0.00    +0.000 C 
ATOM     10  C   UNL     1       2.233  59.977  19.880  0.00  0.00    +0.000 C 
ATOM     11  C   UNL     1       0.320  55.676  21.097  0.00  0.00    +0.000 C 
ATOM     12  C   UNL     1       0.311  59.697  16.784  0.00  0.00    +0.000 C 
ATOM     13  C   UNL     1      -1.573  60.856  17.995  0.00  0.00    +0.000 C 
ATOM     14  C   UNL     1      -0.797  60.607  16.609  0.00  0.00    +0.000 C 
ATOM     15  C   UNL     1      -2.244  62.268  17.986  0.00  0.00    +0.000 C 
ATOM     16  C   UNL     1      -2.692  59.761  18.162  0.00  0.00    +0.000 C 
ENDROOT
BRANCH   5  17
ATOM     17  O   UNL     1       1.797  57.122  22.206  0.00  0.00    +0.000 OA
ATOM     18  H   UNL     1       2.098  56.196  22.171  0.00  0.00    +0.000 HD
ENDBRANCH   5  17
BRANCH   3  19
ATOM     19  C   UNL     1       2.442  56.822  19.264  0.00  0.00    +0.000 C 
ATOM     20  C   UNL     1       3.542  56.004  18.584  0.00  0.00    +0.000 C 
BRANCH  20  24
ATOM     21  C   UNL     1       4.717  54.845  15.352  0.00  0.00    +0.000 C 
ATOM     22  C   UNL     1       4.271  54.309  16.735  0.00  0.00    +0.000 C 
ATOM     23  C   UNL     1       6.140  55.097  14.923  0.00  0.00    +0.000 C 
ATOM     24  C   UNL     1       4.568  55.236  17.939  0.00  0.00    +0.000 C 
ATOM     25  C   UNL     1       6.222  55.583  13.475  0.00  0.00    +0.000 C 
ATOM     26  C   UNL     1       3.897  55.132  14.223  0.00  0.00    +0.000 C 
ATOM     27  C   UNL     1       4.811  55.560  13.110  0.00  0.00    +0.000 C 
ATOM     28  C   UNL     1       7.038  55.371  15.975  0.00  0.00    +0.000 C 
ATOM     29  C   UNL     1       5.949  55.420  18.391  0.00  0.00    +0.000 C 
ATOM     30  C   UNL     1       2.718  54.039  16.672  0.00  0.00    +0.000 C 
ATOM     31  C   UNL     1       4.941  52.912  16.964  0.00  0.00    +0.000 C 
ATOM     32  C   UNL     1       6.854  55.480  17.465  0.00  0.00    +0.000 C 
ATOM     33  C   UNL     1       7.145  54.719  12.634  0.00  0.00    +0.000 C 
ATOM     34  C   UNL     1       6.324  55.959  19.746  0.00  0.00    +0.000 C 
BRANCH  25  35
ATOM     35  O   UNL     1       6.721  56.897  13.425  0.00  0.00    +0.000 OA
ATOM     36  H   UNL     1       7.274  56.911  14.225  0.00  0.00    +0.000 HD
ENDBRANCH  25  35
ENDBRANCH  20  24
ENDBRANCH   3  19
TORSDOF 4
ENDMDL
MODEL 2
REMARK VINA RESULT:      -6.3      3.571     10.522
REMARK  Name = 44423609_SipholenoneA.pdbqt.pdb
REMARK  4 active torsions:
REMARK  status: ('A' for Active; 'I' for Inactive)
REMARK    1  A    between atoms: C_3  and  C_19
REMARK    2  A    between atoms: C_5  and  O_17
REMARK    3  A    between atoms: C_20  and  C_24
REMARK    4  A    between atoms: C_25  and  O_35
REMARK                            x       y       z     vdW  Elec       q    Type
REMARK                         _______ _______ _______ _____ _____    ______ ____
ROOT
ATOM      1  O   UNL     1      12.486  56.464  13.933  0.00  0.00    +0.000 OA
ATOM      2  O   UNL     1      13.111  55.617  17.480  0.00  0.00    +0.000 OA
ATOM      3  C   UNL     1       8.874  55.080  13.126  0.00  0.00    +0.000 C 
ATOM      4  C   UNL     1       9.937  55.968  13.771  0.00  0.00    +0.000 C 
ATOM      5  C   UNL     1       9.014  54.654  11.675  0.00  0.00    +0.000 C 
ATOM      6  C   UNL     1      11.433  55.826  13.268  0.00  0.00    +0.000 C 
ATOM      7  C   UNL     1      10.379  54.888  11.246  0.00  0.00    +0.000 C 
ATOM      8  C   UNL     1      11.593  55.425  11.927  0.00  0.00    +0.000 C 
ATOM      9  C   UNL     1      10.090  55.641  15.199  0.00  0.00    +0.000 C 
ATOM     10  C   UNL     1       9.525  57.460  13.622  0.00  0.00    +0.000 C 
ATOM     11  C   UNL     1       8.611  53.186  11.493  0.00  0.00    +0.000 C 
ATOM     12  C   UNL     1      11.161  55.534  16.264  0.00  0.00    +0.000 C 
ATOM     13  C   UNL     1      13.285  55.727  14.918  0.00  0.00    +0.000 C 
ATOM     14  C   UNL     1      12.597  55.643  16.369  0.00  0.00    +0.000 C 
ATOM     15  C   UNL     1      14.632  56.516  15.009  0.00  0.00    +0.000 C 
ATOM     16  C   UNL     1      13.582  54.269  14.405  0.00  0.00    +0.000 C 
ENDROOT
BRANCH   5  17
ATOM     17  O   UNL     1       8.129  55.398  10.875  0.00  0.00    +0.000 OA
ATOM     18  H   UNL     1       8.137  56.257  11.335  0.00  0.00    +0.000 HD
ENDBRANCH   5  17
BRANCH   3  19
ATOM     19  C   UNL     1       7.625  54.867  13.812  0.00  0.00    +0.000 C 
ATOM     20  C   UNL     1       6.291  54.646  14.530  0.00  0.00    +0.000 C 
BRANCH  20  24
ATOM     21  C   UNL     1       4.579  55.114  17.696  0.00  0.00    +0.000 C 
ATOM     22  C   UNL     1       4.960  54.004  16.684  0.00  0.00    +0.000 C 
ATOM     23  C   UNL     1       3.260  55.841  17.749  0.00  0.00    +0.000 C 
ATOM     24  C   UNL     1       5.040  54.448  15.203  0.00  0.00    +0.000 C 
ATOM     25  C   UNL     1       3.208  56.844  18.903  0.00  0.00    +0.000 C 
ATOM     26  C   UNL     1       5.355  55.601  18.787  0.00  0.00    +0.000 C 
ATOM     27  C   UNL     1       4.519  56.625  19.502  0.00  0.00    +0.000 C 
ATOM     28  C   UNL     1       2.566  55.903  16.523  0.00  0.00    +0.000 C 
ATOM     29  C   UNL     1       3.811  54.772  14.475  0.00  0.00    +0.000 C 
ATOM     30  C   UNL     1       6.358  53.416  17.115  0.00  0.00    +0.000 C 
ATOM     31  C   UNL     1       3.936  52.828  16.831  0.00  0.00    +0.000 C 
ATOM     32  C   UNL     1       2.891  55.392  15.145  0.00  0.00    +0.000 C 
ATOM     33  C   UNL     1       2.010  56.611  19.808  0.00  0.00    +0.000 C 
ATOM     34  C   UNL     1       3.716  54.831  12.973  0.00  0.00    +0.000 C 
BRANCH  25  35
ATOM     35  O   UNL     1       3.107  58.157  18.410  0.00  0.00    +0.000 OA
ATOM     36  H   UNL     1       2.164  58.188  18.169  0.00  0.00    +0.000 HD
ENDBRANCH  25  35
ENDBRANCH  20  24
ENDBRANCH   3  19
TORSDOF 4
ENDMDL
MODEL 3
REMARK VINA RESULT:      -6.0     11.515     15.744
REMARK  Name = 44423609_SipholenoneA.pdbqt.pdb
REMARK  4 active torsions:
REMARK  status: ('A' for Active; 'I' for Inactive)
REMARK    1  A    between atoms: C_3  and  C_19
REMARK    2  A    between atoms: C_5  and  O_17
REMARK    3  A    between atoms: C_20  and  C_24
REMARK    4  A    between atoms: C_25  and  O_35
REMARK                            x       y       z     vdW  Elec       q    Type
REMARK                         _______ _______ _______ _____ _____    ______ ____
ROOT
ATOM      1  O   UNL     1       4.463  53.624  29.366  0.00  0.00    +0.000 OA
ATOM      2  O   UNL     1       7.531  51.672  28.677  0.00  0.00    +0.000 OA
ATOM      3  C   UNL     1       1.451  51.233  28.457  0.00  0.00    +0.000 C 
ATOM      4  C   UNL     1       2.667  51.746  29.226  0.00  0.00    +0.000 C 
ATOM      5  C   UNL     1       0.420  52.211  27.919  0.00  0.00    +0.000 C 
ATOM      6  C   UNL     1       3.249  53.169  28.840  0.00  0.00    +0.000 C 
ATOM      7  C   UNL     1       0.989  53.546  27.929  0.00  0.00    +0.000 C 
ATOM      8  C   UNL     1       2.316  54.095  28.333  0.00  0.00    +0.000 C 
ATOM      9  C   UNL     1       3.839  50.889  28.977  0.00  0.00    +0.000 C 
ATOM     10  C   UNL     1       2.350  51.759  30.748  0.00  0.00    +0.000 C 
ATOM     11  C   UNL     1      -0.040  51.805  26.515  0.00  0.00    +0.000 C 
ATOM     12  C   UNL     1       5.338  50.986  28.790  0.00  0.00    +0.000 C 
ATOM     13  C   UNL     1       5.699  53.474  28.591  0.00  0.00    +0.000 C 
ATOM     14  C   UNL     1       6.354  52.009  28.701  0.00  0.00    +0.000 C 
ATOM     15  C   UNL     1       6.675  54.542  29.185  0.00  0.00    +0.000 C 
ATOM     16  C   UNL     1       5.441  53.808  27.074  0.00  0.00    +0.000 C 
ENDROOT
BRANCH   5  17
ATOM     17  O   UNL     1      -0.730  52.178  28.726  0.00  0.00    +0.000 OA
ATOM     18  H   UNL     1      -1.268  52.879  28.315  0.00  0.00    +0.000 HD
ENDBRANCH   5  17
BRANCH   3  19
ATOM     19  C   UNL     1       1.154  49.823  28.469  0.00  0.00    +0.000 C 
ATOM     20  C   UNL     1       0.827  48.328  28.487  0.00  0.00    +0.000 C 
BRANCH  20  24
ATOM     21  C   UNL     1       1.115  45.320  30.497  0.00  0.00    +0.000 C 
ATOM     22  C   UNL     1       1.495  45.879  29.104  0.00  0.00    +0.000 C 
ATOM     23  C   UNL     1      -0.106  44.493  30.810  0.00  0.00    +0.000 C 
ATOM     24  C   UNL     1       0.520  46.927  28.514  0.00  0.00    +0.000 C 
ATOM     25  C   UNL     1      -0.147  44.070  32.279  0.00  0.00    +0.000 C 
ATOM     26  C   UNL     1       1.859  45.418  31.708  0.00  0.00    +0.000 C 
ATOM     27  C   UNL     1       1.097  44.659  32.758  0.00  0.00    +0.000 C 
ATOM     28  C   UNL     1      -1.198  44.693  29.941  0.00  0.00    +0.000 C 
ATOM     29  C   UNL     1      -0.803  46.506  28.048  0.00  0.00    +0.000 C 
ATOM     30  C   UNL     1       2.929  46.526  29.217  0.00  0.00    +0.000 C 
ATOM     31  C   UNL     1       1.644  44.676  28.111  0.00  0.00    +0.000 C 
ATOM     32  C   UNL     1      -1.398  45.594  28.752  0.00  0.00    +0.000 C 
ATOM     33  C   UNL     1      -0.282  42.566  32.438  0.00  0.00    +0.000 C 
ATOM     34  C   UNL     1      -1.666  47.323  27.122  0.00  0.00    +0.000 C 
BRANCH  25  35
ATOM     35  O   UNL     1      -1.249  44.656  32.929  0.00  0.00    +0.000 OA
ATOM     36  H   UNL     1      -1.895  43.930  32.879  0.00  0.00    +0.000 HD
ENDBRANCH  25  35
ENDBRANCH  20  24
ENDBRANCH   3  19
TORSDOF 4
ENDMDL
MODEL 4
REMARK VINA RESULT:      -6.0     13.853     17.581
REMARK  Name = 44423609_SipholenoneA.pdbqt.pdb
REMARK  4 active torsions:
REMARK  status: ('A' for Active; 'I' for Inactive)
REMARK    1  A    between atoms: C_3  and  C_19
REMARK    2  A    between atoms: C_5  and  O_17
REMARK    3  A    between atoms: C_20  and  C_24
REMARK    4  A    between atoms: C_25  and  O_35
REMARK                            x       y       z     vdW  Elec       q    Type
REMARK                         _______ _______ _______ _____ _____    ______ ____
ROOT
ATOM      1  O   UNL     1     -13.983  50.078  27.504  0.00  0.00    +0.000 OA
ATOM      2  O   UNL     1     -13.378  52.202  30.474  0.00  0.00    +0.000 OA
ATOM      3  C   UNL     1     -10.431  48.738  26.410  0.00  0.00    +0.000 C 
ATOM      4  C   UNL     1     -11.672  48.903  27.285  0.00  0.00    +0.000 C 
ATOM      5  C   UNL     1     -10.566  48.678  24.897  0.00  0.00    +0.000 C 
ATOM      6  C   UNL     1     -12.893  49.727  26.700  0.00  0.00    +0.000 C 
ATOM      7  C   UNL     1     -11.880  49.166  24.523  0.00  0.00    +0.000 C 
ATOM      8  C   UNL     1     -13.040  49.693  25.299  0.00  0.00    +0.000 C 
ATOM      9  C   UNL     1     -11.357  49.690  28.489  0.00  0.00    +0.000 C 
ATOM     10  C   UNL     1     -12.200  47.503  27.705  0.00  0.00    +0.000 C 
ATOM     11  C   UNL     1      -9.452  49.478  24.215  0.00  0.00    +0.000 C 
ATOM     12  C   UNL     1     -11.971  50.735  29.396  0.00  0.00    +0.000 C 
ATOM     13  C   UNL     1     -14.040  51.409  28.121  0.00  0.00    +0.000 C 
ATOM     14  C   UNL     1     -13.176  51.529  29.471  0.00  0.00    +0.000 C 
ATOM     15  C   UNL     1     -15.555  51.638  28.433  0.00  0.00    +0.000 C 
ATOM     16  C   UNL     1     -13.558  52.507  27.102  0.00  0.00    +0.000 C 
ENDROOT
BRANCH   5  17
ATOM     17  O   UNL     1     -10.411  47.351  24.461  0.00  0.00    +0.000 OA
ATOM     18  H   UNL     1      -9.618  47.081  24.958  0.00  0.00    +0.000 HD
ENDBRANCH   5  17
BRANCH   3  19
ATOM     19  C   UNL     1      -9.178  48.383  27.025  0.00  0.00    +0.000 C 
ATOM     20  C   UNL     1      -7.850  47.993  27.679  0.00  0.00    +0.000 C 
BRANCH  20  24
ATOM     21  C   UNL     1      -4.244  48.292  27.392  0.00  0.00    +0.000 C 
ATOM     22  C   UNL     1      -5.361  47.223  27.476  0.00  0.00    +0.000 C 
ATOM     23  C   UNL     1      -3.427  48.804  28.551  0.00  0.00    +0.000 C 
ATOM     24  C   UNL     1      -6.610  47.624  28.300  0.00  0.00    +0.000 C 
ATOM     25  C   UNL     1      -2.379  49.825  28.104  0.00  0.00    +0.000 C 
ATOM     26  C   UNL     1      -3.738  48.933  26.225  0.00  0.00    +0.000 C 
ATOM     27  C   UNL     1      -2.619  49.836  26.666  0.00  0.00    +0.000 C 
ATOM     28  C   UNL     1      -4.058  48.715  29.809  0.00  0.00    +0.000 C 
ATOM     29  C   UNL     1      -6.517  47.725  29.757  0.00  0.00    +0.000 C 
ATOM     30  C   UNL     1      -5.812  46.878  26.005  0.00  0.00    +0.000 C 
ATOM     31  C   UNL     1      -4.744  45.906  28.057  0.00  0.00    +0.000 C 
ATOM     32  C   UNL     1      -5.414  48.215  30.231  0.00  0.00    +0.000 C 
ATOM     33  C   UNL     1      -0.979  49.437  28.546  0.00  0.00    +0.000 C 
ATOM     34  C   UNL     1      -7.709  47.717  30.678  0.00  0.00    +0.000 C 
BRANCH  25  35
ATOM     35  O   UNL     1      -2.655  51.088  28.657  0.00  0.00    +0.000 OA
ATOM     36  H   UNL     1      -2.787  51.614  27.849  0.00  0.00    +0.000 HD
ENDBRANCH  25  35
ENDBRANCH  20  24
ENDBRANCH   3  19
TORSDOF 4
ENDMDL
MODEL 5
REMARK VINA RESULT:      -5.5     25.908     29.373
REMARK  Name = 44423609_SipholenoneA.pdbqt.pdb
REMARK  4 active torsions:
REMARK  status: ('A' for Active; 'I' for Inactive)
REMARK    1  A    between atoms: C_3  and  C_19
REMARK    2  A    between atoms: C_5  and  O_17
REMARK    3  A    between atoms: C_20  and  C_24
REMARK    4  A    between atoms: C_25  and  O_35
REMARK                            x       y       z     vdW  Elec       q    Type
REMARK                         _______ _______ _______ _____ _____    ______ ____
ROOT
ATOM      1  O   UNL     1     -23.685  45.604  29.103  0.00  0.00    +0.000 OA
ATOM      2  O   UNL     1     -25.426  44.202  32.052  0.00  0.00    +0.000 OA
ATOM      3  C   UNL     1     -20.305  47.119  30.479  0.00  0.00    +0.000 C 
ATOM      4  C   UNL     1     -21.327  46.044  30.111  0.00  0.00    +0.000 C 
ATOM      5  C   UNL     1     -20.106  48.324  29.576  0.00  0.00    +0.000 C 
ATOM      6  C   UNL     1     -22.622  46.489  29.312  0.00  0.00    +0.000 C 
ATOM      7  C   UNL     1     -21.229  48.418  28.663  0.00  0.00    +0.000 C 
ATOM      8  C   UNL     1     -22.467  47.608  28.470  0.00  0.00    +0.000 C 
ATOM      9  C   UNL     1     -21.933  45.467  31.323  0.00  0.00    +0.000 C 
ATOM     10  C   UNL     1     -20.627  44.921  29.296  0.00  0.00    +0.000 C 
ATOM     11  C   UNL     1     -19.941  49.605  30.400  0.00  0.00    +0.000 C 
ATOM     12  C   UNL     1     -23.261  44.946  31.831  0.00  0.00    +0.000 C 
ATOM     13  C   UNL     1     -24.849  45.632  29.995  0.00  0.00    +0.000 C 
ATOM     14  C   UNL     1     -24.624  44.827  31.370  0.00  0.00    +0.000 C 
ATOM     15  C   UNL     1     -26.001  44.971  29.170  0.00  0.00    +0.000 C 
ATOM     16  C   UNL     1     -25.249  47.118  30.330  0.00  0.00    +0.000 C 
ENDROOT
BRANCH   5  17
ATOM     17  O   UNL     1     -18.913  48.178  28.848  0.00  0.00    +0.000 OA
ATOM     18  H   UNL     1     -19.070  47.328  28.396  0.00  0.00    +0.000 HD
ENDBRANCH   5  17
BRANCH   3  19
ATOM     19  C   UNL     1     -19.360  46.858  31.534  0.00  0.00    +0.000 C 
ATOM     20  C   UNL     1     -18.347  46.577  32.647  0.00  0.00    +0.000 C 
BRANCH  20  24
ATOM     21  C   UNL     1     -16.965  43.929  34.710  0.00  0.00    +0.000 C 
ATOM     22  C   UNL     1     -17.687  45.294  34.825  0.00  0.00    +0.000 C 
ATOM     23  C   UNL     1     -15.475  43.714  34.776  0.00  0.00    +0.000 C 
ATOM     24  C   UNL     1     -17.397  46.303  33.687  0.00  0.00    +0.000 C 
ATOM     25  C   UNL     1     -15.108  42.232  34.671  0.00  0.00    +0.000 C 
ATOM     26  C   UNL     1     -17.557  42.639  34.589  0.00  0.00    +0.000 C 
ATOM     27  C   UNL     1     -16.436  41.638  34.578  0.00  0.00    +0.000 C 
ATOM     28  C   UNL     1     -14.696  44.823  34.387  0.00  0.00    +0.000 C 
ATOM     29  C   UNL     1     -16.082  46.941  33.600  0.00  0.00    +0.000 C 
ATOM     30  C   UNL     1     -19.239  45.018  34.877  0.00  0.00    +0.000 C 
ATOM     31  C   UNL     1     -17.319  45.934  36.207  0.00  0.00    +0.000 C 
ATOM     32  C   UNL     1     -15.062  46.198  33.896  0.00  0.00    +0.000 C 
ATOM     33  C   UNL     1     -14.248  41.773  35.836  0.00  0.00    +0.000 C 
ATOM     34  C   UNL     1     -15.806  48.193  32.808  0.00  0.00    +0.000 C 
BRANCH  25  35
ATOM     35  O   UNL     1     -14.378  41.989  33.494  0.00  0.00    +0.000 OA
ATOM     36  H   UNL     1     -14.429  42.861  33.065  0.00  0.00    +0.000 HD
ENDBRANCH  25  35
ENDBRANCH  20  24
ENDBRANCH   3  19
TORSDOF 4
ENDMDL
MODEL 6
REMARK VINA RESULT:      -5.5     29.794     33.053
REMARK  Name = 44423609_SipholenoneA.pdbqt.pdb
REMARK  4 active torsions:
REMARK  status: ('A' for Active; 'I' for Inactive)
REMARK    1  A    between atoms: C_3  and  C_19
REMARK    2  A    between atoms: C_5  and  O_17
REMARK    3  A    between atoms: C_20  and  C_24
REMARK    4  A    between atoms: C_25  and  O_35
REMARK                            x       y       z     vdW  Elec       q    Type
REMARK                         _______ _______ _______ _____ _____    ______ ____
ROOT
ATOM      1  O   UNL     1     -26.904  46.596  14.831  0.00  0.00    +0.000 OA
ATOM      2  O   UNL     1     -23.504  47.834  15.603  0.00  0.00    +0.000 OA
ATOM      3  C   UNL     1     -26.982  42.846  16.076  0.00  0.00    +0.000 C 
ATOM      4  C   UNL     1     -26.913  44.369  16.178  0.00  0.00    +0.000 C 
ATOM      5  C   UNL     1     -27.893  42.190  15.052  0.00  0.00    +0.000 C 
ATOM      6  C   UNL     1     -27.135  45.216  14.856  0.00  0.00    +0.000 C 
ATOM      7  C   UNL     1     -28.286  43.182  14.069  0.00  0.00    +0.000 C 
ATOM      8  C   UNL     1     -27.971  44.629  13.886  0.00  0.00    +0.000 C 
ATOM      9  C   UNL     1     -25.559  44.803  16.562  0.00  0.00    +0.000 C 
ATOM     10  C   UNL     1     -27.937  44.865  17.237  0.00  0.00    +0.000 C 
ATOM     11  C   UNL     1     -27.204  40.989  14.396  0.00  0.00    +0.000 C 
ATOM     12  C   UNL     1     -24.566  45.912  16.287  0.00  0.00    +0.000 C 
ATOM     13  C   UNL     1     -25.623  47.115  14.339  0.00  0.00    +0.000 C 
ATOM     14  C   UNL     1     -24.449  47.074  15.438  0.00  0.00    +0.000 C 
ATOM     15  C   UNL     1     -25.923  48.595  13.932  0.00  0.00    +0.000 C 
ATOM     16  C   UNL     1     -25.161  46.320  13.062  0.00  0.00    +0.000 C 
ENDROOT
BRANCH   5  17
ATOM     17  O   UNL     1     -29.034  41.678  15.693  0.00  0.00    +0.000 OA
ATOM     18  H   UNL     1     -29.674  42.397  15.542  0.00  0.00    +0.000 HD
ENDBRANCH   5  17
BRANCH   3  19
ATOM     19  C   UNL     1     -26.387  42.044  17.114  0.00  0.00    +0.000 C 
ATOM     20  C   UNL     1     -25.746  41.189  18.210  0.00  0.00    +0.000 C 
BRANCH  20  24
ATOM     21  C   UNL     1     -25.996  40.247  21.706  0.00  0.00    +0.000 C 
ATOM     22  C   UNL     1     -25.001  40.865  20.693  0.00  0.00    +0.000 C 
ATOM     23  C   UNL     1     -26.060  38.793  22.101  0.00  0.00    +0.000 C 
ATOM     24  C   UNL     1     -25.146  40.378  19.230  0.00  0.00    +0.000 C 
ATOM     25  C   UNL     1     -27.133  38.536  23.159  0.00  0.00    +0.000 C 
ATOM     26  C   UNL     1     -26.974  40.923  22.491  0.00  0.00    +0.000 C 
ATOM     27  C   UNL     1     -27.635  39.890  23.359  0.00  0.00    +0.000 C 
ATOM     28  C   UNL     1     -25.574  37.892  21.131  0.00  0.00    +0.000 C 
ATOM     29  C   UNL     1     -24.747  39.015  18.877  0.00  0.00    +0.000 C 
ATOM     30  C   UNL     1     -25.187  42.431  20.728  0.00  0.00    +0.000 C 
ATOM     31  C   UNL     1     -23.545  40.594  21.201  0.00  0.00    +0.000 C 
ATOM     32  C   UNL     1     -25.010  38.093  19.750  0.00  0.00    +0.000 C 
ATOM     33  C   UNL     1     -26.570  37.842  24.388  0.00  0.00    +0.000 C 
ATOM     34  C   UNL     1     -24.472  38.559  17.467  0.00  0.00    +0.000 C 
BRANCH  25  35
ATOM     35  O   UNL     1     -28.146  37.708  22.642  0.00  0.00    +0.000 OA
ATOM     36  H   UNL     1     -27.846  37.609  21.722  0.00  0.00    +0.000 HD
ENDBRANCH  25  35
ENDBRANCH  20  24
ENDBRANCH   3  19
TORSDOF 4
ENDMDL
MODEL 7
REMARK VINA RESULT:      -5.5      4.921      8.299
REMARK  Name = 44423609_SipholenoneA.pdbqt.pdb
REMARK  4 active torsions:
REMARK  status: ('A' for Active; 'I' for Inactive)
REMARK    1  A    between atoms: C_3  and  C_19
REMARK    2  A    between atoms: C_5  and  O_17
REMARK    3  A    between atoms: C_20  and  C_24
REMARK    4  A    between atoms: C_25  and  O_35
REMARK                            x       y       z     vdW  Elec       q    Type
REMARK                         _______ _______ _______ _____ _____    ______ ____
ROOT
ATOM      1  O   UNL     1       6.032  56.150  27.558  0.00  0.00    +0.000 OA
ATOM      2  O   UNL     1       3.627  53.338  27.546  0.00  0.00    +0.000 OA
ATOM      3  C   UNL     1       6.626  57.061  23.759  0.00  0.00    +0.000 C 
ATOM      4  C   UNL     1       5.868  56.922  25.078  0.00  0.00    +0.000 C 
ATOM      5  C   UNL     1       8.085  57.485  23.759  0.00  0.00    +0.000 C 
ATOM      6  C   UNL     1       6.683  56.478  26.364  0.00  0.00    +0.000 C 
ATOM      7  C   UNL     1       8.620  57.330  25.098  0.00  0.00    +0.000 C 
ATOM      8  C   UNL     1       8.041  56.852  26.387  0.00  0.00    +0.000 C 
ATOM      9  C   UNL     1       4.872  55.840  24.993  0.00  0.00    +0.000 C 
ATOM     10  C   UNL     1       5.152  58.261  25.409  0.00  0.00    +0.000 C 
ATOM     11  C   UNL     1       8.890  56.677  22.734  0.00  0.00    +0.000 C 
ATOM     12  C   UNL     1       4.266  54.742  25.840  0.00  0.00    +0.000 C 
ATOM     13  C   UNL     1       5.752  54.746  27.878  0.00  0.00    +0.000 C 
ATOM     14  C   UNL     1       4.432  54.174  27.157  0.00  0.00    +0.000 C 
ATOM     15  C   UNL     1       5.567  54.719  29.430  0.00  0.00    +0.000 C 
ATOM     16  C   UNL     1       6.980  53.838  27.495  0.00  0.00    +0.000 C 
ENDROOT
BRANCH   5  17
ATOM     17  O   UNL     1       8.189  58.828  23.357  0.00  0.00    +0.000 OA
ATOM     18  H   UNL     1       9.044  58.820  22.890  0.00  0.00    +0.000 HD
ENDBRANCH   5  17
BRANCH   3  19
ATOM     19  C   UNL     1       5.891  57.044  22.520  0.00  0.00    +0.000 C 
ATOM     20  C   UNL     1       5.120  57.031  21.198  0.00  0.00    +0.000 C 
BRANCH  20  24
ATOM     21  C   UNL     1       5.192  55.796  17.786  0.00  0.00    +0.000 C 
ATOM     22  C   UNL     1       5.112  57.119  18.587  0.00  0.00    +0.000 C 
ATOM     23  C   UNL     1       4.018  55.034  17.226  0.00  0.00    +0.000 C 
ATOM     24  C   UNL     1       4.398  57.029  19.958  0.00  0.00    +0.000 C 
ATOM     25  C   UNL     1       4.461  53.793  16.450  0.00  0.00    +0.000 C 
ATOM     26  C   UNL     1       6.363  55.097  17.374  0.00  0.00    +0.000 C 
ATOM     27  C   UNL     1       5.909  53.911  16.570  0.00  0.00    +0.000 C 
ATOM     28  C   UNL     1       2.800  55.232  17.910  0.00  0.00    +0.000 C 
ATOM     29  C   UNL     1       2.947  56.842  20.010  0.00  0.00    +0.000 C 
ATOM     30  C   UNL     1       6.584  57.638  18.813  0.00  0.00    +0.000 C 
ATOM     31  C   UNL     1       4.409  58.198  17.694  0.00  0.00    +0.000 C 
ATOM     32  C   UNL     1       2.435  56.055  19.116  0.00  0.00    +0.000 C 
ATOM     33  C   UNL     1       3.905  53.774  15.037  0.00  0.00    +0.000 C 
ATOM     34  C   UNL     1       2.107  57.125  21.229  0.00  0.00    +0.000 C 
BRANCH  25  35
ATOM     35  O   UNL     1       4.009  52.625  17.090  0.00  0.00    +0.000 OA
ATOM     36  H   UNL     1       4.856  52.208  17.324  0.00  0.00    +0.000 HD
ENDBRANCH  25  35
ENDBRANCH  20  24
ENDBRANCH   3  19
TORSDOF 4
ENDMDL
MODEL 8
REMARK VINA RESULT:      -5.4     24.577     28.543
REMARK  Name = 44423609_SipholenoneA.pdbqt.pdb
REMARK  4 active torsions:
REMARK  status: ('A' for Active; 'I' for Inactive)
REMARK    1  A    between atoms: C_3  and  C_19
REMARK    2  A    between atoms: C_5  and  O_17
REMARK    3  A    between atoms: C_20  and  C_24
REMARK    4  A    between atoms: C_25  and  O_35
REMARK                            x       y       z     vdW  Elec       q    Type
REMARK                         _______ _______ _______ _____ _____    ______ ____
ROOT
ATOM      1  O   UNL     1     -22.922  42.641  31.665  0.00  0.00    +0.000 OA
ATOM      2  O   UNL     1     -20.478  41.975  34.363  0.00  0.00    +0.000 OA
ATOM      3  C   UNL     1     -21.966  46.189  30.212  0.00  0.00    +0.000 C 
ATOM      4  C   UNL     1     -21.815  44.701  30.523  0.00  0.00    +0.000 C 
ATOM      5  C   UNL     1     -23.325  46.757  29.841  0.00  0.00    +0.000 C 
ATOM      6  C   UNL     1     -23.045  43.949  31.182  0.00  0.00    +0.000 C 
ATOM      7  C   UNL     1     -24.351  45.802  30.212  0.00  0.00    +0.000 C 
ATOM      8  C   UNL     1     -24.318  44.458  30.860  0.00  0.00    +0.000 C 
ATOM      9  C   UNL     1     -20.778  44.487  31.546  0.00  0.00    +0.000 C 
ATOM     10  C   UNL     1     -21.429  43.936  29.226  0.00  0.00    +0.000 C 
ATOM     11  C   UNL     1     -23.552  48.117  30.510  0.00  0.00    +0.000 C 
ATOM     12  C   UNL     1     -20.478  43.605  32.740  0.00  0.00    +0.000 C 
ATOM     13  C   UNL     1     -22.670  42.407  33.091  0.00  0.00    +0.000 C 
ATOM     14  C   UNL     1     -21.123  42.564  33.504  0.00  0.00    +0.000 C 
ATOM     15  C   UNL     1     -23.146  40.940  33.344  0.00  0.00    +0.000 C 
ATOM     16  C   UNL     1     -23.538  43.384  33.970  0.00  0.00    +0.000 C 
ENDROOT
BRANCH   5  17
ATOM     17  O   UNL     1     -23.377  46.996  28.457  0.00  0.00    +0.000 OA
ATOM     18  H   UNL     1     -23.744  47.899  28.435  0.00  0.00    +0.000 HD
ENDBRANCH   5  17
BRANCH   3  19
ATOM     19  C   UNL     1     -20.784  46.991  30.019  0.00  0.00    +0.000 C 
ATOM     20  C   UNL     1     -19.529  47.844  29.826  0.00  0.00    +0.000 C 
BRANCH  20  24
ATOM     21  C   UNL     1     -16.043  48.171  30.783  0.00  0.00    +0.000 C 
ATOM     22  C   UNL     1     -17.379  48.954  30.812  0.00  0.00    +0.000 C 
ATOM     23  C   UNL     1     -14.972  48.296  29.730  0.00  0.00    +0.000 C 
ATOM     24  C   UNL     1     -18.356  48.652  29.649  0.00  0.00    +0.000 C 
ATOM     25  C   UNL     1     -13.764  47.409  30.036  0.00  0.00    +0.000 C 
ATOM     26  C   UNL     1     -15.549  47.254  31.756  0.00  0.00    +0.000 C 
ATOM     27  C   UNL     1     -14.185  46.817  31.300  0.00  0.00    +0.000 C 
ATOM     28  C   UNL     1     -15.429  48.722  28.465  0.00  0.00    +0.000 C 
ATOM     29  C   UNL     1     -18.043  49.121  28.298  0.00  0.00    +0.000 C 
ATOM     30  C   UNL     1     -18.099  48.633  32.178  0.00  0.00    +0.000 C 
ATOM     31  C   UNL     1     -17.054  50.486  30.847  0.00  0.00    +0.000 C 
ATOM     32  C   UNL     1     -16.798  49.067  27.944  0.00  0.00    +0.000 C 
ATOM     33  C   UNL     1     -12.467  48.199  30.064  0.00  0.00    +0.000 C 
ATOM     34  C   UNL     1     -19.061  49.237  27.193  0.00  0.00    +0.000 C 
BRANCH  25  35
ATOM     35  O   UNL     1     -13.623  46.413  29.052  0.00  0.00    +0.000 OA
ATOM     36  H   UNL     1     -12.954  45.842  29.467  0.00  0.00    +0.000 HD
ENDBRANCH  25  35
ENDBRANCH  20  24
ENDBRANCH   3  19
TORSDOF 4
ENDMDL
MODEL 9
REMARK VINA RESULT:      -5.3      2.845      9.104
REMARK  Name = 44423609_SipholenoneA.pdbqt.pdb
REMARK  4 active torsions:
REMARK  status: ('A' for Active; 'I' for Inactive)
REMARK    1  A    between atoms: C_3  and  C_19
REMARK    2  A    between atoms: C_5  and  O_17
REMARK    3  A    between atoms: C_20  and  C_24
REMARK    4  A    between atoms: C_25  and  O_35
REMARK                            x       y       z     vdW  Elec       q    Type
REMARK                         _______ _______ _______ _____ _____    ______ ____
ROOT
ATOM      1  O   UNL     1       8.529  56.865  11.399  0.00  0.00    +0.000 OA
ATOM      2  O   UNL     1       8.807  53.204  11.862  0.00  0.00    +0.000 OA
ATOM      3  C   UNL     1       5.339  57.960  13.458  0.00  0.00    +0.000 C 
ATOM      4  C   UNL     1       6.753  57.436  13.213  0.00  0.00    +0.000 C 
ATOM      5  C   UNL     1       4.789  59.096  12.611  0.00  0.00    +0.000 C 
ATOM      6  C   UNL     1       7.324  57.492  11.736  0.00  0.00    +0.000 C 
ATOM      7  C   UNL     1       5.619  59.247  11.431  0.00  0.00    +0.000 C 
ATOM      8  C   UNL     1       6.827  58.531  10.925  0.00  0.00    +0.000 C 
ATOM      9  C   UNL     1       6.825  55.991  13.486  0.00  0.00    +0.000 C 
ATOM     10  C   UNL     1       7.751  58.188  14.137  0.00  0.00    +0.000 C 
ATOM     11  C   UNL     1       3.324  58.842  12.240  0.00  0.00    +0.000 C 
ATOM     12  C   UNL     1       7.493  54.736  12.965  0.00  0.00    +0.000 C 
ATOM     13  C   UNL     1       8.516  55.526  10.799  0.00  0.00    +0.000 C 
ATOM     14  C   UNL     1       8.355  54.342  11.875  0.00  0.00    +0.000 C 
ATOM     15  C   UNL     1       9.894  55.403  10.071  0.00  0.00    +0.000 C 
ATOM     16  C   UNL     1       7.364  55.413   9.733  0.00  0.00    +0.000 C 
ENDROOT
BRANCH   5  17
ATOM     17  O   UNL     1       4.797  60.288  13.354  0.00  0.00    +0.000 OA
ATOM     18  H   UNL     1       4.444  59.980  14.209  0.00  0.00    +0.000 HD
ENDBRANCH   5  17
BRANCH   3  19
ATOM     19  C   UNL     1       4.635  57.557  14.648  0.00  0.00    +0.000 C 
ATOM     20  C   UNL     1       3.882  57.140  15.914  0.00  0.00    +0.000 C 
BRANCH  20  24
ATOM     21  C   UNL     1       4.324  56.351  19.429  0.00  0.00    +0.000 C 
ATOM     22  C   UNL     1       3.767  55.742  18.118  0.00  0.00    +0.000 C 
ATOM     23  C   UNL     1       3.515  57.069  20.478  0.00  0.00    +0.000 C 
ATOM     24  C   UNL     1       3.181  56.756  17.105  0.00  0.00    +0.000 C 
ATOM     25  C   UNL     1       4.377  57.502  21.666  0.00  0.00    +0.000 C 
ATOM     26  C   UNL     1       5.661  56.293  19.917  0.00  0.00    +0.000 C 
ATOM     27  C   UNL     1       5.673  56.975  21.256  0.00  0.00    +0.000 C 
ATOM     28  C   UNL     1       2.334  57.677  20.006  0.00  0.00    +0.000 C 
ATOM     29  C   UNL     1       1.913  57.427  17.401  0.00  0.00    +0.000 C 
ATOM     30  C   UNL     1       4.935  54.945  17.420  0.00  0.00    +0.000 C 
ATOM     31  C   UNL     1       2.681  54.676  18.489  0.00  0.00    +0.000 C 
ATOM     32  C   UNL     1       1.716  57.767  18.636  0.00  0.00    +0.000 C 
ATOM     33  C   UNL     1       3.831  56.987  22.986  0.00  0.00    +0.000 C 
ATOM     34  C   UNL     1       1.063  58.111  16.362  0.00  0.00    +0.000 C 
BRANCH  25  35
ATOM     35  O   UNL     1       4.423  58.905  21.755  0.00  0.00    +0.000 OA
ATOM     36  H   UNL     1       3.815  59.059  22.499  0.00  0.00    +0.000 HD
ENDBRANCH  25  35
ENDBRANCH  20  24
ENDBRANCH   3  19
TORSDOF 4
ENDMDL
