MODEL 1
REMARK VINA RESULT:      -5.7      0.000      0.000
REMARK  Name = 445154_Resveratrol.pdbqt.pdb
REMARK  5 active torsions:
REMARK  status: ('A' for Active; 'I' for Inactive)
REMARK    1  A    between atoms: C_1  and  C_11
REMARK    2  A    between atoms: C_4  and  O_7
REMARK    3  A    between atoms: C_5  and  O_9
REMARK    4  A    between atoms: C_12  and  C_13
REMARK    5  A    between atoms: C_18  and  O_19
REMARK                            x       y       z     vdW  Elec       q    Type
REMARK                         _______ _______ _______ _____ _____    ______ ____
ROOT
ATOM      1  C   UNL     1     -16.950  40.430   5.878  0.00  0.00    +0.000 A 
ATOM      2  C   UNL     1     -15.667  40.881   5.570  0.00  0.00    +0.000 A 
ATOM      3  C   UNL     1     -18.012  41.331   5.953  0.00  0.00    +0.000 A 
ATOM      4  C   UNL     1     -17.780  42.684   5.717  0.00  0.00    +0.000 A 
ATOM      5  C   UNL     1     -15.457  42.236   5.338  0.00  0.00    +0.000 A 
ATOM      6  C   UNL     1     -16.505  43.148   5.408  0.00  0.00    +0.000 A 
ENDROOT
BRANCH   4   7
ATOM      7  O   UNL     1     -18.800  43.588   5.783  0.00  0.00    +0.000 OA
ATOM      8  H   UNL     1     -18.518  44.398   5.321  0.00  0.00    +0.000 HD
ENDBRANCH   4   7
BRANCH   5   9
ATOM      9  O   UNL     1     -14.192  42.655   5.038  0.00  0.00    +0.000 OA
ATOM     10  H   UNL     1     -13.588  42.291   5.709  0.00  0.00    +0.000 HD
ENDBRANCH   5   9
BRANCH   1  11
ATOM     11  C   UNL     1     -17.179  39.043   6.120  0.00  0.00    +0.000 C 
ATOM     12  C   UNL     1     -17.372  37.875   6.322  0.00  0.00    +0.000 C 
BRANCH  12  13
ATOM     13  C   UNL     1     -17.601  36.488   6.562  0.00  0.00    +0.000 A 
ATOM     14  C   UNL     1     -17.142  35.540   5.649  0.00  0.00    +0.000 A 
ATOM     15  C   UNL     1     -18.283  36.083   7.709  0.00  0.00    +0.000 A 
ATOM     16  C   UNL     1     -17.363  34.185   5.881  0.00  0.00    +0.000 A 
ATOM     17  C   UNL     1     -18.507  34.730   7.945  0.00  0.00    +0.000 A 
ATOM     18  C   UNL     1     -18.045  33.791   7.028  0.00  0.00    +0.000 A 
BRANCH  18  19
ATOM     19  O   UNL     1     -18.276  32.470   7.281  0.00  0.00    +0.000 OA
ATOM     20  H   UNL     1     -19.234  32.311   7.219  0.00  0.00    +0.000 HD
ENDBRANCH  18  19
ENDBRANCH  12  13
ENDBRANCH   1  11
TORSDOF 5
ENDMDL
MODEL 2
REMARK VINA RESULT:      -5.6      0.041      2.007
REMARK  Name = 445154_Resveratrol.pdbqt.pdb
REMARK  5 active torsions:
REMARK  status: ('A' for Active; 'I' for Inactive)
REMARK    1  A    between atoms: C_1  and  C_11
REMARK    2  A    between atoms: C_4  and  O_7
REMARK    3  A    between atoms: C_5  and  O_9
REMARK    4  A    between atoms: C_12  and  C_13
REMARK    5  A    between atoms: C_18  and  O_19
REMARK                            x       y       z     vdW  Elec       q    Type
REMARK                         _______ _______ _______ _____ _____    ______ ____
ROOT
ATOM      1  C   UNL     1     -16.909  40.428   5.877  0.00  0.00    +0.000 A 
ATOM      2  C   UNL     1     -17.960  41.341   5.954  0.00  0.00    +0.000 A 
ATOM      3  C   UNL     1     -15.622  40.864   5.564  0.00  0.00    +0.000 A 
ATOM      4  C   UNL     1     -15.396  42.218   5.330  0.00  0.00    +0.000 A 
ATOM      5  C   UNL     1     -17.713  42.689   5.716  0.00  0.00    +0.000 A 
ATOM      6  C   UNL     1     -16.434  43.140   5.403  0.00  0.00    +0.000 A 
ENDROOT
BRANCH   4   7
ATOM      7  O   UNL     1     -14.147  42.673   5.022  0.00  0.00    +0.000 OA
ATOM      8  H   UNL     1     -13.607  42.648   5.832  0.00  0.00    +0.000 HD
ENDBRANCH   4   7
BRANCH   5   9
ATOM      9  O   UNL     1     -18.757  43.565   5.797  0.00  0.00    +0.000 OA
ATOM     10  H   UNL     1     -18.400  44.467   5.715  0.00  0.00    +0.000 HD
ENDBRANCH   5   9
BRANCH   1  11
ATOM     11  C   UNL     1     -17.150  39.043   6.117  0.00  0.00    +0.000 C 
ATOM     12  C   UNL     1     -17.352  37.876   6.320  0.00  0.00    +0.000 C 
BRANCH  12  13
ATOM     13  C   UNL     1     -17.592  36.491   6.562  0.00  0.00    +0.000 A 
ATOM     14  C   UNL     1     -17.138  35.538   5.651  0.00  0.00    +0.000 A 
ATOM     15  C   UNL     1     -18.281  36.094   7.707  0.00  0.00    +0.000 A 
ATOM     16  C   UNL     1     -17.370  34.186   5.885  0.00  0.00    +0.000 A 
ATOM     17  C   UNL     1     -18.516  34.743   7.945  0.00  0.00    +0.000 A 
ATOM     18  C   UNL     1     -18.059  33.799   7.031  0.00  0.00    +0.000 A 
BRANCH  18  19
ATOM     19  O   UNL     1     -18.302  32.480   7.285  0.00  0.00    +0.000 OA
ATOM     20  H   UNL     1     -17.448  32.033   7.420  0.00  0.00    +0.000 HD
ENDBRANCH  18  19
ENDBRANCH  12  13
ENDBRANCH   1  11
TORSDOF 5
ENDMDL
MODEL 3
REMARK VINA RESULT:      -5.4     25.884     28.002
REMARK  Name = 445154_Resveratrol.pdbqt.pdb
REMARK  5 active torsions:
REMARK  status: ('A' for Active; 'I' for Inactive)
REMARK    1  A    between atoms: C_1  and  C_11
REMARK    2  A    between atoms: C_4  and  O_7
REMARK    3  A    between atoms: C_5  and  O_9
REMARK    4  A    between atoms: C_12  and  C_13
REMARK    5  A    between atoms: C_18  and  O_19
REMARK                            x       y       z     vdW  Elec       q    Type
REMARK                         _______ _______ _______ _____ _____    ______ ____
ROOT
ATOM      1  C   UNL     1      -4.503  47.968  26.410  0.00  0.00    +0.000 A 
ATOM      2  C   UNL     1      -4.124  46.652  26.668  0.00  0.00    +0.000 A 
ATOM      3  C   UNL     1      -5.741  48.240  25.827  0.00  0.00    +0.000 A 
ATOM      4  C   UNL     1      -6.593  47.186  25.508  0.00  0.00    +0.000 A 
ATOM      5  C   UNL     1      -4.990  45.614  26.341  0.00  0.00    +0.000 A 
ATOM      6  C   UNL     1      -6.228  45.868  25.760  0.00  0.00    +0.000 A 
ENDROOT
BRANCH   4   7
ATOM      7  O   UNL     1      -7.811  47.423  24.937  0.00  0.00    +0.000 OA
ATOM      8  H   UNL     1      -8.483  47.409  25.641  0.00  0.00    +0.000 HD
ENDBRANCH   4   7
BRANCH   5   9
ATOM      9  O   UNL     1      -4.596  44.333  26.604  0.00  0.00    +0.000 OA
ATOM     10  H   UNL     1      -4.237  44.309  27.508  0.00  0.00    +0.000 HD
ENDBRANCH   5   9
BRANCH   1  11
ATOM     11  C   UNL     1      -3.624  49.042  26.740  0.00  0.00    +0.000 C 
ATOM     12  C   UNL     1      -2.883  49.946  27.018  0.00  0.00    +0.000 C 
BRANCH  12  13
ATOM     13  C   UNL     1      -2.005  51.019  27.347  0.00  0.00    +0.000 A 
ATOM     14  C   UNL     1      -2.414  52.000  28.250  0.00  0.00    +0.000 A 
ATOM     15  C   UNL     1      -0.739  51.086  26.766  0.00  0.00    +0.000 A 
ATOM     16  C   UNL     1      -1.558  53.049  28.573  0.00  0.00    +0.000 A 
ATOM     17  C   UNL     1       0.120  52.134  27.086  0.00  0.00    +0.000 A 
ATOM     18  C   UNL     1      -0.297  53.108  27.988  0.00  0.00    +0.000 A 
BRANCH  18  19
ATOM     19  O   UNL     1       0.562  54.125  28.286  0.00  0.00    +0.000 OA
ATOM     20  H   UNL     1       0.834  54.031  29.216  0.00  0.00    +0.000 HD
ENDBRANCH  18  19
ENDBRANCH  12  13
ENDBRANCH   1  11
TORSDOF 5
ENDMDL
MODEL 4
REMARK VINA RESULT:      -5.4     25.874     28.022
REMARK  Name = 445154_Resveratrol.pdbqt.pdb
REMARK  5 active torsions:
REMARK  status: ('A' for Active; 'I' for Inactive)
REMARK    1  A    between atoms: C_1  and  C_11
REMARK    2  A    between atoms: C_4  and  O_7
REMARK    3  A    between atoms: C_5  and  O_9
REMARK    4  A    between atoms: C_12  and  C_13
REMARK    5  A    between atoms: C_18  and  O_19
REMARK                            x       y       z     vdW  Elec       q    Type
REMARK                         _______ _______ _______ _____ _____    ______ ____
ROOT
ATOM      1  C   UNL     1      -4.479  47.930  26.400  0.00  0.00    +0.000 A 
ATOM      2  C   UNL     1      -5.720  48.187  25.819  0.00  0.00    +0.000 A 
ATOM      3  C   UNL     1      -4.084  46.619  26.662  0.00  0.00    +0.000 A 
ATOM      4  C   UNL     1      -4.939  45.569  26.339  0.00  0.00    +0.000 A 
ATOM      5  C   UNL     1      -6.560  47.123  25.504  0.00  0.00    +0.000 A 
ATOM      6  C   UNL     1      -6.180  45.809  25.759  0.00  0.00    +0.000 A 
ENDROOT
BRANCH   4   7
ATOM      7  O   UNL     1      -4.579  44.275  26.583  0.00  0.00    +0.000 OA
ATOM      8  H   UNL     1      -4.483  44.164  27.546  0.00  0.00    +0.000 HD
ENDBRANCH   4   7
BRANCH   5   9
ATOM      9  O   UNL     1      -7.771  47.399  24.936  0.00  0.00    +0.000 OA
ATOM     10  H   UNL     1      -8.395  47.619  25.651  0.00  0.00    +0.000 HD
ENDBRANCH   5   9
BRANCH   1  11
ATOM     11  C   UNL     1      -3.609  49.011  26.728  0.00  0.00    +0.000 C 
ATOM     12  C   UNL     1      -2.876  49.923  27.004  0.00  0.00    +0.000 C 
BRANCH  12  13
ATOM     13  C   UNL     1      -2.007  51.004  27.333  0.00  0.00    +0.000 A 
ATOM     14  C   UNL     1      -0.729  51.062  26.778  0.00  0.00    +0.000 A 
ATOM     15  C   UNL     1      -2.437  52.001  28.209  0.00  0.00    +0.000 A 
ATOM     16  C   UNL     1       0.121  52.117  27.097  0.00  0.00    +0.000 A 
ATOM     17  C   UNL     1      -1.590  53.058  28.531  0.00  0.00    +0.000 A 
ATOM     18  C   UNL     1      -0.316  53.107  27.973  0.00  0.00    +0.000 A 
BRANCH  18  19
ATOM     19  O   UNL     1       0.496  54.152  28.303  0.00  0.00    +0.000 OA
ATOM     20  H   UNL     1       1.415  53.899  28.106  0.00  0.00    +0.000 HD
ENDBRANCH  18  19
ENDBRANCH  12  13
ENDBRANCH   1  11
TORSDOF 5
ENDMDL
MODEL 5
REMARK VINA RESULT:      -5.2     21.014     22.697
REMARK  Name = 445154_Resveratrol.pdbqt.pdb
REMARK  5 active torsions:
REMARK  status: ('A' for Active; 'I' for Inactive)
REMARK    1  A    between atoms: C_1  and  C_11
REMARK    2  A    between atoms: C_4  and  O_7
REMARK    3  A    between atoms: C_5  and  O_9
REMARK    4  A    between atoms: C_12  and  C_13
REMARK    5  A    between atoms: C_18  and  O_19
REMARK                            x       y       z     vdW  Elec       q    Type
REMARK                         _______ _______ _______ _____ _____    ______ ____
ROOT
ATOM      1  C   UNL     1       0.977  28.441  13.158  0.00  0.00    +0.000 A 
ATOM      2  C   UNL     1       0.178  28.897  12.111  0.00  0.00    +0.000 A 
ATOM      3  C   UNL     1       2.261  27.961  12.903  0.00  0.00    +0.000 A 
ATOM      4  C   UNL     1       2.738  27.943  11.595  0.00  0.00    +0.000 A 
ATOM      5  C   UNL     1       0.673  28.870  10.811  0.00  0.00    +0.000 A 
ATOM      6  C   UNL     1       1.952  28.396  10.540  0.00  0.00    +0.000 A 
ENDROOT
BRANCH   4   7
ATOM      7  O   UNL     1       3.991  27.479  11.316  0.00  0.00    +0.000 OA
ATOM      8  H   UNL     1       3.910  26.571  10.974  0.00  0.00    +0.000 HD
ENDBRANCH   4   7
BRANCH   5   9
ATOM      9  O   UNL     1      -0.128  29.323   9.802  0.00  0.00    +0.000 OA
ATOM     10  H   UNL     1      -0.793  28.637   9.616  0.00  0.00    +0.000 HD
ENDBRANCH   5   9
BRANCH   1  11
ATOM     11  C   UNL     1       0.481  28.462  14.495  0.00  0.00    +0.000 C 
ATOM     12  C   UNL     1       0.062  28.479  15.621  0.00  0.00    +0.000 C 
BRANCH  12  13
ATOM     13  C   UNL     1      -0.433  28.500  16.958  0.00  0.00    +0.000 A 
ATOM     14  C   UNL     1      -1.766  28.174  17.210  0.00  0.00    +0.000 A 
ATOM     15  C   UNL     1       0.415  28.847  18.009  0.00  0.00    +0.000 A 
ATOM     16  C   UNL     1      -2.252  28.193  18.514  0.00  0.00    +0.000 A 
ATOM     17  C   UNL     1      -0.068  28.868  19.315  0.00  0.00    +0.000 A 
ATOM     18  C   UNL     1      -1.398  28.541  19.557  0.00  0.00    +0.000 A 
BRANCH  18  19
ATOM     19  O   UNL     1      -1.848  28.568  20.845  0.00  0.00    +0.000 OA
ATOM     20  H   UNL     1      -1.274  27.994  21.381  0.00  0.00    +0.000 HD
ENDBRANCH  18  19
ENDBRANCH  12  13
ENDBRANCH   1  11
TORSDOF 5
ENDMDL
MODEL 6
REMARK VINA RESULT:      -5.0     24.843     26.328
REMARK  Name = 445154_Resveratrol.pdbqt.pdb
REMARK  5 active torsions:
REMARK  status: ('A' for Active; 'I' for Inactive)
REMARK    1  A    between atoms: C_1  and  C_11
REMARK    2  A    between atoms: C_4  and  O_7
REMARK    3  A    between atoms: C_5  and  O_9
REMARK    4  A    between atoms: C_12  and  C_13
REMARK    5  A    between atoms: C_18  and  O_19
REMARK                            x       y       z     vdW  Elec       q    Type
REMARK                         _______ _______ _______ _____ _____    ______ ____
ROOT
ATOM      1  C   UNL     1      -3.289  49.433  27.308  0.00  0.00    +0.000 A 
ATOM      2  C   UNL     1      -3.049  49.110  28.643  0.00  0.00    +0.000 A 
ATOM      3  C   UNL     1      -2.346  50.159  26.581  0.00  0.00    +0.000 A 
ATOM      4  C   UNL     1      -1.163  50.557  27.199  0.00  0.00    +0.000 A 
ATOM      5  C   UNL     1      -1.860  49.517  29.242  0.00  0.00    +0.000 A 
ATOM      6  C   UNL     1      -0.910  50.241  28.529  0.00  0.00    +0.000 A 
ENDROOT
BRANCH   4   7
ATOM      7  O   UNL     1      -0.223  51.267  26.511  0.00  0.00    +0.000 OA
ATOM      8  H   UNL     1      -0.683  51.857  25.889  0.00  0.00    +0.000 HD
ENDBRANCH   4   7
BRANCH   5   9
ATOM      9  O   UNL     1      -1.646  49.188  30.550  0.00  0.00    +0.000 OA
ATOM     10  H   UNL     1      -2.046  49.883  31.103  0.00  0.00    +0.000 HD
ENDBRANCH   5   9
BRANCH   1  11
ATOM     11  C   UNL     1      -4.504  49.023  26.684  0.00  0.00    +0.000 C 
ATOM     12  C   UNL     1      -5.526  48.676  26.157  0.00  0.00    +0.000 C 
BRANCH  12  13
ATOM     13  C   UNL     1      -6.741  48.265  25.533  0.00  0.00    +0.000 A 
ATOM     14  C   UNL     1      -7.197  48.930  24.395  0.00  0.00    +0.000 A 
ATOM     15  C   UNL     1      -7.468  47.199  26.061  0.00  0.00    +0.000 A 
ATOM     16  C   UNL     1      -8.382  48.530  23.784  0.00  0.00    +0.000 A 
ATOM     17  C   UNL     1      -8.654  46.796  25.453  0.00  0.00    +0.000 A 
ATOM     18  C   UNL     1      -9.102  47.466  24.318  0.00  0.00    +0.000 A 
BRANCH  18  19
ATOM     19  O   UNL     1     -10.266  47.053  23.740  0.00  0.00    +0.000 OA
ATOM     20  H   UNL     1     -10.202  46.096  23.573  0.00  0.00    +0.000 HD
ENDBRANCH  18  19
ENDBRANCH  12  13
ENDBRANCH   1  11
TORSDOF 5
ENDMDL
MODEL 7
REMARK VINA RESULT:      -4.8     28.219     31.462
REMARK  Name = 445154_Resveratrol.pdbqt.pdb
REMARK  5 active torsions:
REMARK  status: ('A' for Active; 'I' for Inactive)
REMARK    1  A    between atoms: C_1  and  C_11
REMARK    2  A    between atoms: C_4  and  O_7
REMARK    3  A    between atoms: C_5  and  O_9
REMARK    4  A    between atoms: C_12  and  C_13
REMARK    5  A    between atoms: C_18  and  O_19
REMARK                            x       y       z     vdW  Elec       q    Type
REMARK                         _______ _______ _______ _____ _____    ______ ____
ROOT
ATOM      1  C   UNL     1       5.215  54.193  16.554  0.00  0.00    +0.000 A 
ATOM      2  C   UNL     1       5.300  54.579  15.216  0.00  0.00    +0.000 A 
ATOM      3  C   UNL     1       4.091  53.509  17.016  0.00  0.00    +0.000 A 
ATOM      4  C   UNL     1       3.057  53.213  16.132  0.00  0.00    +0.000 A 
ATOM      5  C   UNL     1       4.256  54.274  14.349  0.00  0.00    +0.000 A 
ATOM      6  C   UNL     1       3.129  53.591  14.795  0.00  0.00    +0.000 A 
ENDROOT
BRANCH   4   7
ATOM      7  O   UNL     1       1.946  52.544  16.557  0.00  0.00    +0.000 OA
ATOM      8  H   UNL     1       2.158  52.111  17.403  0.00  0.00    +0.000 HD
ENDBRANCH   4   7
BRANCH   5   9
ATOM      9  O   UNL     1       4.361  54.662  13.044  0.00  0.00    +0.000 OA
ATOM     10  H   UNL     1       4.564  53.872  12.512  0.00  0.00    +0.000 HD
ENDBRANCH   5   9
BRANCH   1  11
ATOM     11  C   UNL     1       6.278  54.500  17.453  0.00  0.00    +0.000 C 
ATOM     12  C   UNL     1       7.175  54.758  18.210  0.00  0.00    +0.000 C 
BRANCH  12  13
ATOM     13  C   UNL     1       8.238  55.066  19.108  0.00  0.00    +0.000 A 
ATOM     14  C   UNL     1       8.019  55.943  20.170  0.00  0.00    +0.000 A 
ATOM     15  C   UNL     1       9.495  54.489  18.923  0.00  0.00    +0.000 A 
ATOM     16  C   UNL     1       9.056  56.245  21.049  0.00  0.00    +0.000 A 
ATOM     17  C   UNL     1      10.534  54.789  19.799  0.00  0.00    +0.000 A 
ATOM     18  C   UNL     1      10.306  55.665  20.856  0.00  0.00    +0.000 A 
BRANCH  18  19
ATOM     19  O   UNL     1      11.340  55.943  21.701  0.00  0.00    +0.000 OA
ATOM     20  H   UNL     1      11.914  55.158  21.750  0.00  0.00    +0.000 HD
ENDBRANCH  18  19
ENDBRANCH  12  13
ENDBRANCH   1  11
TORSDOF 5
ENDMDL
MODEL 8
REMARK VINA RESULT:      -4.7     28.253     31.529
REMARK  Name = 445154_Resveratrol.pdbqt.pdb
REMARK  5 active torsions:
REMARK  status: ('A' for Active; 'I' for Inactive)
REMARK    1  A    between atoms: C_1  and  C_11
REMARK    2  A    between atoms: C_4  and  O_7
REMARK    3  A    between atoms: C_5  and  O_9
REMARK    4  A    between atoms: C_12  and  C_13
REMARK    5  A    between atoms: C_18  and  O_19
REMARK                            x       y       z     vdW  Elec       q    Type
REMARK                         _______ _______ _______ _____ _____    ______ ____
ROOT
ATOM      1  C   UNL     1       4.838  54.628  16.978  0.00  0.00    +0.000 A 
ATOM      2  C   UNL     1       5.189  54.953  15.669  0.00  0.00    +0.000 A 
ATOM      3  C   UNL     1       3.752  53.789  17.227  0.00  0.00    +0.000 A 
ATOM      4  C   UNL     1       3.023  53.278  16.156  0.00  0.00    +0.000 A 
ATOM      5  C   UNL     1       4.447  54.433  14.613  0.00  0.00    +0.000 A 
ATOM      6  C   UNL     1       3.362  53.594  14.844  0.00  0.00    +0.000 A 
ENDROOT
BRANCH   4   7
ATOM      7  O   UNL     1       1.956  52.454  16.369  0.00  0.00    +0.000 OA
ATOM      8  H   UNL     1       1.423  52.431  15.554  0.00  0.00    +0.000 HD
ENDBRANCH   4   7
BRANCH   5   9
ATOM      9  O   UNL     1       4.809  54.765  13.339  0.00  0.00    +0.000 OA
ATOM     10  H   UNL     1       4.857  55.736  13.284  0.00  0.00    +0.000 HD
ENDBRANCH   5   9
BRANCH   1  11
ATOM     11  C   UNL     1       5.590  55.156  18.069  0.00  0.00    +0.000 C 
ATOM     12  C   UNL     1       6.224  55.601  18.988  0.00  0.00    +0.000 C 
BRANCH  12  13
ATOM     13  C   UNL     1       6.976  56.129  20.078  0.00  0.00    +0.000 A 
ATOM     14  C   UNL     1       8.341  55.860  20.176  0.00  0.00    +0.000 A 
ATOM     15  C   UNL     1       6.344  56.913  21.044  0.00  0.00    +0.000 A 
ATOM     16  C   UNL     1       9.077  56.375  21.239  0.00  0.00    +0.000 A 
ATOM     17  C   UNL     1       7.077  57.429  22.109  0.00  0.00    +0.000 A 
ATOM     18  C   UNL     1       8.438  57.156  22.198  0.00  0.00    +0.000 A 
BRANCH  18  19
ATOM     19  O   UNL     1       9.135  57.673  23.251  0.00  0.00    +0.000 OA
ATOM     20  H   UNL     1       8.746  58.535  23.481  0.00  0.00    +0.000 HD
ENDBRANCH  18  19
ENDBRANCH  12  13
ENDBRANCH   1  11
TORSDOF 5
ENDMDL
MODEL 9
REMARK VINA RESULT:      -4.7     17.608     20.182
REMARK  Name = 445154_Resveratrol.pdbqt.pdb
REMARK  5 active torsions:
REMARK  status: ('A' for Active; 'I' for Inactive)
REMARK    1  A    between atoms: C_1  and  C_11
REMARK    2  A    between atoms: C_4  and  O_7
REMARK    3  A    between atoms: C_5  and  O_9
REMARK    4  A    between atoms: C_12  and  C_13
REMARK    5  A    between atoms: C_18  and  O_19
REMARK                            x       y       z     vdW  Elec       q    Type
REMARK                         _______ _______ _______ _____ _____    ______ ____
ROOT
ATOM      1  C   UNL     1     -19.114  48.789  21.380  0.00  0.00    +0.000 A 
ATOM      2  C   UNL     1     -19.874  48.779  20.211  0.00  0.00    +0.000 A 
ATOM      3  C   UNL     1     -19.509  48.029  22.480  0.00  0.00    +0.000 A 
ATOM      4  C   UNL     1     -20.667  47.260  22.401  0.00  0.00    +0.000 A 
ATOM      5  C   UNL     1     -21.028  48.005  20.153  0.00  0.00    +0.000 A 
ATOM      6  C   UNL     1     -21.435  47.240  21.242  0.00  0.00    +0.000 A 
ENDROOT
BRANCH   4   7
ATOM      7  O   UNL     1     -21.077  46.507  23.462  0.00  0.00    +0.000 OA
ATOM      8  H   UNL     1     -20.385  45.849  23.654  0.00  0.00    +0.000 HD
ENDBRANCH   4   7
BRANCH   5   9
ATOM      9  O   UNL     1     -21.756  48.010  18.998  0.00  0.00    +0.000 OA
ATOM     10  H   UNL     1     -22.254  47.174  18.952  0.00  0.00    +0.000 HD
ENDBRANCH   5   9
BRANCH   1  11
ATOM     11  C   UNL     1     -17.929  49.579  21.452  0.00  0.00    +0.000 C 
ATOM     12  C   UNL     1     -16.930  50.245  21.514  0.00  0.00    +0.000 C 
BRANCH  12  13
ATOM     13  C   UNL     1     -15.745  51.034  21.587  0.00  0.00    +0.000 A 
ATOM     14  C   UNL     1     -14.964  51.011  22.743  0.00  0.00    +0.000 A 
ATOM     15  C   UNL     1     -15.370  51.828  20.503  0.00  0.00    +0.000 A 
ATOM     16  C   UNL     1     -13.807  51.780  22.816  0.00  0.00    +0.000 A 
ATOM     17  C   UNL     1     -14.213  52.599  20.573  0.00  0.00    +0.000 A 
ATOM     18  C   UNL     1     -13.441  52.569  21.730  0.00  0.00    +0.000 A 
BRANCH  18  19
ATOM     19  O   UNL     1     -12.311  53.334  21.774  0.00  0.00    +0.000 OA
ATOM     20  H   UNL     1     -11.540  52.740  21.773  0.00  0.00    +0.000 HD
ENDBRANCH  18  19
ENDBRANCH  12  13
ENDBRANCH   1  11
TORSDOF 5
ENDMDL
