MODEL 1
REMARK VINA RESULT:      -7.9      0.000      0.000
REMARK  Name = 448438_Violaxanthin.pdbqt.pdb
REMARK  16 active torsions:
REMARK  status: ('A' for Active; 'I' for Inactive)
REMARK    1  A    between atoms: C_1  and  C_5
REMARK    2  A    between atoms: C_2  and  C_27
REMARK    3  A    between atoms: C_3  and  C_5
REMARK    4  A    between atoms: C_3  and  C_7
REMARK    5  A    between atoms: C_6  and  C_10
REMARK    6  A    between atoms: C_8  and  C_10
REMARK    7  A    between atoms: C_8  and  C_12
REMARK    8  A    between atoms: C_11  and  C_14
REMARK    9  A    between atoms: C_19  and  O_23
REMARK   10  A    between atoms: C_25  and  C_27
REMARK   11  A    between atoms: C_25  and  C_29
REMARK   12  A    between atoms: C_28  and  C_32
REMARK   13  A    between atoms: C_30  and  C_32
REMARK   14  A    between atoms: C_30  and  C_34
REMARK   15  A    between atoms: C_33  and  C_36
REMARK   16  A    between atoms: C_41  and  O_45
REMARK                            x       y       z     vdW  Elec       q    Type
REMARK                         _______ _______ _______ _____ _____    ______ ____
ROOT
ATOM      1  C   UNL     1      -0.080  55.268  26.679  0.00  0.00    +0.000 C 
ATOM      2  C   UNL     1       0.343  56.094  25.919  0.00  0.00    +0.000 C 
ENDROOT
BRANCH   2   3
ATOM      3  C   UNL     1       0.884  57.147  24.944  0.00  0.00    +0.000 C 
BRANCH   3   4
ATOM      4  C   UNL     1       1.343  58.038  24.123  0.00  0.00    +0.000 C 
ATOM      5  C   UNL     1       0.830  59.445  24.187  0.00  0.00    +0.000 C 
BRANCH   4   7
ATOM      6  C   UNL     1       3.063  57.352  22.276  0.00  0.00    +0.000 C 
ATOM      7  C   UNL     1       2.273  57.667  23.124  0.00  0.00    +0.000 C 
BRANCH   6   8
ATOM      8  C   UNL     1       4.073  56.951  21.193  0.00  0.00    +0.000 C 
BRANCH   8   9
ATOM      9  C   UNL     1       4.926  56.615  20.276  0.00  0.00    +0.000 C 
ATOM     10  C   UNL     1       6.391  56.592  20.589  0.00  0.00    +0.000 C 
BRANCH   9  12
ATOM     11  C   UNL     1       4.073  55.769  17.948  0.00  0.00    +0.000 C 
ATOM     12  C   UNL     1       4.463  56.153  19.018  0.00  0.00    +0.000 C 
BRANCH  11  14
ATOM     13  O   UNL     1       2.361  56.011  16.317  0.00  0.00    +0.000 OA
ATOM     14  C   UNL     1       3.603  55.327  16.644  0.00  0.00    +0.000 C 
ATOM     15  C   UNL     1       3.476  56.350  15.494  0.00  0.00    +0.000 C 
ATOM     16  C   UNL     1       3.681  53.808  16.270  0.00  0.00    +0.000 C 
ATOM     17  C   UNL     1       3.349  55.825  14.174  0.00  0.00    +0.000 C 
ATOM     18  C   UNL     1       3.407  53.695  14.830  0.00  0.00    +0.000 C 
ATOM     19  C   UNL     1       3.268  54.509  13.689  0.00  0.00    +0.000 C 
ATOM     20  C   UNL     1       3.909  57.812  15.627  0.00  0.00    +0.000 C 
ATOM     21  C   UNL     1       5.134  53.369  16.575  0.00  0.00    +0.000 C 
ATOM     22  C   UNL     1       2.636  53.084  17.144  0.00  0.00    +0.000 C 
BRANCH  19  23
ATOM     23  O   UNL     1       2.455  54.180  12.647  0.00  0.00    +0.000 OA
ATOM     24  H   UNL     1       1.598  53.820  12.937  0.00  0.00    +0.000 HD
ENDBRANCH  19  23
ENDBRANCH  11  14
ENDBRANCH   9  12
ENDBRANCH   8   9
ENDBRANCH   6   8
ENDBRANCH   4   7
ENDBRANCH   3   4
ENDBRANCH   2   3
BRANCH   1  25
ATOM     25  C   UNL     1      -0.621  54.214  27.653  0.00  0.00    +0.000 C 
BRANCH  25  26
ATOM     26  C   UNL     1      -1.077  53.323  28.476  0.00  0.00    +0.000 C 
ATOM     27  C   UNL     1      -1.084  53.603  29.949  0.00  0.00    +0.000 C 
BRANCH  26  29
ATOM     28  C   UNL     1      -2.025  51.063  27.565  0.00  0.00    +0.000 C 
ATOM     29  C   UNL     1      -1.592  52.102  27.984  0.00  0.00    +0.000 C 
BRANCH  28  30
ATOM     30  C   UNL     1      -2.572  49.734  27.029  0.00  0.00    +0.000 C 
BRANCH  30  31
ATOM     31  C   UNL     1      -3.031  48.608  26.579  0.00  0.00    +0.000 C 
ATOM     32  C   UNL     1      -2.116  47.429  26.444  0.00  0.00    +0.000 C 
BRANCH  31  34
ATOM     33  C   UNL     1      -5.572  48.369  25.988  0.00  0.00    +0.000 C 
ATOM     34  C   UNL     1      -4.406  48.481  26.261  0.00  0.00    +0.000 C 
BRANCH  33  36
ATOM     35  O   UNL     1      -7.546  49.529  25.334  0.00  0.00    +0.000 OA
ATOM     36  C   UNL     1      -6.982  48.226  25.658  0.00  0.00    +0.000 C 
ATOM     37  C   UNL     1      -7.478  48.608  24.247  0.00  0.00    +0.000 C 
ATOM     38  C   UNL     1      -7.883  47.275  26.524  0.00  0.00    +0.000 C 
ATOM     39  C   UNL     1      -8.767  48.135  23.859  0.00  0.00    +0.000 C 
ATOM     40  C   UNL     1      -9.141  47.096  25.796  0.00  0.00    +0.000 C 
ATOM     41  C   UNL     1      -9.731  47.382  24.550  0.00  0.00    +0.000 C 
ATOM     42  C   UNL     1      -6.551  49.070  23.119  0.00  0.00    +0.000 C 
ATOM     43  C   UNL     1      -8.050  47.973  27.893  0.00  0.00    +0.000 C 
ATOM     44  C   UNL     1      -7.104  45.939  26.625  0.00  0.00    +0.000 C 
BRANCH  41  45
ATOM     45  O   UNL     1     -10.551  46.488  23.931  0.00  0.00    +0.000 OA
ATOM     46  H   UNL     1     -11.136  46.024  24.557  0.00  0.00    +0.000 HD
ENDBRANCH  41  45
ENDBRANCH  33  36
ENDBRANCH  31  34
ENDBRANCH  30  31
ENDBRANCH  28  30
ENDBRANCH  26  29
ENDBRANCH  25  26
ENDBRANCH   1  25
TORSDOF 16
ENDMDL
MODEL 2
REMARK VINA RESULT:      -7.6      0.924      1.726
REMARK  Name = 448438_Violaxanthin.pdbqt.pdb
REMARK  16 active torsions:
REMARK  status: ('A' for Active; 'I' for Inactive)
REMARK    1  A    between atoms: C_1  and  C_5
REMARK    2  A    between atoms: C_2  and  C_27
REMARK    3  A    between atoms: C_3  and  C_5
REMARK    4  A    between atoms: C_3  and  C_7
REMARK    5  A    between atoms: C_6  and  C_10
REMARK    6  A    between atoms: C_8  and  C_10
REMARK    7  A    between atoms: C_8  and  C_12
REMARK    8  A    between atoms: C_11  and  C_14
REMARK    9  A    between atoms: C_19  and  O_23
REMARK   10  A    between atoms: C_25  and  C_27
REMARK   11  A    between atoms: C_25  and  C_29
REMARK   12  A    between atoms: C_28  and  C_32
REMARK   13  A    between atoms: C_30  and  C_32
REMARK   14  A    between atoms: C_30  and  C_34
REMARK   15  A    between atoms: C_33  and  C_36
REMARK   16  A    between atoms: C_41  and  O_45
REMARK                            x       y       z     vdW  Elec       q    Type
REMARK                         _______ _______ _______ _____ _____    ______ ____
ROOT
ATOM      1  C   UNL     1       0.166  54.866  26.198  0.00  0.00    +0.000 C 
ATOM      2  C   UNL     1       0.498  55.682  25.383  0.00  0.00    +0.000 C 
ENDROOT
BRANCH   2   3
ATOM      3  C   UNL     1       0.923  56.726  24.344  0.00  0.00    +0.000 C 
BRANCH   3   4
ATOM      4  C   UNL     1       1.284  57.607  23.465  0.00  0.00    +0.000 C 
ATOM      5  C   UNL     1       0.490  58.868  23.303  0.00  0.00    +0.000 C 
BRANCH   4   7
ATOM      6  C   UNL     1       3.318  57.126  21.891  0.00  0.00    +0.000 C 
ATOM      7  C   UNL     1       2.384  57.347  22.614  0.00  0.00    +0.000 C 
BRANCH   6   8
ATOM      8  C   UNL     1       4.511  56.844  20.970  0.00  0.00    +0.000 C 
BRANCH   8   9
ATOM      9  C   UNL     1       5.519  56.607  20.188  0.00  0.00    +0.000 C 
ATOM     10  C   UNL     1       6.910  56.606  20.743  0.00  0.00    +0.000 C 
BRANCH   9  12
ATOM     11  C   UNL     1       5.092  55.906  17.701  0.00  0.00    +0.000 C 
ATOM     12  C   UNL     1       5.293  56.229  18.841  0.00  0.00    +0.000 C 
BRANCH  11  14
ATOM     13  O   UNL     1       5.554  54.280  16.029  0.00  0.00    +0.000 OA
ATOM     14  C   UNL     1       4.828  55.506  16.327  0.00  0.00    +0.000 C 
ATOM     15  C   UNL     1       4.132  54.156  16.048  0.00  0.00    +0.000 C 
ATOM     16  C   UNL     1       4.802  56.592  15.198  0.00  0.00    +0.000 C 
ATOM     17  C   UNL     1       3.592  53.966  14.741  0.00  0.00    +0.000 C 
ATOM     18  C   UNL     1       4.250  55.960  13.992  0.00  0.00    +0.000 C 
ATOM     19  C   UNL     1       3.602  54.774  13.592  0.00  0.00    +0.000 C 
ATOM     20  C   UNL     1       3.616  53.239  17.159  0.00  0.00    +0.000 C 
ATOM     21  C   UNL     1       3.853  57.706  15.702  0.00  0.00    +0.000 C 
ATOM     22  C   UNL     1       6.257  57.075  15.018  0.00  0.00    +0.000 C 
BRANCH  19  23
ATOM     23  O   UNL     1       3.746  54.243  12.347  0.00  0.00    +0.000 OA
ATOM     24  H   UNL     1       2.933  54.307  11.814  0.00  0.00    +0.000 HD
ENDBRANCH  19  23
ENDBRANCH  11  14
ENDBRANCH   9  12
ENDBRANCH   8   9
ENDBRANCH   6   8
ENDBRANCH   4   7
ENDBRANCH   3   4
ENDBRANCH   2   3
BRANCH   1  25
ATOM     25  C   UNL     1      -0.259  53.822  27.238  0.00  0.00    +0.000 C 
BRANCH  25  26
ATOM     26  C   UNL     1      -0.618  52.941  28.117  0.00  0.00    +0.000 C 
ATOM     27  C   UNL     1      -0.438  53.228  29.578  0.00  0.00    +0.000 C 
BRANCH  26  29
ATOM     28  C   UNL     1      -1.701  50.690  27.344  0.00  0.00    +0.000 C 
ATOM     29  C   UNL     1      -1.202  51.723  27.700  0.00  0.00    +0.000 C 
BRANCH  28  30
ATOM     30  C   UNL     1      -2.343  49.374  26.885  0.00  0.00    +0.000 C 
BRANCH  30  31
ATOM     31  C   UNL     1      -2.881  48.261  26.495  0.00  0.00    +0.000 C 
ATOM     32  C   UNL     1      -2.045  47.022  26.396  0.00  0.00    +0.000 C 
BRANCH  31  34
ATOM     33  C   UNL     1      -5.447  48.164  25.973  0.00  0.00    +0.000 C 
ATOM     34  C   UNL     1      -4.268  48.208  26.210  0.00  0.00    +0.000 C 
BRANCH  33  36
ATOM     35  O   UNL     1      -7.377  49.463  25.462  0.00  0.00    +0.000 OA
ATOM     36  C   UNL     1      -6.874  48.115  25.692  0.00  0.00    +0.000 C 
ATOM     37  C   UNL     1      -7.399  48.603  24.325  0.00  0.00    +0.000 C 
ATOM     38  C   UNL     1      -7.794  47.166  26.540  0.00  0.00    +0.000 C 
ATOM     39  C   UNL     1      -8.725  48.221  23.963  0.00  0.00    +0.000 C 
ATOM     40  C   UNL     1      -9.085  47.094  25.854  0.00  0.00    +0.000 C 
ATOM     41  C   UNL     1      -9.704  47.482  24.649  0.00  0.00    +0.000 C 
ATOM     42  C   UNL     1      -6.490  49.078  23.189  0.00  0.00    +0.000 C 
ATOM     43  C   UNL     1      -7.871  47.792  27.951  0.00  0.00    +0.000 C 
ATOM     44  C   UNL     1      -7.085  45.787  26.537  0.00  0.00    +0.000 C 
BRANCH  41  45
ATOM     45  O   UNL     1     -10.593  46.669  24.015  0.00  0.00    +0.000 OA
ATOM     46  H   UNL     1     -11.081  46.096  24.635  0.00  0.00    +0.000 HD
ENDBRANCH  41  45
ENDBRANCH  33  36
ENDBRANCH  31  34
ENDBRANCH  30  31
ENDBRANCH  28  30
ENDBRANCH  26  29
ENDBRANCH  25  26
ENDBRANCH   1  25
TORSDOF 16
ENDMDL
MODEL 3
REMARK VINA RESULT:      -7.3      1.657      2.224
REMARK  Name = 448438_Violaxanthin.pdbqt.pdb
REMARK  16 active torsions:
REMARK  status: ('A' for Active; 'I' for Inactive)
REMARK    1  A    between atoms: C_1  and  C_5
REMARK    2  A    between atoms: C_2  and  C_27
REMARK    3  A    between atoms: C_3  and  C_5
REMARK    4  A    between atoms: C_3  and  C_7
REMARK    5  A    between atoms: C_6  and  C_10
REMARK    6  A    between atoms: C_8  and  C_10
REMARK    7  A    between atoms: C_8  and  C_12
REMARK    8  A    between atoms: C_11  and  C_14
REMARK    9  A    between atoms: C_19  and  O_23
REMARK   10  A    between atoms: C_25  and  C_27
REMARK   11  A    between atoms: C_25  and  C_29
REMARK   12  A    between atoms: C_28  and  C_32
REMARK   13  A    between atoms: C_30  and  C_32
REMARK   14  A    between atoms: C_30  and  C_34
REMARK   15  A    between atoms: C_33  and  C_36
REMARK   16  A    between atoms: C_41  and  O_45
REMARK                            x       y       z     vdW  Elec       q    Type
REMARK                         _______ _______ _______ _____ _____    ______ ____
ROOT
ATOM      1  C   UNL     1       0.365  53.438  26.035  0.00  0.00    +0.000 C 
ATOM      2  C   UNL     1       0.541  54.427  25.379  0.00  0.00    +0.000 C 
ENDROOT
BRANCH   2   3
ATOM      3  C   UNL     1       0.763  55.690  24.539  0.00  0.00    +0.000 C 
BRANCH   3   4
ATOM      4  C   UNL     1       0.951  56.756  23.827  0.00  0.00    +0.000 C 
ATOM      5  C   UNL     1      -0.004  57.907  23.941  0.00  0.00    +0.000 C 
BRANCH   4   7
ATOM      6  C   UNL     1       2.917  56.849  22.104  0.00  0.00    +0.000 C 
ATOM      7  C   UNL     1       2.014  56.807  22.896  0.00  0.00    +0.000 C 
BRANCH   6   8
ATOM      8  C   UNL     1       4.069  56.902  21.093  0.00  0.00    +0.000 C 
BRANCH   8   9
ATOM      9  C   UNL     1       5.042  56.943  20.237  0.00  0.00    +0.000 C 
ATOM     10  C   UNL     1       6.412  57.356  20.682  0.00  0.00    +0.000 C 
BRANCH   9  12
ATOM     11  C   UNL     1       4.654  56.095  17.789  0.00  0.00    +0.000 C 
ATOM     12  C   UNL     1       4.836  56.481  18.913  0.00  0.00    +0.000 C 
BRANCH  11  14
ATOM     13  O   UNL     1       3.398  56.478  15.808  0.00  0.00    +0.000 OA
ATOM     14  C   UNL     1       4.414  55.641  16.428  0.00  0.00    +0.000 C 
ATOM     15  C   UNL     1       4.704  56.591  15.246  0.00  0.00    +0.000 C 
ATOM     16  C   UNL     1       4.327  54.106  16.130  0.00  0.00    +0.000 C 
ATOM     17  C   UNL     1       4.784  56.004  13.949  0.00  0.00    +0.000 C 
ATOM     18  C   UNL     1       4.357  53.938  14.670  0.00  0.00    +0.000 C 
ATOM     19  C   UNL     1       4.601  54.685  13.501  0.00  0.00    +0.000 C 
ATOM     20  C   UNL     1       5.326  57.979  15.425  0.00  0.00    +0.000 C 
ATOM     21  C   UNL     1       5.590  53.477  16.768  0.00  0.00    +0.000 C 
ATOM     22  C   UNL     1       3.015  53.605  16.771  0.00  0.00    +0.000 C 
BRANCH  19  23
ATOM     23  O   UNL     1       3.991  54.412  12.315  0.00  0.00    +0.000 OA
ATOM     24  H   UNL     1       3.619  53.512  12.281  0.00  0.00    +0.000 HD
ENDBRANCH  19  23
ENDBRANCH  11  14
ENDBRANCH   9  12
ENDBRANCH   8   9
ENDBRANCH   6   8
ENDBRANCH   4   7
ENDBRANCH   3   4
ENDBRANCH   2   3
BRANCH   1  25
ATOM     25  C   UNL     1       0.141  52.174  26.875  0.00  0.00    +0.000 C 
BRANCH  25  26
ATOM     26  C   UNL     1      -0.048  51.106  27.584  0.00  0.00    +0.000 C 
ATOM     27  C   UNL     1       0.823  50.838  28.775  0.00  0.00    +0.000 C 
BRANCH  26  29
ATOM     28  C   UNL     1      -1.973  49.446  26.971  0.00  0.00    +0.000 C 
ATOM     29  C   UNL     1      -1.089  50.210  27.251  0.00  0.00    +0.000 C 
BRANCH  28  30
ATOM     30  C   UNL     1      -3.099  48.466  26.617  0.00  0.00    +0.000 C 
BRANCH  30  31
ATOM     31  C   UNL     1      -4.047  47.634  26.320  0.00  0.00    +0.000 C 
ATOM     32  C   UNL     1      -3.754  46.168  26.233  0.00  0.00    +0.000 C 
BRANCH  31  34
ATOM     33  C   UNL     1      -6.489  48.516  25.961  0.00  0.00    +0.000 C 
ATOM     34  C   UNL     1      -5.369  48.108  26.126  0.00  0.00    +0.000 C 
BRANCH  33  36
ATOM     35  O   UNL     1      -8.634  48.788  26.958  0.00  0.00    +0.000 OA
ATOM     36  C   UNL     1      -7.841  49.014  25.758  0.00  0.00    +0.000 C 
ATOM     37  C   UNL     1      -8.375  50.156  26.647  0.00  0.00    +0.000 C 
ATOM     38  C   UNL     1      -8.562  48.746  24.389  0.00  0.00    +0.000 C 
ATOM     39  C   UNL     1      -9.545  50.838  26.198  0.00  0.00    +0.000 C 
ATOM     40  C   UNL     1      -9.751  49.600  24.355  0.00  0.00    +0.000 C 
ATOM     41  C   UNL     1     -10.362  50.647  25.072  0.00  0.00    +0.000 C 
ATOM     42  C   UNL     1      -7.533  50.869  27.708  0.00  0.00    +0.000 C 
ATOM     43  C   UNL     1      -8.880  47.233  24.360  0.00  0.00    +0.000 C 
ATOM     44  C   UNL     1      -7.546  49.163  23.294  0.00  0.00    +0.000 C 
BRANCH  41  45
ATOM     45  O   UNL     1     -10.988  51.673  24.432  0.00  0.00    +0.000 OA
ATOM     46  H   UNL     1     -11.199  51.459  23.504  0.00  0.00    +0.000 HD
ENDBRANCH  41  45
ENDBRANCH  33  36
ENDBRANCH  31  34
ENDBRANCH  30  31
ENDBRANCH  28  30
ENDBRANCH  26  29
ENDBRANCH  25  26
ENDBRANCH   1  25
TORSDOF 16
ENDMDL
MODEL 4
REMARK VINA RESULT:      -7.0      5.283      7.283
REMARK  Name = 448438_Violaxanthin.pdbqt.pdb
REMARK  16 active torsions:
REMARK  status: ('A' for Active; 'I' for Inactive)
REMARK    1  A    between atoms: C_1  and  C_5
REMARK    2  A    between atoms: C_2  and  C_27
REMARK    3  A    between atoms: C_3  and  C_5
REMARK    4  A    between atoms: C_3  and  C_7
REMARK    5  A    between atoms: C_6  and  C_10
REMARK    6  A    between atoms: C_8  and  C_10
REMARK    7  A    between atoms: C_8  and  C_12
REMARK    8  A    between atoms: C_11  and  C_14
REMARK    9  A    between atoms: C_19  and  O_23
REMARK   10  A    between atoms: C_25  and  C_27
REMARK   11  A    between atoms: C_25  and  C_29
REMARK   12  A    between atoms: C_28  and  C_32
REMARK   13  A    between atoms: C_30  and  C_32
REMARK   14  A    between atoms: C_30  and  C_34
REMARK   15  A    between atoms: C_33  and  C_36
REMARK   16  A    between atoms: C_41  and  O_45
REMARK                            x       y       z     vdW  Elec       q    Type
REMARK                         _______ _______ _______ _____ _____    ______ ____
ROOT
ATOM      1  C   UNL     1       0.397  54.539  25.127  0.00  0.00    +0.000 C 
ATOM      2  C   UNL     1       0.580  55.285  24.205  0.00  0.00    +0.000 C 
ENDROOT
BRANCH   2   3
ATOM      3  C   UNL     1       0.812  56.238  23.027  0.00  0.00    +0.000 C 
BRANCH   3   4
ATOM      4  C   UNL     1       1.010  57.042  22.030  0.00  0.00    +0.000 C 
ATOM      5  C   UNL     1       2.409  57.373  21.605  0.00  0.00    +0.000 C 
BRANCH   4   7
ATOM      6  C   UNL     1      -1.025  58.182  20.845  0.00  0.00    +0.000 C 
ATOM      7  C   UNL     1      -0.091  57.659  21.390  0.00  0.00    +0.000 C 
BRANCH   6   8
ATOM      8  C   UNL     1      -2.216  58.852  20.149  0.00  0.00    +0.000 C 
BRANCH   8   9
ATOM      9  C   UNL     1      -3.223  59.417  19.558  0.00  0.00    +0.000 C 
ATOM     10  C   UNL     1      -3.013  60.667  18.759  0.00  0.00    +0.000 C 
BRANCH   9  12
ATOM     11  C   UNL     1      -5.569  58.254  19.566  0.00  0.00    +0.000 C 
ATOM     12  C   UNL     1      -4.491  58.786  19.566  0.00  0.00    +0.000 C 
BRANCH  11  14
ATOM     13  O   UNL     1      -6.759  56.237  19.973  0.00  0.00    +0.000 OA
ATOM     14  C   UNL     1      -6.880  57.622  19.544  0.00  0.00    +0.000 C 
ATOM     15  C   UNL     1      -7.488  57.086  20.858  0.00  0.00    +0.000 C 
ATOM     16  C   UNL     1      -7.850  57.898  18.346  0.00  0.00    +0.000 C 
ATOM     17  C   UNL     1      -8.884  56.796  20.853  0.00  0.00    +0.000 C 
ATOM     18  C   UNL     1      -9.170  57.368  18.717  0.00  0.00    +0.000 C 
ATOM     19  C   UNL     1      -9.854  56.860  19.839  0.00  0.00    +0.000 C 
ATOM     20  C   UNL     1      -6.815  57.264  22.222  0.00  0.00    +0.000 C 
ATOM     21  C   UNL     1      -7.913  59.437  18.196  0.00  0.00    +0.000 C 
ATOM     22  C   UNL     1      -7.240  57.196  17.114  0.00  0.00    +0.000 C 
BRANCH  19  23
ATOM     23  O   UNL     1     -10.843  55.929  19.736  0.00  0.00    +0.000 OA
ATOM     24  H   UNL     1     -11.624  56.260  19.259  0.00  0.00    +0.000 HD
ENDBRANCH  19  23
ENDBRANCH  11  14
ENDBRANCH   9  12
ENDBRANCH   8   9
ENDBRANCH   6   8
ENDBRANCH   4   7
ENDBRANCH   3   4
ENDBRANCH   2   3
BRANCH   1  25
ATOM     25  C   UNL     1       0.164  53.586  26.306  0.00  0.00    +0.000 C 
BRANCH  25  26
ATOM     26  C   UNL     1      -0.033  52.781  27.302  0.00  0.00    +0.000 C 
ATOM     27  C   UNL     1       0.484  53.137  28.663  0.00  0.00    +0.000 C 
BRANCH  26  29
ATOM     28  C   UNL     1      -1.369  50.561  26.945  0.00  0.00    +0.000 C 
ATOM     29  C   UNL     1      -0.757  51.581  27.110  0.00  0.00    +0.000 C 
BRANCH  28  30
ATOM     30  C   UNL     1      -2.145  49.255  26.732  0.00  0.00    +0.000 C 
BRANCH  30  31
ATOM     31  C   UNL     1      -2.804  48.152  26.556  0.00  0.00    +0.000 C 
ATOM     32  C   UNL     1      -2.071  46.847  26.493  0.00  0.00    +0.000 C 
BRANCH  31  34
ATOM     33  C   UNL     1      -5.418  48.205  26.394  0.00  0.00    +0.000 C 
ATOM     34  C   UNL     1      -4.218  48.179  26.471  0.00  0.00    +0.000 C 
BRANCH  33  36
ATOM     35  O   UNL     1      -7.305  49.570  25.894  0.00  0.00    +0.000 OA
ATOM     36  C   UNL     1      -6.870  48.239  26.296  0.00  0.00    +0.000 C 
ATOM     37  C   UNL     1      -7.535  48.539  24.936  0.00  0.00    +0.000 C 
ATOM     38  C   UNL     1      -7.733  47.529  27.399  0.00  0.00    +0.000 C 
ATOM     39  C   UNL     1      -8.921  48.223  24.805  0.00  0.00    +0.000 C 
ATOM     40  C   UNL     1      -9.105  47.461  26.893  0.00  0.00    +0.000 C 
ATOM     41  C   UNL     1      -9.848  47.699  25.720  0.00  0.00    +0.000 C 
ATOM     42  C   UNL     1      -6.753  48.737  23.635  0.00  0.00    +0.000 C 
ATOM     43  C   UNL     1      -7.581  48.384  28.678  0.00  0.00    +0.000 C 
ATOM     44  C   UNL     1      -7.127  46.110  27.554  0.00  0.00    +0.000 C 
BRANCH  41  45
ATOM     45  O   UNL     1     -10.867  46.875  25.348  0.00  0.00    +0.000 OA
ATOM     46  H   UNL     1     -10.577  45.951  25.239  0.00  0.00    +0.000 HD
ENDBRANCH  41  45
ENDBRANCH  33  36
ENDBRANCH  31  34
ENDBRANCH  30  31
ENDBRANCH  28  30
ENDBRANCH  26  29
ENDBRANCH  25  26
ENDBRANCH   1  25
TORSDOF 16
ENDMDL
MODEL 5
REMARK VINA RESULT:      -7.0      2.048     14.457
REMARK  Name = 448438_Violaxanthin.pdbqt.pdb
REMARK  16 active torsions:
REMARK  status: ('A' for Active; 'I' for Inactive)
REMARK    1  A    between atoms: C_1  and  C_5
REMARK    2  A    between atoms: C_2  and  C_27
REMARK    3  A    between atoms: C_3  and  C_5
REMARK    4  A    between atoms: C_3  and  C_7
REMARK    5  A    between atoms: C_6  and  C_10
REMARK    6  A    between atoms: C_8  and  C_10
REMARK    7  A    between atoms: C_8  and  C_12
REMARK    8  A    between atoms: C_11  and  C_14
REMARK    9  A    between atoms: C_19  and  O_23
REMARK   10  A    between atoms: C_25  and  C_27
REMARK   11  A    between atoms: C_25  and  C_29
REMARK   12  A    between atoms: C_28  and  C_32
REMARK   13  A    between atoms: C_30  and  C_32
REMARK   14  A    between atoms: C_30  and  C_34
REMARK   15  A    between atoms: C_33  and  C_36
REMARK   16  A    between atoms: C_41  and  O_45
REMARK                            x       y       z     vdW  Elec       q    Type
REMARK                         _______ _______ _______ _____ _____    ______ ____
ROOT
ATOM      1  C   UNL     1       0.589  54.368  25.775  0.00  0.00    +0.000 C 
ATOM      2  C   UNL     1       0.324  53.320  26.295  0.00  0.00    +0.000 C 
ENDROOT
BRANCH   2   3
ATOM      3  C   UNL     1      -0.015  51.982  26.962  0.00  0.00    +0.000 C 
BRANCH   3   4
ATOM      4  C   UNL     1      -0.298  50.851  27.528  0.00  0.00    +0.000 C 
ATOM      5  C   UNL     1       0.664  50.243  28.503  0.00  0.00    +0.000 C 
BRANCH   4   7
ATOM      6  C   UNL     1      -2.483  49.572  26.871  0.00  0.00    +0.000 C 
ATOM      7  C   UNL     1      -1.480  50.160  27.172  0.00  0.00    +0.000 C 
BRANCH   6   8
ATOM      8  C   UNL     1      -3.764  48.822  26.483  0.00  0.00    +0.000 C 
BRANCH   8   9
ATOM      9  C   UNL     1      -4.849  48.191  26.156  0.00  0.00    +0.000 C 
ATOM     10  C   UNL     1      -4.779  46.755  25.735  0.00  0.00    +0.000 C 
BRANCH   9  12
ATOM     11  C   UNL     1      -7.171  49.365  26.455  0.00  0.00    +0.000 C 
ATOM     12  C   UNL     1      -6.107  48.823  26.315  0.00  0.00    +0.000 C 
BRANCH  11  14
ATOM     13  O   UNL     1      -8.759  50.109  28.059  0.00  0.00    +0.000 OA
ATOM     14  C   UNL     1      -8.448  50.038  26.640  0.00  0.00    +0.000 C 
ATOM     15  C   UNL     1      -8.502  51.363  27.430  0.00  0.00    +0.000 C 
ATOM     16  C   UNL     1      -9.641  49.706  25.681  0.00  0.00    +0.000 C 
ATOM     17  C   UNL     1      -9.685  52.148  27.294  0.00  0.00    +0.000 C 
ATOM     18  C   UNL     1     -10.688  50.709  25.918  0.00  0.00    +0.000 C 
ATOM     19  C   UNL     1     -10.882  51.931  26.591  0.00  0.00    +0.000 C 
ATOM     20  C   UNL     1      -7.252  52.068  27.964  0.00  0.00    +0.000 C 
ATOM     21  C   UNL     1      -9.082  49.842  24.244  0.00  0.00    +0.000 C 
ATOM     22  C   UNL     1     -10.091  48.268  26.018  0.00  0.00    +0.000 C 
BRANCH  19  23
ATOM     23  O   UNL     1     -12.088  52.306  27.101  0.00  0.00    +0.000 OA
ATOM     24  H   UNL     1     -12.619  51.549  27.407  0.00  0.00    +0.000 HD
ENDBRANCH  19  23
ENDBRANCH  11  14
ENDBRANCH   9  12
ENDBRANCH   8   9
ENDBRANCH   6   8
ENDBRANCH   4   7
ENDBRANCH   3   4
ENDBRANCH   2   3
BRANCH   1  25
ATOM     25  C   UNL     1       0.929  55.707  25.109  0.00  0.00    +0.000 C 
BRANCH  25  26
ATOM     26  C   UNL     1       1.215  56.839  24.546  0.00  0.00    +0.000 C 
ATOM     27  C   UNL     1       0.645  58.111  25.096  0.00  0.00    +0.000 C 
BRANCH  26  29
ATOM     28  C   UNL     1       2.823  56.902  22.484  0.00  0.00    +0.000 C 
ATOM     29  C   UNL     1       2.084  56.875  23.431  0.00  0.00    +0.000 C 
BRANCH  28  30
ATOM     30  C   UNL     1       3.770  56.930  21.278  0.00  0.00    +0.000 C 
BRANCH  30  31
ATOM     31  C   UNL     1       4.572  56.959  20.260  0.00  0.00    +0.000 C 
ATOM     32  C   UNL     1       5.953  57.518  20.412  0.00  0.00    +0.000 C 
BRANCH  31  34
ATOM     33  C   UNL     1       3.810  55.957  17.962  0.00  0.00    +0.000 C 
ATOM     34  C   UNL     1       4.157  56.418  19.017  0.00  0.00    +0.000 C 
BRANCH  33  36
ATOM     35  O   UNL     1       2.088  55.923  16.317  0.00  0.00    +0.000 OA
ATOM     36  C   UNL     1       3.394  55.394  16.686  0.00  0.00    +0.000 C 
ATOM     37  C   UNL     1       3.169  56.327  15.477  0.00  0.00    +0.000 C 
ATOM     38  C   UNL     1       3.629  53.867  16.405  0.00  0.00    +0.000 C 
ATOM     39  C   UNL     1       3.107  55.719  14.188  0.00  0.00    +0.000 C 
ATOM     40  C   UNL     1       3.404  53.653  14.974  0.00  0.00    +0.000 C 
ATOM     41  C   UNL     1       3.183  54.375  13.785  0.00  0.00    +0.000 C 
ATOM     42  C   UNL     1       3.430  57.835  15.511  0.00  0.00    +0.000 C 
ATOM     43  C   UNL     1       2.637  53.106  17.313  0.00  0.00    +0.000 C 
ATOM     44  C   UNL     1       5.109  53.597  16.781  0.00  0.00    +0.000 C 
BRANCH  41  45
ATOM     45  O   UNL     1       3.745  53.989  12.606  0.00  0.00    +0.000 OA
ATOM     46  H   UNL     1       4.181  53.119  12.669  0.00  0.00    +0.000 HD
ENDBRANCH  41  45
ENDBRANCH  33  36
ENDBRANCH  31  34
ENDBRANCH  30  31
ENDBRANCH  28  30
ENDBRANCH  26  29
ENDBRANCH  25  26
ENDBRANCH   1  25
TORSDOF 16
ENDMDL
MODEL 6
REMARK VINA RESULT:      -7.0      1.918      3.070
REMARK  Name = 448438_Violaxanthin.pdbqt.pdb
REMARK  16 active torsions:
REMARK  status: ('A' for Active; 'I' for Inactive)
REMARK    1  A    between atoms: C_1  and  C_5
REMARK    2  A    between atoms: C_2  and  C_27
REMARK    3  A    between atoms: C_3  and  C_5
REMARK    4  A    between atoms: C_3  and  C_7
REMARK    5  A    between atoms: C_6  and  C_10
REMARK    6  A    between atoms: C_8  and  C_10
REMARK    7  A    between atoms: C_8  and  C_12
REMARK    8  A    between atoms: C_11  and  C_14
REMARK    9  A    between atoms: C_19  and  O_23
REMARK   10  A    between atoms: C_25  and  C_27
REMARK   11  A    between atoms: C_25  and  C_29
REMARK   12  A    between atoms: C_28  and  C_32
REMARK   13  A    between atoms: C_30  and  C_32
REMARK   14  A    between atoms: C_30  and  C_34
REMARK   15  A    between atoms: C_33  and  C_36
REMARK   16  A    between atoms: C_41  and  O_45
REMARK                            x       y       z     vdW  Elec       q    Type
REMARK                         _______ _______ _______ _____ _____    ______ ____
ROOT
ATOM      1  C   UNL     1       0.475  54.590  25.306  0.00  0.00    +0.000 C 
ATOM      2  C   UNL     1       0.706  55.334  24.394  0.00  0.00    +0.000 C 
ENDROOT
BRANCH   2   3
ATOM      3  C   UNL     1       1.002  56.287  23.230  0.00  0.00    +0.000 C 
BRANCH   3   4
ATOM      4  C   UNL     1       1.254  57.091  22.245  0.00  0.00    +0.000 C 
ATOM      5  C   UNL     1       0.987  58.559  22.394  0.00  0.00    +0.000 C 
BRANCH   4   7
ATOM      6  C   UNL     1       2.107  56.137  19.963  0.00  0.00    +0.000 C 
ATOM      7  C   UNL     1       1.715  56.575  21.011  0.00  0.00    +0.000 C 
BRANCH   6   8
ATOM      8  C   UNL     1       2.608  55.579  18.626  0.00  0.00    +0.000 C 
BRANCH   8   9
ATOM      9  C   UNL     1       3.029  55.107  17.493  0.00  0.00    +0.000 C 
ATOM     10  C   UNL     1       3.172  53.628  17.307  0.00  0.00    +0.000 C 
BRANCH   9  12
ATOM     11  C   UNL     1       3.405  56.719  15.463  0.00  0.00    +0.000 C 
ATOM     12  C   UNL     1       3.235  55.982  16.398  0.00  0.00    +0.000 C 
BRANCH  11  14
ATOM     13  O   UNL     1       4.819  57.215  13.618  0.00  0.00    +0.000 OA
ATOM     14  C   UNL     1       3.600  57.594  14.317  0.00  0.00    +0.000 C 
ATOM     15  C   UNL     1       3.609  56.994  12.894  0.00  0.00    +0.000 C 
ATOM     16  C   UNL     1       3.330  59.129  14.464  0.00  0.00    +0.000 C 
ATOM     17  C   UNL     1       3.458  57.906  11.808  0.00  0.00    +0.000 C 
ATOM     18  C   UNL     1       3.337  59.709  13.113  0.00  0.00    +0.000 C 
ATOM     19  C   UNL     1       3.342  59.305  11.763  0.00  0.00    +0.000 C 
ATOM     20  C   UNL     1       3.331  55.515  12.611  0.00  0.00    +0.000 C 
ATOM     21  C   UNL     1       1.921  59.256  15.094  0.00  0.00    +0.000 C 
ATOM     22  C   UNL     1       4.448  59.689  15.369  0.00  0.00    +0.000 C 
BRANCH  19  23
ATOM     23  O   UNL     1       3.929  60.039  10.779  0.00  0.00    +0.000 OA
ATOM     24  H   UNL     1       3.624  60.964  10.765  0.00  0.00    +0.000 HD
ENDBRANCH  19  23
ENDBRANCH  11  14
ENDBRANCH   9  12
ENDBRANCH   8   9
ENDBRANCH   6   8
ENDBRANCH   4   7
ENDBRANCH   3   4
ENDBRANCH   2   3
BRANCH   1  25
ATOM     25  C   UNL     1       0.179  53.638  26.471  0.00  0.00    +0.000 C 
BRANCH  25  26
ATOM     26  C   UNL     1      -0.072  52.833  27.456  0.00  0.00    +0.000 C 
ATOM     27  C   UNL     1       0.373  53.190  28.842  0.00  0.00    +0.000 C 
BRANCH  26  29
ATOM     28  C   UNL     1      -1.395  50.619  27.029  0.00  0.00    +0.000 C 
ATOM     29  C   UNL     1      -0.786  51.635  27.226  0.00  0.00    +0.000 C 
BRANCH  28  30
ATOM     30  C   UNL     1      -2.179  49.324  26.775  0.00  0.00    +0.000 C 
BRANCH  30  31
ATOM     31  C   UNL     1      -2.836  48.228  26.561  0.00  0.00    +0.000 C 
ATOM     32  C   UNL     1      -2.107  46.922  26.487  0.00  0.00    +0.000 C 
BRANCH  31  34
ATOM     33  C   UNL     1      -5.447  48.288  26.352  0.00  0.00    +0.000 C 
ATOM     34  C   UNL     1      -4.248  48.262  26.445  0.00  0.00    +0.000 C 
BRANCH  33  36
ATOM     35  O   UNL     1      -7.333  49.657  25.857  0.00  0.00    +0.000 OA
ATOM     36  C   UNL     1      -6.899  48.322  26.246  0.00  0.00    +0.000 C 
ATOM     37  C   UNL     1      -7.557  48.636  24.886  0.00  0.00    +0.000 C 
ATOM     38  C   UNL     1      -7.767  47.600  27.337  0.00  0.00    +0.000 C 
ATOM     39  C   UNL     1      -8.941  48.321  24.745  0.00  0.00    +0.000 C 
ATOM     40  C   UNL     1      -9.137  47.537  26.823  0.00  0.00    +0.000 C 
ATOM     41  C   UNL     1      -9.874  47.786  25.649  0.00  0.00    +0.000 C 
ATOM     42  C   UNL     1      -6.768  48.849  23.592  0.00  0.00    +0.000 C 
ATOM     43  C   UNL     1      -7.623  48.440  28.626  0.00  0.00    +0.000 C 
ATOM     44  C   UNL     1      -7.161  46.180  27.480  0.00  0.00    +0.000 C 
BRANCH  41  45
ATOM     45  O   UNL     1     -10.890  46.966  25.262  0.00  0.00    +0.000 OA
ATOM     46  H   UNL     1     -10.584  46.239  24.689  0.00  0.00    +0.000 HD
ENDBRANCH  41  45
ENDBRANCH  33  36
ENDBRANCH  31  34
ENDBRANCH  30  31
ENDBRANCH  28  30
ENDBRANCH  26  29
ENDBRANCH  25  26
ENDBRANCH   1  25
TORSDOF 16
ENDMDL
MODEL 7
REMARK VINA RESULT:      -6.9     25.874     29.118
REMARK  Name = 448438_Violaxanthin.pdbqt.pdb
REMARK  16 active torsions:
REMARK  status: ('A' for Active; 'I' for Inactive)
REMARK    1  A    between atoms: C_1  and  C_5
REMARK    2  A    between atoms: C_2  and  C_27
REMARK    3  A    between atoms: C_3  and  C_5
REMARK    4  A    between atoms: C_3  and  C_7
REMARK    5  A    between atoms: C_6  and  C_10
REMARK    6  A    between atoms: C_8  and  C_10
REMARK    7  A    between atoms: C_8  and  C_12
REMARK    8  A    between atoms: C_11  and  C_14
REMARK    9  A    between atoms: C_19  and  O_23
REMARK   10  A    between atoms: C_25  and  C_27
REMARK   11  A    between atoms: C_25  and  C_29
REMARK   12  A    between atoms: C_28  and  C_32
REMARK   13  A    between atoms: C_30  and  C_32
REMARK   14  A    between atoms: C_30  and  C_34
REMARK   15  A    between atoms: C_33  and  C_36
REMARK   16  A    between atoms: C_41  and  O_45
REMARK                            x       y       z     vdW  Elec       q    Type
REMARK                         _______ _______ _______ _____ _____    ______ ____
ROOT
ATOM      1  C   UNL     1     -11.292  30.987   7.390  0.00  0.00    +0.000 C 
ATOM      2  C   UNL     1     -11.367  32.013   6.773  0.00  0.00    +0.000 C 
ENDROOT
BRANCH   2   3
ATOM      3  C   UNL     1     -11.467  33.324   5.984  0.00  0.00    +0.000 C 
BRANCH   3   4
ATOM      4  C   UNL     1     -11.549  34.431   5.315  0.00  0.00    +0.000 C 
ATOM      5  C   UNL     1     -10.411  34.858   4.437  0.00  0.00    +0.000 C 
BRANCH   4   7
ATOM      6  C   UNL     1     -13.640  35.977   5.596  0.00  0.00    +0.000 C 
ATOM      7  C   UNL     1     -12.680  35.267   5.468  0.00  0.00    +0.000 C 
BRANCH   6   8
ATOM      8  C   UNL     1     -14.865  36.885   5.761  0.00  0.00    +0.000 C 
BRANCH   8   9
ATOM      9  C   UNL     1     -15.903  37.652   5.898  0.00  0.00    +0.000 C 
ATOM     10  C   UNL     1     -16.942  37.326   6.926  0.00  0.00    +0.000 C 
BRANCH   9  12
ATOM     11  C   UNL     1     -16.055  39.881   4.530  0.00  0.00    +0.000 C 
ATOM     12  C   UNL     1     -15.989  38.859   5.161  0.00  0.00    +0.000 C 
BRANCH  11  14
ATOM     13  O   UNL     1     -15.528  40.886   2.442  0.00  0.00    +0.000 OA
ATOM     14  C   UNL     1     -16.115  41.110   3.754  0.00  0.00    +0.000 C 
ATOM     15  C   UNL     1     -16.931  41.144   2.445  0.00  0.00    +0.000 C 
ATOM     16  C   UNL     1     -15.777  42.475   4.444  0.00  0.00    +0.000 C 
ATOM     17  C   UNL     1     -17.242  42.430   1.911  0.00  0.00    +0.000 C 
ATOM     18  C   UNL     1     -16.181  43.546   3.522  0.00  0.00    +0.000 C 
ATOM     19  C   UNL     1     -16.905  43.728   2.328  0.00  0.00    +0.000 C 
ATOM     20  C   UNL     1     -17.769  39.961   1.953  0.00  0.00    +0.000 C 
ATOM     21  C   UNL     1     -16.634  42.525   5.732  0.00  0.00    +0.000 C 
ATOM     22  C   UNL     1     -14.260  42.461   4.730  0.00  0.00    +0.000 C 
BRANCH  19  23
ATOM     23  O   UNL     1     -16.611  44.712   1.433  0.00  0.00    +0.000 OA
ATOM     24  H   UNL     1     -17.399  45.206   1.145  0.00  0.00    +0.000 HD
ENDBRANCH  19  23
ENDBRANCH  11  14
ENDBRANCH   9  12
ENDBRANCH   8   9
ENDBRANCH   6   8
ENDBRANCH   4   7
ENDBRANCH   3   4
ENDBRANCH   2   3
BRANCH   1  25
ATOM     25  C   UNL     1     -11.194  29.676   8.179  0.00  0.00    +0.000 C 
BRANCH  25  26
ATOM     26  C   UNL     1     -11.111  28.568   8.846  0.00  0.00    +0.000 C 
ATOM     27  C   UNL     1     -12.291  27.645   8.909  0.00  0.00    +0.000 C 
BRANCH  26  29
ATOM     28  C   UNL     1      -8.875  27.925  10.040  0.00  0.00    +0.000 C 
ATOM     29  C   UNL     1      -9.902  28.218   9.491  0.00  0.00    +0.000 C 
BRANCH  28  30
ATOM     30  C   UNL     1      -7.562  27.557  10.743  0.00  0.00    +0.000 C 
BRANCH  30  31
ATOM     31  C   UNL     1      -6.454  27.245  11.340  0.00  0.00    +0.000 C 
ATOM     32  C   UNL     1      -6.479  26.788  12.767  0.00  0.00    +0.000 C 
BRANCH  31  34
ATOM     33  C   UNL     1      -4.189  27.321  10.026  0.00  0.00    +0.000 C 
ATOM     34  C   UNL     1      -5.230  27.289  10.628  0.00  0.00    +0.000 C 
BRANCH  33  36
ATOM     35  O   UNL     1      -2.120  28.470   9.761  0.00  0.00    +0.000 OA
ATOM     36  C   UNL     1      -2.931  27.353   9.295  0.00  0.00    +0.000 C 
ATOM     37  C   UNL     1      -1.601  27.175  10.058  0.00  0.00    +0.000 C 
ATOM     38  C   UNL     1      -2.933  27.095   7.746  0.00  0.00    +0.000 C 
ATOM     39  C   UNL     1      -0.443  26.868   9.284  0.00  0.00    +0.000 C 
ATOM     40  C   UNL     1      -1.540  26.888   7.344  0.00  0.00    +0.000 C 
ATOM     41  C   UNL     1      -0.258  26.719   7.900  0.00  0.00    +0.000 C 
ATOM     42  C   UNL     1      -1.517  26.887  11.559  0.00  0.00    +0.000 C 
ATOM     43  C   UNL     1      -3.590  28.339   7.105  0.00  0.00    +0.000 C 
ATOM     44  C   UNL     1      -3.769  25.805   7.540  0.00  0.00    +0.000 C 
BRANCH  41  45
ATOM     45  O   UNL     1       0.637  25.842   7.365  0.00  0.00    +0.000 OA
ATOM     46  H   UNL     1       1.558  26.071   7.585  0.00  0.00    +0.000 HD
ENDBRANCH  41  45
ENDBRANCH  33  36
ENDBRANCH  31  34
ENDBRANCH  30  31
ENDBRANCH  28  30
ENDBRANCH  26  29
ENDBRANCH  25  26
ENDBRANCH   1  25
TORSDOF 16
ENDMDL
MODEL 8
REMARK VINA RESULT:      -6.7      2.413      3.457
REMARK  Name = 448438_Violaxanthin.pdbqt.pdb
REMARK  16 active torsions:
REMARK  status: ('A' for Active; 'I' for Inactive)
REMARK    1  A    between atoms: C_1  and  C_5
REMARK    2  A    between atoms: C_2  and  C_27
REMARK    3  A    between atoms: C_3  and  C_5
REMARK    4  A    between atoms: C_3  and  C_7
REMARK    5  A    between atoms: C_6  and  C_10
REMARK    6  A    between atoms: C_8  and  C_10
REMARK    7  A    between atoms: C_8  and  C_12
REMARK    8  A    between atoms: C_11  and  C_14
REMARK    9  A    between atoms: C_19  and  O_23
REMARK   10  A    between atoms: C_25  and  C_27
REMARK   11  A    between atoms: C_25  and  C_29
REMARK   12  A    between atoms: C_28  and  C_32
REMARK   13  A    between atoms: C_30  and  C_32
REMARK   14  A    between atoms: C_30  and  C_34
REMARK   15  A    between atoms: C_33  and  C_36
REMARK   16  A    between atoms: C_41  and  O_45
REMARK                            x       y       z     vdW  Elec       q    Type
REMARK                         _______ _______ _______ _____ _____    ______ ____
ROOT
ATOM      1  C   UNL     1       0.787  54.985  24.971  0.00  0.00    +0.000 C 
ATOM      2  C   UNL     1       1.048  55.630  23.994  0.00  0.00    +0.000 C 
ENDROOT
BRANCH   2   3
ATOM      3  C   UNL     1       1.384  56.456  22.747  0.00  0.00    +0.000 C 
BRANCH   3   4
ATOM      4  C   UNL     1       1.670  57.153  21.693  0.00  0.00    +0.000 C 
ATOM      5  C   UNL     1       1.517  58.644  21.720  0.00  0.00    +0.000 C 
BRANCH   4   7
ATOM      6  C   UNL     1       2.389  55.949  19.484  0.00  0.00    +0.000 C 
ATOM      7  C   UNL     1       2.058  56.502  20.498  0.00  0.00    +0.000 C 
BRANCH   6   8
ATOM      8  C   UNL     1       2.812  55.243  18.190  0.00  0.00    +0.000 C 
BRANCH   8   9
ATOM      9  C   UNL     1       3.168  54.647  17.095  0.00  0.00    +0.000 C 
ATOM     10  C   UNL     1       2.697  53.252  16.817  0.00  0.00    +0.000 C 
BRANCH   9  12
ATOM     11  C   UNL     1       4.506  55.967  15.271  0.00  0.00    +0.000 C 
ATOM     12  C   UNL     1       3.896  55.358  16.109  0.00  0.00    +0.000 C 
BRANCH  11  14
ATOM     13  O   UNL     1       5.671  57.985  14.803  0.00  0.00    +0.000 OA
ATOM     14  C   UNL     1       5.224  56.715  14.251  0.00  0.00    +0.000 C 
ATOM     15  C   UNL     1       6.711  57.067  14.470  0.00  0.00    +0.000 C 
ATOM     16  C   UNL     1       4.671  56.749  12.786  0.00  0.00    +0.000 C 
ATOM     17  C   UNL     1       7.452  57.486  13.325  0.00  0.00    +0.000 C 
ATOM     18  C   UNL     1       5.718  57.328  11.933  0.00  0.00    +0.000 C 
ATOM     19  C   UNL     1       7.077  57.695  11.987  0.00  0.00    +0.000 C 
ATOM     20  C   UNL     1       7.512  56.588  15.684  0.00  0.00    +0.000 C 
ATOM     21  C   UNL     1       4.416  55.273  12.394  0.00  0.00    +0.000 C 
ATOM     22  C   UNL     1       3.380  57.595  12.821  0.00  0.00    +0.000 C 
BRANCH  19  23
ATOM     23  O   UNL     1       7.592  58.719  11.253  0.00  0.00    +0.000 OA
ATOM     24  H   UNL     1       8.470  58.514  10.884  0.00  0.00    +0.000 HD
ENDBRANCH  19  23
ENDBRANCH  11  14
ENDBRANCH   9  12
ENDBRANCH   8   9
ENDBRANCH   6   8
ENDBRANCH   4   7
ENDBRANCH   3   4
ENDBRANCH   2   3
BRANCH   1  25
ATOM     25  C   UNL     1       0.451  54.159  26.219  0.00  0.00    +0.000 C 
BRANCH  25  26
ATOM     26  C   UNL     1       0.167  53.461  27.274  0.00  0.00    +0.000 C 
ATOM     27  C   UNL     1       0.641  53.918  28.620  0.00  0.00    +0.000 C 
BRANCH  26  29
ATOM     28  C   UNL     1      -1.271  51.288  27.053  0.00  0.00    +0.000 C 
ATOM     29  C   UNL     1      -0.610  52.286  27.157  0.00  0.00    +0.000 C 
BRANCH  28  30
ATOM     30  C   UNL     1      -2.117  50.016  26.915  0.00  0.00    +0.000 C 
BRANCH  30  31
ATOM     31  C   UNL     1      -2.830  48.939  26.802  0.00  0.00    +0.000 C 
ATOM     32  C   UNL     1      -2.182  47.596  26.955  0.00  0.00    +0.000 C 
BRANCH  31  34
ATOM     33  C   UNL     1      -5.413  49.113  26.401  0.00  0.00    +0.000 C 
ATOM     34  C   UNL     1      -4.226  49.034  26.582  0.00  0.00    +0.000 C 
BRANCH  33  36
ATOM     35  O   UNL     1      -7.548  49.022  27.451  0.00  0.00    +0.000 OA
ATOM     36  C   UNL     1      -6.849  49.211  26.187  0.00  0.00    +0.000 C 
ATOM     37  C   UNL     1      -7.650  50.328  26.888  0.00  0.00    +0.000 C 
ATOM     38  C   UNL     1      -7.489  48.522  24.930  0.00  0.00    +0.000 C 
ATOM     39  C   UNL     1      -8.960  50.601  26.391  0.00  0.00    +0.000 C 
ATOM     40  C   UNL     1      -8.857  49.030  24.811  0.00  0.00    +0.000 C 
ATOM     41  C   UNL     1      -9.710  50.005  25.363  0.00  0.00    +0.000 C 
ATOM     42  C   UNL     1      -7.009  51.414  27.757  0.00  0.00    +0.000 C 
ATOM     43  C   UNL     1      -7.409  47.000  25.188  0.00  0.00    +0.000 C 
ATOM     44  C   UNL     1      -6.623  48.968  23.723  0.00  0.00    +0.000 C 
BRANCH  41  45
ATOM     45  O   UNL     1     -10.583  50.705  24.587  0.00  0.00    +0.000 OA
ATOM     46  H   UNL     1     -10.175  51.020  23.759  0.00  0.00    +0.000 HD
ENDBRANCH  41  45
ENDBRANCH  33  36
ENDBRANCH  31  34
ENDBRANCH  30  31
ENDBRANCH  28  30
ENDBRANCH  26  29
ENDBRANCH  25  26
ENDBRANCH   1  25
TORSDOF 16
ENDMDL
MODEL 9
REMARK VINA RESULT:      -6.7     26.993     30.727
REMARK  Name = 448438_Violaxanthin.pdbqt.pdb
REMARK  16 active torsions:
REMARK  status: ('A' for Active; 'I' for Inactive)
REMARK    1  A    between atoms: C_1  and  C_5
REMARK    2  A    between atoms: C_2  and  C_27
REMARK    3  A    between atoms: C_3  and  C_5
REMARK    4  A    between atoms: C_3  and  C_7
REMARK    5  A    between atoms: C_6  and  C_10
REMARK    6  A    between atoms: C_8  and  C_10
REMARK    7  A    between atoms: C_8  and  C_12
REMARK    8  A    between atoms: C_11  and  C_14
REMARK    9  A    between atoms: C_19  and  O_23
REMARK   10  A    between atoms: C_25  and  C_27
REMARK   11  A    between atoms: C_25  and  C_29
REMARK   12  A    between atoms: C_28  and  C_32
REMARK   13  A    between atoms: C_30  and  C_32
REMARK   14  A    between atoms: C_30  and  C_34
REMARK   15  A    between atoms: C_33  and  C_36
REMARK   16  A    between atoms: C_41  and  O_45
REMARK                            x       y       z     vdW  Elec       q    Type
REMARK                         _______ _______ _______ _____ _____    ______ ____
ROOT
ATOM      1  C   UNL     1     -11.621  30.959   7.368  0.00  0.00    +0.000 C 
ATOM      2  C   UNL     1     -11.592  31.987   6.751  0.00  0.00    +0.000 C 
ENDROOT
BRANCH   2   3
ATOM      3  C   UNL     1     -11.557  33.302   5.962  0.00  0.00    +0.000 C 
BRANCH   3   4
ATOM      4  C   UNL     1     -11.528  34.414   5.298  0.00  0.00    +0.000 C 
ATOM      5  C   UNL     1     -10.376  34.707   4.384  0.00  0.00    +0.000 C 
BRANCH   4   7
ATOM      6  C   UNL     1     -13.411  36.195   5.648  0.00  0.00    +0.000 C 
ATOM      7  C   UNL     1     -12.546  35.377   5.487  0.00  0.00    +0.000 C 
BRANCH   6   8
ATOM      8  C   UNL     1     -14.517  37.238   5.852  0.00  0.00    +0.000 C 
BRANCH   8   9
ATOM      9  C   UNL     1     -15.452  38.122   6.021  0.00  0.00    +0.000 C 
ATOM     10  C   UNL     1     -15.173  39.567   5.741  0.00  0.00    +0.000 C 
BRANCH   9  12
ATOM     11  C   UNL     1     -17.882  37.355   6.624  0.00  0.00    +0.000 C 
ATOM     12  C   UNL     1     -16.765  37.704   6.351  0.00  0.00    +0.000 C 
BRANCH  11  14
ATOM     13  O   UNL     1     -19.688  37.628   8.145  0.00  0.00    +0.000 OA
ATOM     14  C   UNL     1     -19.244  36.948   6.938  0.00  0.00    +0.000 C 
ATOM     15  C   UNL     1     -20.370  38.004   6.950  0.00  0.00    +0.000 C 
ATOM     16  C   UNL     1     -19.651  35.442   6.798  0.00  0.00    +0.000 C 
ATOM     17  C   UNL     1     -21.711  37.518   6.921  0.00  0.00    +0.000 C 
ATOM     18  C   UNL     1     -21.115  35.370   6.907  0.00  0.00    +0.000 C 
ATOM     19  C   UNL     1     -22.241  36.217   6.928  0.00  0.00    +0.000 C 
ATOM     20  C   UNL     1     -20.146  39.466   6.555  0.00  0.00    +0.000 C 
ATOM     21  C   UNL     1     -19.197  35.009   5.383  0.00  0.00    +0.000 C 
ATOM     22  C   UNL     1     -18.921  34.680   7.925  0.00  0.00    +0.000 C 
BRANCH  19  23
ATOM     23  O   UNL     1     -23.376  35.912   7.614  0.00  0.00    +0.000 OA
ATOM     24  H   UNL     1     -24.186  36.126   7.117  0.00  0.00    +0.000 HD
ENDBRANCH  19  23
ENDBRANCH  11  14
ENDBRANCH   9  12
ENDBRANCH   8   9
ENDBRANCH   6   8
ENDBRANCH   4   7
ENDBRANCH   3   4
ENDBRANCH   2   3
BRANCH   1  25
ATOM     25  C   UNL     1     -11.657  29.644   8.157  0.00  0.00    +0.000 C 
BRANCH  25  26
ATOM     26  C   UNL     1     -11.688  28.533   8.823  0.00  0.00    +0.000 C 
ATOM     27  C   UNL     1     -10.405  27.887   9.254  0.00  0.00    +0.000 C 
BRANCH  26  29
ATOM     28  C   UNL     1     -13.979  27.447   9.460  0.00  0.00    +0.000 C 
ATOM     29  C   UNL     1     -12.928  27.947   9.166  0.00  0.00    +0.000 C 
BRANCH  28  30
ATOM     30  C   UNL     1     -15.319  26.802   9.838  0.00  0.00    +0.000 C 
BRANCH  30  31
ATOM     31  C   UNL     1     -16.453  26.260  10.154  0.00  0.00    +0.000 C 
ATOM     32  C   UNL     1     -16.487  24.873  10.718  0.00  0.00    +0.000 C 
BRANCH  31  34
ATOM     33  C   UNL     1     -18.672  27.630   9.895  0.00  0.00    +0.000 C 
ATOM     34  C   UNL     1     -17.654  26.999  10.012  0.00  0.00    +0.000 C 
BRANCH  33  36
ATOM     35  O   UNL     1     -21.040  27.577  10.143  0.00  0.00    +0.000 OA
ATOM     36  C   UNL     1     -19.901  28.398   9.757  0.00  0.00    +0.000 C 
ATOM     37  C   UNL     1     -20.767  28.682  11.002  0.00  0.00    +0.000 C 
ATOM     38  C   UNL     1     -20.098  29.312   8.496  0.00  0.00    +0.000 C 
ATOM     39  C   UNL     1     -21.751  29.709  10.890  0.00  0.00    +0.000 C 
ATOM     40  C   UNL     1     -21.251  30.174   8.767  0.00  0.00    +0.000 C 
ATOM     41  C   UNL     1     -22.126  30.529   9.812  0.00  0.00    +0.000 C 
ATOM     42  C   UNL     1     -20.375  28.263  12.421  0.00  0.00    +0.000 C 
ATOM     43  C   UNL     1     -20.304  28.355   7.300  0.00  0.00    +0.000 C 
ATOM     44  C   UNL     1     -18.796  30.146   8.376  0.00  0.00    +0.000 C 
BRANCH  41  45
ATOM     45  O   UNL     1     -22.553  31.811   9.974  0.00  0.00    +0.000 OA
ATOM     46  H   UNL     1     -22.168  32.235  10.763  0.00  0.00    +0.000 HD
ENDBRANCH  41  45
ENDBRANCH  33  36
ENDBRANCH  31  34
ENDBRANCH  30  31
ENDBRANCH  28  30
ENDBRANCH  26  29
ENDBRANCH  25  26
ENDBRANCH   1  25
TORSDOF 16
ENDMDL
