MODEL 1
REMARK VINA RESULT:      -8.2      0.000      0.000
REMARK  Name = 490561_Nocardiopsis.pdbqt.pdb
REMARK  3 active torsions:
REMARK  status: ('A' for Active; 'I' for Inactive)
REMARK    1  A    between atoms: C_7  and  O_32
REMARK    2  A    between atoms: C_7  and  C_35
REMARK    3  A    between atoms: C_35  and  O_36
REMARK                            x       y       z     vdW  Elec       q    Type
REMARK                         _______ _______ _______ _____ _____    ______ ____
ROOT
ATOM      1  O   UNL     1      -8.587  47.432  26.822  0.00  0.00    +0.000 OA
ATOM      2  O   UNL     1      -1.437  49.445  28.071  0.00  0.00    +0.000 OA
ATOM      3  N   UNL     1      -8.094  49.733  27.053  0.00  0.00    +0.000 N 
ATOM      4  N   UNL     1      -6.326  47.445  26.247  0.00  0.00    +0.000 N 
ATOM      5  N   UNL     1      -2.595  51.338  28.756  0.00  0.00    +0.000 N 
ATOM      6  C   UNL     1      -9.065  48.779  26.477  0.00  0.00    +0.000 C 
ATOM      7  C   UNL     1      -9.083  48.786  24.887  0.00  0.00    +0.000 C 
ATOM      8  C   UNL     1      -7.617  47.147  25.845  0.00  0.00    +0.000 C 
ATOM      9  C   UNL     1      -8.070  47.761  24.652  0.00  0.00    +0.000 C 
ATOM     10  C   UNL     1      -6.751  49.606  27.304  0.00  0.00    +0.000 A 
ATOM     11  C   UNL     1      -5.924  48.540  26.948  0.00  0.00    +0.000 A 
ATOM     12  C   UNL     1      -6.067  50.666  27.906  0.00  0.00    +0.000 A 
ATOM     13  C   UNL     1      -4.566  48.707  27.242  0.00  0.00    +0.000 A 
ATOM     14  C   UNL     1     -10.475  48.898  27.143  0.00  0.00    +0.000 C 
ATOM     15  C   UNL     1      -8.290  51.072  27.475  0.00  0.00    +0.000 A 
ATOM     16  C   UNL     1      -5.084  46.832  26.002  0.00  0.00    +0.000 A 
ATOM     17  C   UNL     1      -7.078  51.638  28.023  0.00  0.00    +0.000 A 
ATOM     18  C   UNL     1      -4.716  50.846  28.231  0.00  0.00    +0.000 A 
ATOM     19  C   UNL     1      -3.866  49.760  27.865  0.00  0.00    +0.000 A 
ATOM     20  C   UNL     1      -4.005  47.568  26.622  0.00  0.00    +0.000 A 
ATOM     21  C   UNL     1      -3.829  51.881  28.821  0.00  0.00    +0.000 C 
ATOM     22  C   UNL     1      -9.458  51.850  27.410  0.00  0.00    +0.000 A 
ATOM     23  C   UNL     1      -2.488  50.056  28.195  0.00  0.00    +0.000 C 
ATOM     24  C   UNL     1      -4.831  45.655  25.281  0.00  0.00    +0.000 A 
ATOM     25  C   UNL     1      -7.110  52.965  28.497  0.00  0.00    +0.000 A 
ATOM     26  C   UNL     1      -2.695  47.072  26.468  0.00  0.00    +0.000 A 
ATOM     27  C   UNL     1      -9.439  53.158  27.894  0.00  0.00    +0.000 A 
ATOM     28  C   UNL     1      -8.288  53.708  28.434  0.00  0.00    +0.000 A 
ATOM     29  C   UNL     1      -3.515  45.206  25.167  0.00  0.00    +0.000 A 
ATOM     30  C   UNL     1      -2.464  45.899  25.750  0.00  0.00    +0.000 A 
ATOM     31  H   UNL     1      -1.772  51.818  29.089  0.00  0.00    +0.000 HD
ENDROOT
BRANCH   7  32
ATOM     32  O   UNL     1      -8.651  50.015  24.284  0.00  0.00    +0.000 OA
ATOM     33  H   UNL     1      -7.718  50.161  24.556  0.00  0.00    +0.000 HD
ENDBRANCH   7  32
BRANCH   7  35
ATOM     34  O   UNL     1     -10.792  47.187  24.353  0.00  0.00    +0.000 OA
ATOM     35  C   UNL     1     -10.444  48.370  24.334  0.00  0.00    +0.000 C 
BRANCH  35  36
ATOM     36  O   UNL     1     -11.168  49.448  23.905  0.00  0.00    +0.000 OA
ATOM     37  C   UNL     1     -12.512  49.527  24.295  0.00  0.00    +0.000 C 
ENDBRANCH  35  36
ENDBRANCH   7  35
TORSDOF 3
ENDMDL
MODEL 2
REMARK VINA RESULT:      -7.4     24.024     27.384
REMARK  Name = 490561_Nocardiopsis.pdbqt.pdb
REMARK  3 active torsions:
REMARK  status: ('A' for Active; 'I' for Inactive)
REMARK    1  A    between atoms: C_7  and  O_32
REMARK    2  A    between atoms: C_7  and  C_35
REMARK    3  A    between atoms: C_35  and  O_36
REMARK                            x       y       z     vdW  Elec       q    Type
REMARK                         _______ _______ _______ _____ _____    ______ ____
ROOT
ATOM      1  O   UNL     1     -17.892  43.125   5.739  0.00  0.00    +0.000 OA
ATOM      2  O   UNL     1     -24.642  39.863   5.018  0.00  0.00    +0.000 OA
ATOM      3  N   UNL     1     -17.993  40.765   5.653  0.00  0.00    +0.000 N 
ATOM      4  N   UNL     1     -19.919  42.824   4.625  0.00  0.00    +0.000 N 
ATOM      5  N   UNL     1     -23.344  38.107   5.810  0.00  0.00    +0.000 N 
ATOM      6  C   UNL     1     -17.108  41.924   5.413  0.00  0.00    +0.000 C 
ATOM      7  C   UNL     1     -16.726  42.116   3.883  0.00  0.00    +0.000 C 
ATOM      8  C   UNL     1     -18.648  43.370   4.580  0.00  0.00    +0.000 C 
ATOM      9  C   UNL     1     -17.829  42.988   3.489  0.00  0.00    +0.000 C 
ATOM     10  C   UNL     1     -19.357  40.645   5.575  0.00  0.00    +0.000 A 
ATOM     11  C   UNL     1     -20.263  41.600   5.114  0.00  0.00    +0.000 A 
ATOM     12  C   UNL     1     -19.953  39.423   5.901  0.00  0.00    +0.000 A 
ATOM     13  C   UNL     1     -21.597  41.185   5.049  0.00  0.00    +0.000 A 
ATOM     14  C   UNL     1     -15.891  41.949   6.395  0.00  0.00    +0.000 C 
ATOM     15  C   UNL     1     -17.656  39.432   5.999  0.00  0.00    +0.000 A 
ATOM     16  C   UNL     1     -21.164  43.258   4.133  0.00  0.00    +0.000 A 
ATOM     17  C   UNL     1     -18.835  38.618   6.183  0.00  0.00    +0.000 A 
ATOM     18  C   UNL     1     -21.286  38.992   5.867  0.00  0.00    +0.000 A 
ATOM     19  C   UNL     1     -22.216  39.965   5.392  0.00  0.00    +0.000 A 
ATOM     20  C   UNL     1     -22.202  42.288   4.405  0.00  0.00    +0.000 A 
ATOM     21  C   UNL     1     -22.079  37.764   6.133  0.00  0.00    +0.000 C 
ATOM     22  C   UNL     1     -16.381  38.864   6.161  0.00  0.00    +0.000 A 
ATOM     23  C   UNL     1     -23.553  39.415   5.347  0.00  0.00    +0.000 C 
ATOM     24  C   UNL     1     -21.458  44.459   3.470  0.00  0.00    +0.000 A 
ATOM     25  C   UNL     1     -18.669  37.264   6.540  0.00  0.00    +0.000 A 
ATOM     26  C   UNL     1     -23.510  42.585   3.973  0.00  0.00    +0.000 A 
ATOM     27  C   UNL     1     -16.268  37.520   6.517  0.00  0.00    +0.000 A 
ATOM     28  C   UNL     1     -17.391  36.732   6.710  0.00  0.00    +0.000 A 
ATOM     29  C   UNL     1     -22.772  44.703   3.072  0.00  0.00    +0.000 A 
ATOM     30  C   UNL     1     -23.782  43.785   3.319  0.00  0.00    +0.000 A 
ATOM     31  H   UNL     1     -24.118  37.466   5.889  0.00  0.00    +0.000 HD
ENDROOT
BRANCH   7  32
ATOM     32  O   UNL     1     -16.776  40.919   3.093  0.00  0.00    +0.000 OA
ATOM     33  H   UNL     1     -16.686  40.159   3.709  0.00  0.00    +0.000 HD
ENDBRANCH   7  32
BRANCH   7  35
ATOM     34  O   UNL     1     -14.328  42.196   3.934  0.00  0.00    +0.000 OA
ATOM     35  C   UNL     1     -15.375  42.809   3.717  0.00  0.00    +0.000 C 
BRANCH  35  36
ATOM     36  O   UNL     1     -15.516  44.094   3.271  0.00  0.00    +0.000 OA
ATOM     37  C   UNL     1     -15.236  44.348   1.921  0.00  0.00    +0.000 C 
ENDBRANCH  35  36
ENDBRANCH   7  35
TORSDOF 3
ENDMDL
MODEL 3
REMARK VINA RESULT:      -7.2     24.787     26.627
REMARK  Name = 490561_Nocardiopsis.pdbqt.pdb
REMARK  3 active torsions:
REMARK  status: ('A' for Active; 'I' for Inactive)
REMARK    1  A    between atoms: C_7  and  O_32
REMARK    2  A    between atoms: C_7  and  C_35
REMARK    3  A    between atoms: C_35  and  O_36
REMARK                            x       y       z     vdW  Elec       q    Type
REMARK                         _______ _______ _______ _____ _____    ______ ____
ROOT
ATOM      1  O   UNL     1     -21.021  39.906   6.532  0.00  0.00    +0.000 OA
ATOM      2  O   UNL     1     -13.904  41.712   4.855  0.00  0.00    +0.000 OA
ATOM      3  N   UNL     1     -20.642  41.576   4.902  0.00  0.00    +0.000 N 
ATOM      4  N   UNL     1     -18.869  39.340   5.832  0.00  0.00    +0.000 N 
ATOM      5  N   UNL     1     -15.068  43.555   4.054  0.00  0.00    +0.000 N 
ATOM      6  C   UNL     1     -21.624  40.576   5.370  0.00  0.00    +0.000 C 
ATOM      7  C   UNL     1     -21.867  39.399   4.329  0.00  0.00    +0.000 C 
ATOM      8  C   UNL     1     -20.182  38.927   5.970  0.00  0.00    +0.000 C 
ATOM      9  C   UNL     1     -20.836  38.477   4.797  0.00  0.00    +0.000 C 
ATOM     10  C   UNL     1     -19.272  41.592   4.974  0.00  0.00    +0.000 A 
ATOM     11  C   UNL     1     -18.440  40.565   5.419  0.00  0.00    +0.000 A 
ATOM     12  C   UNL     1     -18.577  42.701   4.483  0.00  0.00    +0.000 A 
ATOM     13  C   UNL     1     -17.067  40.806   5.298  0.00  0.00    +0.000 A 
ATOM     14  C   UNL     1     -22.931  41.242   5.913  0.00  0.00    +0.000 C 
ATOM     15  C   UNL     1     -20.859  42.793   4.208  0.00  0.00    +0.000 A 
ATOM     16  C   UNL     1     -17.638  38.670   5.956  0.00  0.00    +0.000 A 
ATOM     17  C   UNL     1     -19.619  43.499   3.976  0.00  0.00    +0.000 A 
ATOM     18  C   UNL     1     -17.207  42.974   4.373  0.00  0.00    +0.000 A 
ATOM     19  C   UNL     1     -16.352  41.925   4.823  0.00  0.00    +0.000 A 
ATOM     20  C   UNL     1     -16.530  39.551   5.662  0.00  0.00    +0.000 A 
ATOM     21  C   UNL     1     -16.311  44.044   3.865  0.00  0.00    +0.000 C 
ATOM     22  C   UNL     1     -22.070  43.338   3.749  0.00  0.00    +0.000 A 
ATOM     23  C   UNL     1     -14.963  42.279   4.627  0.00  0.00    +0.000 C 
ATOM     24  C   UNL     1     -17.417  37.335   6.325  0.00  0.00    +0.000 A 
ATOM     25  C   UNL     1     -19.665  44.736   3.303  0.00  0.00    +0.000 A 
ATOM     26  C   UNL     1     -15.227  39.022   5.748  0.00  0.00    +0.000 A 
ATOM     27  C   UNL     1     -22.064  44.566   3.089  0.00  0.00    +0.000 A 
ATOM     28  C   UNL     1     -20.884  45.260   2.873  0.00  0.00    +0.000 A 
ATOM     29  C   UNL     1     -16.105  36.867   6.401  0.00  0.00    +0.000 A 
ATOM     30  C   UNL     1     -15.027  37.693   6.119  0.00  0.00    +0.000 A 
ATOM     31  H   UNL     1     -14.237  44.069   3.800  0.00  0.00    +0.000 HD
ENDROOT
BRANCH   7  32
ATOM     32  O   UNL     1     -21.599  39.740   2.961  0.00  0.00    +0.000 OA
ATOM     33  H   UNL     1     -22.218  40.462   2.714  0.00  0.00    +0.000 HD
ENDBRANCH   7  32
BRANCH   7  35
ATOM     34  O   UNL     1     -24.162  39.120   3.686  0.00  0.00    +0.000 OA
ATOM     35  C   UNL     1     -23.264  38.798   4.467  0.00  0.00    +0.000 C 
BRANCH  35  36
ATOM     36  O   UNL     1     -23.323  37.881   5.479  0.00  0.00    +0.000 OA
ATOM     37  C   UNL     1     -24.590  37.521   5.959  0.00  0.00    +0.000 C 
ENDBRANCH  35  36
ENDBRANCH   7  35
TORSDOF 3
ENDMDL
MODEL 4
REMARK VINA RESULT:      -7.2      1.749      7.680
REMARK  Name = 490561_Nocardiopsis.pdbqt.pdb
REMARK  3 active torsions:
REMARK  status: ('A' for Active; 'I' for Inactive)
REMARK    1  A    between atoms: C_7  and  O_32
REMARK    2  A    between atoms: C_7  and  C_35
REMARK    3  A    between atoms: C_35  and  O_36
REMARK                            x       y       z     vdW  Elec       q    Type
REMARK                         _______ _______ _______ _____ _____    ______ ____
ROOT
ATOM      1  O   UNL     1      -5.047  49.891  29.677  0.00  0.00    +0.000 OA
ATOM      2  O   UNL     1     -10.487  50.775  24.543  0.00  0.00    +0.000 OA
ATOM      3  N   UNL     1      -4.886  48.680  27.653  0.00  0.00    +0.000 N 
ATOM      4  N   UNL     1      -6.352  51.224  28.275  0.00  0.00    +0.000 N 
ATOM      5  N   UNL     1      -9.509  48.780  23.866  0.00  0.00    +0.000 N 
ATOM      6  C   UNL     1      -4.095  49.227  28.774  0.00  0.00    +0.000 C 
ATOM      7  C   UNL     1      -3.104  50.390  28.335  0.00  0.00    +0.000 C 
ATOM      8  C   UNL     1      -5.243  51.159  29.101  0.00  0.00    +0.000 C 
ATOM      9  C   UNL     1      -4.000  51.526  28.528  0.00  0.00    +0.000 C 
ATOM     10  C   UNL     1      -6.064  49.106  27.093  0.00  0.00    +0.000 A 
ATOM     11  C   UNL     1      -6.761  50.278  27.386  0.00  0.00    +0.000 A 
ATOM     12  C   UNL     1      -6.629  48.366  26.050  0.00  0.00    +0.000 A 
ATOM     13  C   UNL     1      -7.892  50.520  26.597  0.00  0.00    +0.000 A 
ATOM     14  C   UNL     1      -3.432  48.100  29.633  0.00  0.00    +0.000 C 
ATOM     15  C   UNL     1      -4.614  47.567  26.818  0.00  0.00    +0.000 A 
ATOM     16  C   UNL     1      -7.293  52.238  28.016  0.00  0.00    +0.000 A 
ATOM     17  C   UNL     1      -5.677  47.347  25.864  0.00  0.00    +0.000 A 
ATOM     18  C   UNL     1      -7.770  48.576  25.264  0.00  0.00    +0.000 A 
ATOM     19  C   UNL     1      -8.484  49.775  25.557  0.00  0.00    +0.000 A 
ATOM     20  C   UNL     1      -8.253  51.819  27.019  0.00  0.00    +0.000 A 
ATOM     21  C   UNL     1      -8.484  47.941  24.127  0.00  0.00    +0.000 C 
ATOM     22  C   UNL     1      -3.491  46.723  26.820  0.00  0.00    +0.000 A 
ATOM     23  C   UNL     1      -9.613  49.928  24.665  0.00  0.00    +0.000 C 
ATOM     24  C   UNL     1      -7.376  53.507  28.607  0.00  0.00    +0.000 A 
ATOM     25  C   UNL     1      -5.561  46.269  24.964  0.00  0.00    +0.000 A 
ATOM     26  C   UNL     1      -9.264  52.731  26.656  0.00  0.00    +0.000 A 
ATOM     27  C   UNL     1      -3.423  45.668  25.910  0.00  0.00    +0.000 A 
ATOM     28  C   UNL     1      -4.442  45.437  25.000  0.00  0.00    +0.000 A 
ATOM     29  C   UNL     1      -8.403  54.365  28.215  0.00  0.00    +0.000 A 
ATOM     30  C   UNL     1      -9.333  53.987  27.257  0.00  0.00    +0.000 A 
ATOM     31  H   UNL     1     -10.179  48.608  23.132  0.00  0.00    +0.000 HD
ENDROOT
BRANCH   7  32
ATOM     32  O   UNL     1      -2.697  50.348  26.959  0.00  0.00    +0.000 OA
ATOM     33  H   UNL     1      -2.600  49.402  26.712  0.00  0.00    +0.000 HD
ENDBRANCH   7  32
BRANCH   7  35
ATOM     34  O   UNL     1      -1.974  50.990  30.365  0.00  0.00    +0.000 OA
ATOM     35  C   UNL     1      -1.884  50.473  29.250  0.00  0.00    +0.000 C 
BRANCH  35  36
ATOM     36  O   UNL     1      -0.790  49.875  28.690  0.00  0.00    +0.000 OA
ATOM     37  C   UNL     1       0.165  49.323  29.555  0.00  0.00    +0.000 C 
ENDBRANCH  35  36
ENDBRANCH   7  35
TORSDOF 3
ENDMDL
MODEL 5
REMARK VINA RESULT:      -7.2     25.831     28.110
REMARK  Name = 490561_Nocardiopsis.pdbqt.pdb
REMARK  3 active torsions:
REMARK  status: ('A' for Active; 'I' for Inactive)
REMARK    1  A    between atoms: C_7  and  O_32
REMARK    2  A    between atoms: C_7  and  C_35
REMARK    3  A    between atoms: C_35  and  O_36
REMARK                            x       y       z     vdW  Elec       q    Type
REMARK                         _______ _______ _______ _____ _____    ______ ____
ROOT
ATOM      1  O   UNL     1      -5.039  34.680   1.322  0.00  0.00    +0.000 OA
ATOM      2  O   UNL     1      -2.607  41.730   2.372  0.00  0.00    +0.000 OA
ATOM      3  N   UNL     1      -2.853  34.998   2.164  0.00  0.00    +0.000 N 
ATOM      4  N   UNL     1      -5.247  36.806   2.259  0.00  0.00    +0.000 N 
ATOM      5  N   UNL     1      -0.615  40.536   2.335  0.00  0.00    +0.000 N 
ATOM      6  C   UNL     1      -3.971  34.034   2.101  0.00  0.00    +0.000 C 
ATOM      7  C   UNL     1      -4.641  33.756   3.516  0.00  0.00    +0.000 C 
ATOM      8  C   UNL     1      -5.701  35.498   2.254  0.00  0.00    +0.000 C 
ATOM      9  C   UNL     1      -5.657  34.804   3.487  0.00  0.00    +0.000 C 
ATOM     10  C   UNL     1      -2.846  36.369   2.137  0.00  0.00    +0.000 A 
ATOM     11  C   UNL     1      -3.952  37.219   2.164  0.00  0.00    +0.000 A 
ATOM     12  C   UNL     1      -1.623  37.045   2.168  0.00  0.00    +0.000 A 
ATOM     13  C   UNL     1      -3.662  38.586   2.224  0.00  0.00    +0.000 A 
ATOM     14  C   UNL     1      -3.596  32.747   1.296  0.00  0.00    +0.000 C 
ATOM     15  C   UNL     1      -1.464  34.755   2.309  0.00  0.00    +0.000 A 
ATOM     16  C   UNL     1      -5.892  38.041   2.452  0.00  0.00    +0.000 A 
ATOM     17  C   UNL     1      -0.705  35.985   2.281  0.00  0.00    +0.000 A 
ATOM     18  C   UNL     1      -1.307  38.410   2.204  0.00  0.00    +0.000 A 
ATOM     19  C   UNL     1      -2.436  39.282   2.237  0.00  0.00    +0.000 A 
ATOM     20  C   UNL     1      -4.950  39.137   2.407  0.00  0.00    +0.000 A 
ATOM     21  C   UNL     1      -0.110  39.286   2.274  0.00  0.00    +0.000 C 
ATOM     22  C   UNL     1      -0.800  33.528   2.474  0.00  0.00    +0.000 A 
ATOM     23  C   UNL     1      -2.012  40.663   2.321  0.00  0.00    +0.000 C 
ATOM     24  C   UNL     1      -7.261  38.276   2.652  0.00  0.00    +0.000 A 
ATOM     25  C   UNL     1       0.697  35.913   2.405  0.00  0.00    +0.000 A 
ATOM     26  C   UNL     1      -5.450  40.443   2.580  0.00  0.00    +0.000 A 
ATOM     27  C   UNL     1       0.590  33.509   2.590  0.00  0.00    +0.000 A 
ATOM     28  C   UNL     1       1.330  34.680   2.551  0.00  0.00    +0.000 A 
ATOM     29  C   UNL     1      -7.700  39.590   2.810  0.00  0.00    +0.000 A 
ATOM     30  C   UNL     1      -6.814  40.657   2.775  0.00  0.00    +0.000 A 
ATOM     31  H   UNL     1      -0.030  41.357   2.391  0.00  0.00    +0.000 HD
ENDROOT
BRANCH   7  32
ATOM     32  O   UNL     1      -3.780  33.974   4.644  0.00  0.00    +0.000 OA
ATOM     33  H   UNL     1      -3.293  34.811   4.481  0.00  0.00    +0.000 HD
ENDBRANCH   7  32
BRANCH   7  35
ATOM     34  O   UNL     1      -4.620  31.407   4.009  0.00  0.00    +0.000 OA
ATOM     35  C   UNL     1      -5.268  32.365   3.584  0.00  0.00    +0.000 C 
BRANCH  35  36
ATOM     36  O   UNL     1      -6.575  32.379   3.181  0.00  0.00    +0.000 OA
ATOM     37  C   UNL     1      -6.960  31.469   2.187  0.00  0.00    +0.000 C 
ENDBRANCH  35  36
ENDBRANCH   7  35
TORSDOF 3
ENDMDL
MODEL 6
REMARK VINA RESULT:      -7.0      1.901      6.661
REMARK  Name = 490561_Nocardiopsis.pdbqt.pdb
REMARK  3 active torsions:
REMARK  status: ('A' for Active; 'I' for Inactive)
REMARK    1  A    between atoms: C_7  and  O_32
REMARK    2  A    between atoms: C_7  and  C_35
REMARK    3  A    between atoms: C_35  and  O_36
REMARK                            x       y       z     vdW  Elec       q    Type
REMARK                         _______ _______ _______ _____ _____    ______ ____
ROOT
ATOM      1  O   UNL     1      -1.737  50.331  26.792  0.00  0.00    +0.000 OA
ATOM      2  O   UNL     1      -8.666  47.456  26.122  0.00  0.00    +0.000 OA
ATOM      3  N   UNL     1      -3.450  51.201  28.170  0.00  0.00    +0.000 N 
ATOM      4  N   UNL     1      -3.226  48.536  26.809  0.00  0.00    +0.000 N 
ATOM      5  N   UNL     1      -9.087  49.478  27.184  0.00  0.00    +0.000 N 
ATOM      6  C   UNL     1      -1.986  51.031  28.062  0.00  0.00    +0.000 C 
ATOM      7  C   UNL     1      -1.385  50.056  29.164  0.00  0.00    +0.000 C 
ATOM      8  C   UNL     1      -1.946  48.975  27.098  0.00  0.00    +0.000 C 
ATOM      9  C   UNL     1      -1.497  48.799  28.429  0.00  0.00    +0.000 C 
ATOM     10  C   UNL     1      -4.482  50.443  27.677  0.00  0.00    +0.000 A 
ATOM     11  C   UNL     1      -4.388  49.211  27.029  0.00  0.00    +0.000 A 
ATOM     12  C   UNL     1      -5.798  50.861  27.892  0.00  0.00    +0.000 A 
ATOM     13  C   UNL     1      -5.607  48.603  26.711  0.00  0.00    +0.000 A 
ATOM     14  C   UNL     1      -1.241  52.400  27.929  0.00  0.00    +0.000 C 
ATOM     15  C   UNL     1      -4.192  52.195  28.857  0.00  0.00    +0.000 A 
ATOM     16  C   UNL     1      -3.732  47.313  26.331  0.00  0.00    +0.000 A 
ATOM     17  C   UNL     1      -5.614  52.019  28.670  0.00  0.00    +0.000 A 
ATOM     18  C   UNL     1      -7.031  50.282  27.563  0.00  0.00    +0.000 A 
ATOM     19  C   UNL     1      -6.940  49.020  26.904  0.00  0.00    +0.000 A 
ATOM     20  C   UNL     1      -5.175  47.343  26.239  0.00  0.00    +0.000 A 
ATOM     21  C   UNL     1      -8.481  50.551  27.734  0.00  0.00    +0.000 C 
ATOM     22  C   UNL     1      -3.717  53.252  29.651  0.00  0.00    +0.000 A 
ATOM     23  C   UNL     1      -8.258  48.481  26.648  0.00  0.00    +0.000 C 
ATOM     24  C   UNL     1      -3.011  46.170  25.955  0.00  0.00    +0.000 A 
ATOM     25  C   UNL     1      -6.492  52.935  29.285  0.00  0.00    +0.000 A 
ATOM     26  C   UNL     1      -5.829  46.186  25.770  0.00  0.00    +0.000 A 
ATOM     27  C   UNL     1      -4.625  54.134  30.236  0.00  0.00    +0.000 A 
ATOM     28  C   UNL     1      -5.990  53.984  30.054  0.00  0.00    +0.000 A 
ATOM     29  C   UNL     1      -3.711  45.056  25.491  0.00  0.00    +0.000 A 
ATOM     30  C   UNL     1      -5.095  45.061  25.398  0.00  0.00    +0.000 A 
ATOM     31  H   UNL     1     -10.090  49.377  27.152  0.00  0.00    +0.000 HD
ENDROOT
BRANCH   7  32
ATOM     32  O   UNL     1      -2.156  49.960  30.370  0.00  0.00    +0.000 OA
ATOM     33  H   UNL     1      -1.694  50.492  31.055  0.00  0.00    +0.000 HD
ENDBRANCH   7  32
BRANCH   7  35
ATOM     34  O   UNL     1       0.354  51.039  30.496  0.00  0.00    +0.000 OA
ATOM     35  C   UNL     1       0.070  50.392  29.485  0.00  0.00    +0.000 C 
BRANCH  35  36
ATOM     36  O   UNL     1       0.929  49.848  28.571  0.00  0.00    +0.000 OA
ATOM     37  C   UNL     1       2.296  50.124  28.716  0.00  0.00    +0.000 C 
ENDBRANCH  35  36
ENDBRANCH   7  35
TORSDOF 3
ENDMDL
MODEL 7
REMARK VINA RESULT:      -7.0     24.817     27.519
REMARK  Name = 490561_Nocardiopsis.pdbqt.pdb
REMARK  3 active torsions:
REMARK  status: ('A' for Active; 'I' for Inactive)
REMARK    1  A    between atoms: C_7  and  O_32
REMARK    2  A    between atoms: C_7  and  C_35
REMARK    3  A    between atoms: C_35  and  O_36
REMARK                            x       y       z     vdW  Elec       q    Type
REMARK                         _______ _______ _______ _____ _____    ______ ____
ROOT
ATOM      1  O   UNL     1     -20.404  36.660   4.473  0.00  0.00    +0.000 OA
ATOM      2  O   UNL     1     -21.217  44.147   4.593  0.00  0.00    +0.000 OA
ATOM      3  N   UNL     1     -18.651  37.963   5.376  0.00  0.00    +0.000 N 
ATOM      4  N   UNL     1     -21.570  38.590   5.070  0.00  0.00    +0.000 N 
ATOM      5  N   UNL     1     -18.920  43.910   4.842  0.00  0.00    +0.000 N 
ATOM      6  C   UNL     1     -19.260  36.617   5.396  0.00  0.00    +0.000 C 
ATOM      7  C   UNL     1     -19.909  36.243   6.798  0.00  0.00    +0.000 C 
ATOM      8  C   UNL     1     -21.443  37.221   5.235  0.00  0.00    +0.000 C 
ATOM      9  C   UNL     1     -21.257  36.753   6.558  0.00  0.00    +0.000 C 
ATOM     10  C   UNL     1     -19.205  39.197   5.145  0.00  0.00    +0.000 A 
ATOM     11  C   UNL     1     -20.558  39.497   4.986  0.00  0.00    +0.000 A 
ATOM     12  C   UNL     1     -18.379  40.325   5.142  0.00  0.00    +0.000 A 
ATOM     13  C   UNL     1     -20.863  40.856   4.857  0.00  0.00    +0.000 A 
ATOM     14  C   UNL     1     -18.302  35.527   4.813  0.00  0.00    +0.000 C 
ATOM     15  C   UNL     1     -17.310  38.348   5.631  0.00  0.00    +0.000 A 
ATOM     16  C   UNL     1     -22.683  39.450   5.042  0.00  0.00    +0.000 A 
ATOM     17  C   UNL     1     -17.126  39.772   5.462  0.00  0.00    +0.000 A 
ATOM     18  C   UNL     1     -18.658  41.690   4.992  0.00  0.00    +0.000 A 
ATOM     19  C   UNL     1     -20.042  42.002   4.833  0.00  0.00    +0.000 A 
ATOM     20  C   UNL     1     -22.276  40.829   4.886  0.00  0.00    +0.000 A 
ATOM     21  C   UNL     1     -17.943  42.991   4.996  0.00  0.00    +0.000 C 
ATOM     22  C   UNL     1     -16.224  37.543   6.012  0.00  0.00    +0.000 A 
ATOM     23  C   UNL     1     -20.235  43.432   4.734  0.00  0.00    +0.000 C 
ATOM     24  C   UNL     1     -24.040  39.106   5.130  0.00  0.00    +0.000 A 
ATOM     25  C   UNL     1     -15.842  40.313   5.671  0.00  0.00    +0.000 A 
ATOM     26  C   UNL     1     -23.284  41.811   4.835  0.00  0.00    +0.000 A 
ATOM     27  C   UNL     1     -14.972  38.126   6.206  0.00  0.00    +0.000 A 
ATOM     28  C   UNL     1     -14.778  39.487   6.033  0.00  0.00    +0.000 A 
ATOM     29  C   UNL     1     -24.996  40.121   5.067  0.00  0.00    +0.000 A 
ATOM     30  C   UNL     1     -24.628  41.450   4.922  0.00  0.00    +0.000 A 
ATOM     31  H   UNL     1     -18.734  44.901   4.807  0.00  0.00    +0.000 HD
ENDROOT
BRANCH   7  32
ATOM     32  O   UNL     1     -19.347  36.929   7.926  0.00  0.00    +0.000 OA
ATOM     33  H   UNL     1     -18.409  37.126   7.710  0.00  0.00    +0.000 HD
ENDBRANCH   7  32
BRANCH   7  35
ATOM     34  O   UNL     1     -20.711  34.009   6.440  0.00  0.00    +0.000 OA
ATOM     35  C   UNL     1     -19.913  34.735   7.038  0.00  0.00    +0.000 C 
BRANCH  35  36
ATOM     36  O   UNL     1     -18.928  34.358   7.908  0.00  0.00    +0.000 OA
ATOM     37  C   UNL     1     -18.959  33.045   8.397  0.00  0.00    +0.000 C 
ENDBRANCH  35  36
ENDBRANCH   7  35
TORSDOF 3
ENDMDL
MODEL 8
REMARK VINA RESULT:      -6.9     24.654     27.190
REMARK  Name = 490561_Nocardiopsis.pdbqt.pdb
REMARK  3 active torsions:
REMARK  status: ('A' for Active; 'I' for Inactive)
REMARK    1  A    between atoms: C_7  and  O_32
REMARK    2  A    between atoms: C_7  and  C_35
REMARK    3  A    between atoms: C_35  and  O_36
REMARK                            x       y       z     vdW  Elec       q    Type
REMARK                         _______ _______ _______ _____ _____    ______ ____
ROOT
ATOM      1  O   UNL     1     -20.360  37.060   7.267  0.00  0.00    +0.000 OA
ATOM      2  O   UNL     1     -16.742  43.315   5.141  0.00  0.00    +0.000 OA
ATOM      3  N   UNL     1     -21.489  38.584   5.856  0.00  0.00    +0.000 N 
ATOM      4  N   UNL     1     -18.550  38.150   6.279  0.00  0.00    +0.000 N 
ATOM      5  N   UNL     1     -18.957  43.878   4.729  0.00  0.00    +0.000 N 
ATOM      6  C   UNL     1     -21.443  37.168   6.277  0.00  0.00    +0.000 C 
ATOM      7  C   UNL     1     -21.001  36.181   5.113  0.00  0.00    +0.000 C 
ATOM      8  C   UNL     1     -19.193  36.943   6.492  0.00  0.00    +0.000 C 
ATOM      9  C   UNL     1     -19.559  36.205   5.340  0.00  0.00    +0.000 C 
ATOM     10  C   UNL     1     -20.502  39.535   5.789  0.00  0.00    +0.000 A 
ATOM     11  C   UNL     1     -19.136  39.347   5.999  0.00  0.00    +0.000 A 
ATOM     12  C   UNL     1     -20.833  40.833   5.389  0.00  0.00    +0.000 A 
ATOM     13  C   UNL     1     -18.332  40.470   5.774  0.00  0.00    +0.000 A 
ATOM     14  C   UNL     1     -22.739  36.736   7.039  0.00  0.00    +0.000 C 
ATOM     15  C   UNL     1     -22.583  39.341   5.365  0.00  0.00    +0.000 A 
ATOM     16  C   UNL     1     -17.192  38.506   6.182  0.00  0.00    +0.000 A 
ATOM     17  C   UNL     1     -22.206  40.712   5.108  0.00  0.00    +0.000 A 
ATOM     18  C   UNL     1     -20.050  41.976   5.180  0.00  0.00    +0.000 A 
ATOM     19  C   UNL     1     -18.652  41.788   5.390  0.00  0.00    +0.000 A 
ATOM     20  C   UNL     1     -17.038  39.917   5.902  0.00  0.00    +0.000 A 
ATOM     21  C   UNL     1     -20.213  43.384   4.737  0.00  0.00    +0.000 C 
ATOM     22  C   UNL     1     -23.899  38.918   5.112  0.00  0.00    +0.000 A 
ATOM     23  C   UNL     1     -17.924  43.006   5.104  0.00  0.00    +0.000 C 
ATOM     24  C   UNL     1     -16.071  37.677   6.337  0.00  0.00    +0.000 A 
ATOM     25  C   UNL     1     -23.187  41.600   4.622  0.00  0.00    +0.000 A 
ATOM     26  C   UNL     1     -15.730  40.425   5.781  0.00  0.00    +0.000 A 
ATOM     27  C   UNL     1     -24.834  39.835   4.633  0.00  0.00    +0.000 A 
ATOM     28  C   UNL     1     -24.490  41.156   4.397  0.00  0.00    +0.000 A 
ATOM     29  C   UNL     1     -14.799  38.236   6.213  0.00  0.00    +0.000 A 
ATOM     30  C   UNL     1     -14.628  39.585   5.941  0.00  0.00    +0.000 A 
ATOM     31  H   UNL     1     -18.748  44.830   4.465  0.00  0.00    +0.000 HD
ENDROOT
BRANCH   7  32
ATOM     32  O   UNL     1     -21.271  36.655   3.785  0.00  0.00    +0.000 OA
ATOM     33  H   UNL     1     -22.200  36.972   3.772  0.00  0.00    +0.000 HD
ENDBRANCH   7  32
BRANCH   7  35
ATOM     34  O   UNL     1     -22.642  34.462   4.770  0.00  0.00    +0.000 OA
ATOM     35  C   UNL     1     -21.578  34.780   5.307  0.00  0.00    +0.000 C 
BRANCH  35  36
ATOM     36  O   UNL     1     -20.754  33.994   6.063  0.00  0.00    +0.000 OA
ATOM     37  C   UNL     1     -21.299  33.385   7.202  0.00  0.00    +0.000 C 
ENDBRANCH  35  36
ENDBRANCH   7  35
TORSDOF 3
ENDMDL
MODEL 9
REMARK VINA RESULT:      -6.8     24.197     26.175
REMARK  Name = 490561_Nocardiopsis.pdbqt.pdb
REMARK  3 active torsions:
REMARK  status: ('A' for Active; 'I' for Inactive)
REMARK    1  A    between atoms: C_7  and  O_32
REMARK    2  A    between atoms: C_7  and  C_35
REMARK    3  A    between atoms: C_35  and  O_36
REMARK                            x       y       z     vdW  Elec       q    Type
REMARK                         _______ _______ _______ _____ _____    ______ ____
ROOT
ATOM      1  O   UNL     1     -17.515  25.199  23.969  0.00  0.00    +0.000 OA
ATOM      2  O   UNL     1     -21.299  30.218  19.819  0.00  0.00    +0.000 OA
ATOM      3  N   UNL     1     -16.682  25.734  21.822  0.00  0.00    +0.000 N 
ATOM      4  N   UNL     1     -18.463  27.307  23.656  0.00  0.00    +0.000 N 
ATOM      5  N   UNL     1     -20.011  29.142  18.214  0.00  0.00    +0.000 N 
ATOM      6  C   UNL     1     -16.293  25.217  23.151  0.00  0.00    +0.000 C 
ATOM      7  C   UNL     1     -15.315  26.189  23.941  0.00  0.00    +0.000 C 
ATOM      8  C   UNL     1     -17.637  26.519  24.438  0.00  0.00    +0.000 C 
ATOM      9  C   UNL     1     -16.317  26.987  24.642  0.00  0.00    +0.000 C 
ATOM     10  C   UNL     1     -17.679  26.602  21.452  0.00  0.00    +0.000 A 
ATOM     11  C   UNL     1     -18.523  27.325  22.295  0.00  0.00    +0.000 A 
ATOM     12  C   UNL     1     -17.859  26.894  20.097  0.00  0.00    +0.000 A 
ATOM     13  C   UNL     1     -19.394  28.215  21.658  0.00  0.00    +0.000 A 
ATOM     14  C   UNL     1     -15.818  23.728  23.088  0.00  0.00    +0.000 C 
ATOM     15  C   UNL     1     -16.093  25.494  20.556  0.00  0.00    +0.000 A 
ATOM     16  C   UNL     1     -19.368  28.341  23.961  0.00  0.00    +0.000 A 
ATOM     17  C   UNL     1     -16.815  26.166  19.499  0.00  0.00    +0.000 A 
ATOM     18  C   UNL     1     -18.738  27.762  19.435  0.00  0.00    +0.000 A 
ATOM     19  C   UNL     1     -19.600  28.507  20.294  0.00  0.00    +0.000 A 
ATOM     20  C   UNL     1     -19.964  28.887  22.762  0.00  0.00    +0.000 A 
ATOM     21  C   UNL     1     -19.042  28.216  18.054  0.00  0.00    +0.000 C 
ATOM     22  C   UNL     1     -14.954  24.731  20.248  0.00  0.00    +0.000 A 
ATOM     23  C   UNL     1     -20.433  29.406  19.525  0.00  0.00    +0.000 C 
ATOM     24  C   UNL     1     -19.719  28.832  25.227  0.00  0.00    +0.000 A 
ATOM     25  C   UNL     1     -16.359  26.018  18.174  0.00  0.00    +0.000 A 
ATOM     26  C   UNL     1     -20.898  29.932  22.908  0.00  0.00    +0.000 A 
ATOM     27  C   UNL     1     -14.543  24.614  18.921  0.00  0.00    +0.000 A 
ATOM     28  C   UNL     1     -15.235  25.241  17.897  0.00  0.00    +0.000 A 
ATOM     29  C   UNL     1     -20.655  29.863  25.312  0.00  0.00    +0.000 A 
ATOM     30  C   UNL     1     -21.236  30.405  24.175  0.00  0.00    +0.000 A 
ATOM     31  H   UNL     1     -20.426  29.634  17.437  0.00  0.00    +0.000 HD
ENDROOT
BRANCH   7  32
ATOM     32  O   UNL     1     -14.527  27.057  23.112  0.00  0.00    +0.000 OA
ATOM     33  H   UNL     1     -13.943  26.487  22.565  0.00  0.00    +0.000 HD
ENDBRANCH   7  32
BRANCH   7  35
ATOM     34  O   UNL     1     -13.331  24.980  24.547  0.00  0.00    +0.000 OA
ATOM     35  C   UNL     1     -14.420  25.425  24.915  0.00  0.00    +0.000 C 
BRANCH  35  36
ATOM     36  O   UNL     1     -14.964  25.377  26.169  0.00  0.00    +0.000 OA
ATOM     37  C   UNL     1     -15.141  24.116  26.754  0.00  0.00    +0.000 C 
ENDBRANCH  35  36
ENDBRANCH   7  35
TORSDOF 3
ENDMDL
