MODEL 1
REMARK VINA RESULT:      -6.5      0.000      0.000
REMARK  Name = 5109870_Ethoxyphenyl.pdbqt.pdb
REMARK  6 active torsions:
REMARK  status: ('A' for Active; 'I' for Inactive)
REMARK    1  A    between atoms: N_2  and  C_22
REMARK    2  A    between atoms: C_3  and  O_11
REMARK    3  A    between atoms: C_3  and  C_13
REMARK    4  A    between atoms: C_16  and  N_19
REMARK    5  A    between atoms: C_25  and  O_28
REMARK    6  A    between atoms: O_28  and  C_29
REMARK                            x       y       z     vdW  Elec       q    Type
REMARK                         _______ _______ _______ _____ _____    ______ ____
ROOT
ATOM      1  N   UNL     1      -3.098  48.697  28.512  0.00  0.00    +0.000 N 
ATOM      2  N   UNL     1      -4.770  48.041  26.920  0.00  0.00    +0.000 N 
ATOM      3  C   UNL     1      -3.252  47.237  28.714  0.00  0.00    +0.000 C 
ATOM      4  C   UNL     1      -4.165  49.113  27.547  0.00  0.00    +0.000 C 
ATOM      5  C   UNL     1      -4.183  46.932  27.625  0.00  0.00    +0.000 C 
ATOM      6  C   UNL     1      -3.047  49.559  29.692  0.00  0.00    +0.000 C 
ATOM      7  C   UNL     1      -4.782  50.394  27.654  0.00  0.00    +0.000 C 
ATOM      8  C   UNL     1      -3.454  50.847  30.428  0.00  0.00    +0.000 C 
ATOM      9  C   UNL     1      -5.022  51.651  28.506  0.00  0.00    +0.000 C 
ATOM     10  C   UNL     1      -4.405  51.905  29.878  0.00  0.00    +0.000 C 
ENDROOT
BRANCH   3  11
ATOM     11  C   UNL     1      -1.925  46.521  28.632  0.00  0.00    +0.000 A 
ATOM     12  C   UNL     1      -1.012  46.786  27.602  0.00  0.00    +0.000 A 
ATOM     13  C   UNL     1       0.228  46.154  27.558  0.00  0.00    +0.000 A 
ATOM     14  C   UNL     1       0.561  45.254  28.566  0.00  0.00    +0.000 A 
ATOM     15  C   UNL     1      -0.314  44.979  29.612  0.00  0.00    +0.000 A 
ATOM     16  C   UNL     1      -1.549  45.620  29.641  0.00  0.00    +0.000 A 
BRANCH  14  17
ATOM     17  N   UNL     1       1.849  44.590  28.527  0.00  0.00    +0.000 N 
ATOM     18  O   UNL     1       2.509  44.679  27.481  0.00  0.00    +0.000 OA
ATOM     19  O   UNL     1       2.212  43.977  29.540  0.00  0.00    +0.000 OA
ENDBRANCH  14  17
ENDBRANCH   3  11
BRANCH   2  20
ATOM     20  C   UNL     1      -5.932  47.941  26.139  0.00  0.00    +0.000 A 
ATOM     21  C   UNL     1      -6.043  48.561  24.890  0.00  0.00    +0.000 A 
ATOM     22  C   UNL     1      -7.193  48.437  24.112  0.00  0.00    +0.000 A 
ATOM     23  C   UNL     1      -8.266  47.674  24.566  0.00  0.00    +0.000 A 
ATOM     24  C   UNL     1      -8.175  47.038  25.801  0.00  0.00    +0.000 A 
ATOM     25  C   UNL     1      -7.019  47.170  26.571  0.00  0.00    +0.000 A 
BRANCH  23  26
ATOM     26  O   UNL     1      -9.438  47.487  23.880  0.00  0.00    +0.000 OA
BRANCH  26  27
ATOM     27  C   UNL     1     -10.422  48.319  24.215  0.00  0.00    +0.000 C 
ATOM     28  C   UNL     1     -11.544  49.286  24.611  0.00  0.00    +0.000 C 
ENDBRANCH  26  27
ENDBRANCH  23  26
ENDBRANCH   2  20
BRANCH   3  29
ATOM     29  O   UNL     1      -3.895  46.906  29.939  0.00  0.00    +0.000 OA
ATOM     30  H   UNL     1      -4.270  47.742  30.261  0.00  0.00    +0.000 HD
ENDBRANCH   3  29
TORSDOF 6
ENDMDL
MODEL 2
REMARK VINA RESULT:      -6.5      2.750      8.441
REMARK  Name = 5109870_Ethoxyphenyl.pdbqt.pdb
REMARK  6 active torsions:
REMARK  status: ('A' for Active; 'I' for Inactive)
REMARK    1  A    between atoms: N_2  and  C_22
REMARK    2  A    between atoms: C_3  and  O_11
REMARK    3  A    between atoms: C_3  and  C_13
REMARK    4  A    between atoms: C_16  and  N_19
REMARK    5  A    between atoms: C_25  and  O_28
REMARK    6  A    between atoms: O_28  and  C_29
REMARK                            x       y       z     vdW  Elec       q    Type
REMARK                         _______ _______ _______ _____ _____    ______ ____
ROOT
ATOM      1  N   UNL     1      -2.526  48.159  27.741  0.00  0.00    +0.000 N 
ATOM      2  N   UNL     1      -1.764  46.269  29.009  0.00  0.00    +0.000 N 
ATOM      3  C   UNL     1      -2.842  46.988  26.890  0.00  0.00    +0.000 C 
ATOM      4  C   UNL     1      -1.729  47.646  28.901  0.00  0.00    +0.000 C 
ATOM      5  C   UNL     1      -2.458  45.907  27.801  0.00  0.00    +0.000 C 
ATOM      6  C   UNL     1      -1.907  49.326  27.114  0.00  0.00    +0.000 C 
ATOM      7  C   UNL     1      -0.700  48.441  29.485  0.00  0.00    +0.000 C 
ATOM      8  C   UNL     1      -0.869  50.461  27.128  0.00  0.00    +0.000 C 
ATOM      9  C   UNL     1       0.215  49.670  29.363  0.00  0.00    +0.000 C 
ATOM     10  C   UNL     1       0.177  50.676  28.217  0.00  0.00    +0.000 C 
ENDROOT
BRANCH   3  11
ATOM     11  C   UNL     1      -4.294  46.979  26.472  0.00  0.00    +0.000 A 
ATOM     12  C   UNL     1      -5.029  45.787  26.402  0.00  0.00    +0.000 A 
ATOM     13  C   UNL     1      -6.378  45.793  26.059  0.00  0.00    +0.000 A 
ATOM     14  C   UNL     1      -7.001  47.010  25.795  0.00  0.00    +0.000 A 
ATOM     15  C   UNL     1      -6.306  48.213  25.870  0.00  0.00    +0.000 A 
ATOM     16  C   UNL     1      -4.958  48.189  26.215  0.00  0.00    +0.000 A 
BRANCH  14  17
ATOM     17  N   UNL     1      -8.405  47.023  25.435  0.00  0.00    +0.000 N 
ATOM     18  O   UNL     1      -9.232  46.862  26.343  0.00  0.00    +0.000 OA
ATOM     19  O   UNL     1      -8.692  47.197  24.242  0.00  0.00    +0.000 OA
ENDBRANCH  14  17
ENDBRANCH   3  11
BRANCH   2  20
ATOM     20  C   UNL     1      -1.009  45.366  29.773  0.00  0.00    +0.000 A 
ATOM     21  C   UNL     1       0.213  44.853  29.324  0.00  0.00    +0.000 A 
ATOM     22  C   UNL     1       0.966  43.974  30.102  0.00  0.00    +0.000 A 
ATOM     23  C   UNL     1       0.514  43.591  31.363  0.00  0.00    +0.000 A 
ATOM     24  C   UNL     1      -0.693  44.097  31.835  0.00  0.00    +0.000 A 
ATOM     25  C   UNL     1      -1.439  44.976  31.049  0.00  0.00    +0.000 A 
BRANCH  23  26
ATOM     26  O   UNL     1       1.177  42.736  32.204  0.00  0.00    +0.000 OA
BRANCH  26  27
ATOM     27  C   UNL     1       0.438  41.738  32.685  0.00  0.00    +0.000 C 
ATOM     28  C   UNL     1      -0.417  40.599  33.252  0.00  0.00    +0.000 C 
ENDBRANCH  26  27
ENDBRANCH  23  26
ENDBRANCH   2  20
BRANCH   3  29
ATOM     29  O   UNL     1      -2.016  46.896  25.736  0.00  0.00    +0.000 OA
ATOM     30  H   UNL     1      -2.540  46.395  25.089  0.00  0.00    +0.000 HD
ENDBRANCH   3  29
TORSDOF 6
ENDMDL
MODEL 3
REMARK VINA RESULT:      -6.3      3.927      8.034
REMARK  Name = 5109870_Ethoxyphenyl.pdbqt.pdb
REMARK  6 active torsions:
REMARK  status: ('A' for Active; 'I' for Inactive)
REMARK    1  A    between atoms: N_2  and  C_22
REMARK    2  A    between atoms: C_3  and  O_11
REMARK    3  A    between atoms: C_3  and  C_13
REMARK    4  A    between atoms: C_16  and  N_19
REMARK    5  A    between atoms: C_25  and  O_28
REMARK    6  A    between atoms: O_28  and  C_29
REMARK                            x       y       z     vdW  Elec       q    Type
REMARK                         _______ _______ _______ _____ _____    ______ ____
ROOT
ATOM      1  N   UNL     1      -2.656  49.152  26.889  0.00  0.00    +0.000 N 
ATOM      2  N   UNL     1      -1.374  47.566  28.154  0.00  0.00    +0.000 N 
ATOM      3  C   UNL     1      -2.246  49.891  28.107  0.00  0.00    +0.000 C 
ATOM      4  C   UNL     1      -2.238  47.728  27.089  0.00  0.00    +0.000 C 
ATOM      5  C   UNL     1      -1.382  48.886  28.728  0.00  0.00    +0.000 C 
ATOM      6  C   UNL     1      -4.043  49.268  26.441  0.00  0.00    +0.000 C 
ATOM      7  C   UNL     1      -3.021  46.659  26.560  0.00  0.00    +0.000 C 
ATOM      8  C   UNL     1      -5.330  48.630  25.889  0.00  0.00    +0.000 C 
ATOM      9  C   UNL     1      -4.357  46.211  25.946  0.00  0.00    +0.000 C 
ATOM     10  C   UNL     1      -5.521  47.142  25.617  0.00  0.00    +0.000 C 
ENDROOT
BRANCH   3  11
ATOM     11  C   UNL     1      -1.561  51.193  27.763  0.00  0.00    +0.000 A 
ATOM     12  C   UNL     1      -1.899  52.391  28.408  0.00  0.00    +0.000 A 
ATOM     13  C   UNL     1      -1.232  53.578  28.116  0.00  0.00    +0.000 A 
ATOM     14  C   UNL     1      -0.206  53.561  27.176  0.00  0.00    +0.000 A 
ATOM     15  C   UNL     1       0.166  52.387  26.528  0.00  0.00    +0.000 A 
ATOM     16  C   UNL     1      -0.511  51.209  26.832  0.00  0.00    +0.000 A 
BRANCH  14  17
ATOM     17  N   UNL     1       0.491  54.793  26.865  0.00  0.00    +0.000 N 
ATOM     18  O   UNL     1      -0.063  55.587  26.092  0.00  0.00    +0.000 OA
ATOM     19  O   UNL     1       1.598  54.977  27.392  0.00  0.00    +0.000 OA
ENDBRANCH  14  17
ENDBRANCH   3  11
BRANCH   2  20
ATOM     20  C   UNL     1      -0.919  46.424  28.832  0.00  0.00    +0.000 A 
ATOM     21  C   UNL     1       0.302  45.816  28.525  0.00  0.00    +0.000 A 
ATOM     22  C   UNL     1       0.756  44.695  29.221  0.00  0.00    +0.000 A 
ATOM     23  C   UNL     1      -0.007  44.158  30.255  0.00  0.00    +0.000 A 
ATOM     24  C   UNL     1      -1.220  44.753  30.586  0.00  0.00    +0.000 A 
ATOM     25  C   UNL     1      -1.665  45.873  29.884  0.00  0.00    +0.000 A 
BRANCH  23  26
ATOM     26  O   UNL     1       0.348  43.063  30.999  0.00  0.00    +0.000 OA
BRANCH  26  27
ATOM     27  C   UNL     1      -0.218  42.996  32.202  0.00  0.00    +0.000 C 
ATOM     28  C   UNL     1      -0.870  42.902  33.587  0.00  0.00    +0.000 C 
ENDBRANCH  26  27
ENDBRANCH  23  26
ENDBRANCH   2  20
BRANCH   3  29
ATOM     29  O   UNL     1      -3.326  50.144  28.996  0.00  0.00    +0.000 OA
ATOM     30  H   UNL     1      -3.076  50.952  29.475  0.00  0.00    +0.000 HD
ENDBRANCH   3  29
TORSDOF 6
ENDMDL
MODEL 4
REMARK VINA RESULT:      -6.1     26.025     28.169
REMARK  Name = 5109870_Ethoxyphenyl.pdbqt.pdb
REMARK  6 active torsions:
REMARK  status: ('A' for Active; 'I' for Inactive)
REMARK    1  A    between atoms: N_2  and  C_22
REMARK    2  A    between atoms: C_3  and  O_11
REMARK    3  A    between atoms: C_3  and  C_13
REMARK    4  A    between atoms: C_16  and  N_19
REMARK    5  A    between atoms: C_25  and  O_28
REMARK    6  A    between atoms: O_28  and  C_29
REMARK                            x       y       z     vdW  Elec       q    Type
REMARK                         _______ _______ _______ _____ _____    ______ ____
ROOT
ATOM      1  N   UNL     1     -16.952  43.053   2.927  0.00  0.00    +0.000 N 
ATOM      2  N   UNL     1     -19.108  43.982   3.424  0.00  0.00    +0.000 N 
ATOM      3  C   UNL     1     -17.016  43.073   4.408  0.00  0.00    +0.000 C 
ATOM      4  C   UNL     1     -18.168  43.773   2.433  0.00  0.00    +0.000 C 
ATOM      5  C   UNL     1     -18.396  43.530   4.590  0.00  0.00    +0.000 C 
ATOM      6  C   UNL     1     -15.727  43.520   2.279  0.00  0.00    +0.000 C 
ATOM      7  C   UNL     1     -18.118  44.552   1.240  0.00  0.00    +0.000 C 
ATOM      8  C   UNL     1     -15.018  44.317   1.171  0.00  0.00    +0.000 C 
ATOM      9  C   UNL     1     -17.247  45.230   0.170  0.00  0.00    +0.000 C 
ATOM     10  C   UNL     1     -15.724  45.155   0.109  0.00  0.00    +0.000 C 
ENDROOT
BRANCH   3  11
ATOM     11  C   UNL     1     -16.715  41.715   4.996  0.00  0.00    +0.000 A 
ATOM     12  C   UNL     1     -17.737  40.804   5.295  0.00  0.00    +0.000 A 
ATOM     13  C   UNL     1     -17.448  39.537   5.797  0.00  0.00    +0.000 A 
ATOM     14  C   UNL     1     -16.117  39.177   5.989  0.00  0.00    +0.000 A 
ATOM     15  C   UNL     1     -15.077  40.051   5.688  0.00  0.00    +0.000 A 
ATOM     16  C   UNL     1     -15.384  41.313   5.187  0.00  0.00    +0.000 A 
BRANCH  14  17
ATOM     17  N   UNL     1     -15.808  37.861   6.513  0.00  0.00    +0.000 N 
ATOM     18  O   UNL     1     -14.623  37.501   6.499  0.00  0.00    +0.000 OA
ATOM     19  O   UNL     1     -16.748  37.177   6.943  0.00  0.00    +0.000 OA
ENDBRANCH  14  17
ENDBRANCH   3  11
BRANCH   2  20
ATOM     20  C   UNL     1     -20.258  44.786   3.476  0.00  0.00    +0.000 A 
ATOM     21  C   UNL     1     -21.524  44.253   3.738  0.00  0.00    +0.000 A 
ATOM     22  C   UNL     1     -22.657  45.064   3.810  0.00  0.00    +0.000 A 
ATOM     23  C   UNL     1     -22.545  46.440   3.629  0.00  0.00    +0.000 A 
ATOM     24  C   UNL     1     -21.294  46.995   3.379  0.00  0.00    +0.000 A 
ATOM     25  C   UNL     1     -20.167  46.175   3.308  0.00  0.00    +0.000 A 
BRANCH  23  26
ATOM     26  O   UNL     1     -23.593  47.323   3.681  0.00  0.00    +0.000 OA
BRANCH  26  27
ATOM     27  C   UNL     1     -23.407  48.367   4.485  0.00  0.00    +0.000 C 
ATOM     28  C   UNL     1     -23.192  49.580   5.398  0.00  0.00    +0.000 C 
ENDBRANCH  26  27
ENDBRANCH  23  26
ENDBRANCH   2  20
BRANCH   3  29
ATOM     29  O   UNL     1     -16.157  44.045   4.991  0.00  0.00    +0.000 OA
ATOM     30  H   UNL     1     -15.269  43.653   4.954  0.00  0.00    +0.000 HD
ENDBRANCH   3  29
TORSDOF 6
ENDMDL
MODEL 5
REMARK VINA RESULT:      -5.9     26.530     28.762
REMARK  Name = 5109870_Ethoxyphenyl.pdbqt.pdb
REMARK  6 active torsions:
REMARK  status: ('A' for Active; 'I' for Inactive)
REMARK    1  A    between atoms: N_2  and  C_22
REMARK    2  A    between atoms: C_3  and  O_11
REMARK    3  A    between atoms: C_3  and  C_13
REMARK    4  A    between atoms: C_16  and  N_19
REMARK    5  A    between atoms: C_25  and  O_28
REMARK    6  A    between atoms: O_28  and  C_29
REMARK                            x       y       z     vdW  Elec       q    Type
REMARK                         _______ _______ _______ _____ _____    ______ ____
ROOT
ATOM      1  N   UNL     1     -17.094  36.719   6.254  0.00  0.00    +0.000 N 
ATOM      2  N   UNL     1     -15.146  35.656   5.339  0.00  0.00    +0.000 N 
ATOM      3  C   UNL     1     -17.625  35.570   5.481  0.00  0.00    +0.000 C 
ATOM      4  C   UNL     1     -15.626  36.789   5.966  0.00  0.00    +0.000 C 
ATOM      5  C   UNL     1     -16.366  34.936   5.083  0.00  0.00    +0.000 C 
ATOM      6  C   UNL     1     -17.753  38.016   6.110  0.00  0.00    +0.000 C 
ATOM      7  C   UNL     1     -14.956  38.047   5.908  0.00  0.00    +0.000 C 
ATOM      8  C   UNL     1     -17.681  39.544   5.951  0.00  0.00    +0.000 C 
ATOM      9  C   UNL     1     -15.076  39.577   5.822  0.00  0.00    +0.000 C 
ATOM     10  C   UNL     1     -16.392  40.350   5.822  0.00  0.00    +0.000 C 
ENDROOT
BRANCH   3  11
ATOM     11  C   UNL     1     -18.532  34.705   6.324  0.00  0.00    +0.000 A 
ATOM     12  C   UNL     1     -19.814  34.344   5.885  0.00  0.00    +0.000 A 
ATOM     13  C   UNL     1     -20.628  33.511   6.648  0.00  0.00    +0.000 A 
ATOM     14  C   UNL     1     -20.146  33.023   7.859  0.00  0.00    +0.000 A 
ATOM     15  C   UNL     1     -18.873  33.348   8.317  0.00  0.00    +0.000 A 
ATOM     16  C   UNL     1     -18.072  34.182   7.542  0.00  0.00    +0.000 A 
BRANCH  14  17
ATOM     17  N   UNL     1     -20.988  32.156   8.659  0.00  0.00    +0.000 N 
ATOM     18  O   UNL     1     -20.503  31.084   9.048  0.00  0.00    +0.000 OA
ATOM     19  O   UNL     1     -22.139  32.541   8.907  0.00  0.00    +0.000 OA
ENDBRANCH  14  17
ENDBRANCH   3  11
BRANCH   2  20
ATOM     20  C   UNL     1     -13.930  35.380   4.696  0.00  0.00    +0.000 A 
ATOM     21  C   UNL     1     -13.826  35.307   3.303  0.00  0.00    +0.000 A 
ATOM     22  C   UNL     1     -12.608  35.055   2.672  0.00  0.00    +0.000 A 
ATOM     23  C   UNL     1     -11.452  34.878   3.430  0.00  0.00    +0.000 A 
ATOM     24  C   UNL     1     -11.528  34.958   4.817  0.00  0.00    +0.000 A 
ATOM     25  C   UNL     1     -12.752  35.210   5.437  0.00  0.00    +0.000 A 
BRANCH  23  26
ATOM     26  O   UNL     1     -10.209  34.627   2.910  0.00  0.00    +0.000 OA
BRANCH  26  27
ATOM     27  C   UNL     1      -9.545  35.706   2.500  0.00  0.00    +0.000 C 
ATOM     28  C   UNL     1      -8.775  36.951   2.045  0.00  0.00    +0.000 C 
ENDBRANCH  26  27
ENDBRANCH  23  26
ENDBRANCH   2  20
BRANCH   3  29
ATOM     29  O   UNL     1     -18.307  35.961   4.297  0.00  0.00    +0.000 OA
ATOM     30  H   UNL     1     -18.260  36.931   4.286  0.00  0.00    +0.000 HD
ENDBRANCH   3  29
TORSDOF 6
ENDMDL
MODEL 6
REMARK VINA RESULT:      -5.9      2.253      3.163
REMARK  Name = 5109870_Ethoxyphenyl.pdbqt.pdb
REMARK  6 active torsions:
REMARK  status: ('A' for Active; 'I' for Inactive)
REMARK    1  A    between atoms: N_2  and  C_22
REMARK    2  A    between atoms: C_3  and  O_11
REMARK    3  A    between atoms: C_3  and  C_13
REMARK    4  A    between atoms: C_16  and  N_19
REMARK    5  A    between atoms: C_25  and  O_28
REMARK    6  A    between atoms: O_28  and  C_29
REMARK                            x       y       z     vdW  Elec       q    Type
REMARK                         _______ _______ _______ _____ _____    ______ ____
ROOT
ATOM      1  N   UNL     1      -1.641  47.171  30.216  0.00  0.00    +0.000 N 
ATOM      2  N   UNL     1      -2.915  47.334  28.189  0.00  0.00    +0.000 N 
ATOM      3  C   UNL     1      -1.295  45.944  29.459  0.00  0.00    +0.000 C 
ATOM      4  C   UNL     1      -2.742  47.848  29.459  0.00  0.00    +0.000 C 
ATOM      5  C   UNL     1      -2.017  46.210  28.212  0.00  0.00    +0.000 C 
ATOM      6  C   UNL     1      -1.940  47.045  31.641  0.00  0.00    +0.000 C 
ATOM      7  C   UNL     1      -3.764  48.565  30.149  0.00  0.00    +0.000 C 
ATOM      8  C   UNL     1      -2.794  47.409  32.868  0.00  0.00    +0.000 C 
ATOM      9  C   UNL     1      -4.456  48.870  31.487  0.00  0.00    +0.000 C 
ATOM     10  C   UNL     1      -4.024  48.311  32.839  0.00  0.00    +0.000 C 
ENDROOT
BRANCH   3  11
ATOM     11  C   UNL     1       0.199  45.788  29.305  0.00  0.00    +0.000 A 
ATOM     12  C   UNL     1       1.041  46.900  29.164  0.00  0.00    +0.000 A 
ATOM     13  C   UNL     1       2.422  46.750  29.067  0.00  0.00    +0.000 A 
ATOM     14  C   UNL     1       2.966  45.470  29.125  0.00  0.00    +0.000 A 
ATOM     15  C   UNL     1       2.161  44.345  29.280  0.00  0.00    +0.000 A 
ATOM     16  C   UNL     1       0.783  44.513  29.376  0.00  0.00    +0.000 A 
BRANCH  14  17
ATOM     17  N   UNL     1       4.402  45.305  29.023  0.00  0.00    +0.000 N 
ATOM     18  O   UNL     1       5.041  46.188  28.434  0.00  0.00    +0.000 OA
ATOM     19  O   UNL     1       4.904  44.292  29.532  0.00  0.00    +0.000 OA
ENDBRANCH  14  17
ENDBRANCH   3  11
BRANCH   2  20
ATOM     20  C   UNL     1      -3.938  47.495  27.240  0.00  0.00    +0.000 A 
ATOM     21  C   UNL     1      -4.573  46.402  26.642  0.00  0.00    +0.000 A 
ATOM     22  C   UNL     1      -5.604  46.572  25.718  0.00  0.00    +0.000 A 
ATOM     23  C   UNL     1      -6.031  47.853  25.374  0.00  0.00    +0.000 A 
ATOM     24  C   UNL     1      -5.421  48.955  25.964  0.00  0.00    +0.000 A 
ATOM     25  C   UNL     1      -4.391  48.774  26.888  0.00  0.00    +0.000 A 
BRANCH  23  26
ATOM     26  O   UNL     1      -7.033  48.128  24.480  0.00  0.00    +0.000 OA
BRANCH  26  27
ATOM     27  C   UNL     1      -6.637  48.742  23.367  0.00  0.00    +0.000 C 
ATOM     28  C   UNL     1      -6.196  49.443  22.077  0.00  0.00    +0.000 C 
ENDBRANCH  26  27
ENDBRANCH  23  26
ENDBRANCH   2  20
BRANCH   3  29
ATOM     29  O   UNL     1      -1.840  44.762  30.031  0.00  0.00    +0.000 OA
ATOM     30  H   UNL     1      -1.162  44.445  30.650  0.00  0.00    +0.000 HD
ENDBRANCH   3  29
TORSDOF 6
ENDMDL
MODEL 7
REMARK VINA RESULT:      -5.8     26.210     28.399
REMARK  Name = 5109870_Ethoxyphenyl.pdbqt.pdb
REMARK  6 active torsions:
REMARK  status: ('A' for Active; 'I' for Inactive)
REMARK    1  A    between atoms: N_2  and  C_22
REMARK    2  A    between atoms: C_3  and  O_11
REMARK    3  A    between atoms: C_3  and  C_13
REMARK    4  A    between atoms: C_16  and  N_19
REMARK    5  A    between atoms: C_25  and  O_28
REMARK    6  A    between atoms: O_28  and  C_29
REMARK                            x       y       z     vdW  Elec       q    Type
REMARK                         _______ _______ _______ _____ _____    ______ ____
ROOT
ATOM      1  N   UNL     1     -17.158  37.052   5.196  0.00  0.00    +0.000 N 
ATOM      2  N   UNL     1     -14.983  36.048   5.053  0.00  0.00    +0.000 N 
ATOM      3  C   UNL     1     -16.292  37.918   6.032  0.00  0.00    +0.000 C 
ATOM      4  C   UNL     1     -16.329  35.870   4.799  0.00  0.00    +0.000 C 
ATOM      5  C   UNL     1     -14.992  37.295   5.771  0.00  0.00    +0.000 C 
ATOM      6  C   UNL     1     -18.465  36.664   5.722  0.00  0.00    +0.000 C 
ATOM      7  C   UNL     1     -16.923  34.583   4.649  0.00  0.00    +0.000 C 
ATOM      8  C   UNL     1     -19.555  35.603   5.952  0.00  0.00    +0.000 C 
ATOM      9  C   UNL     1     -18.142  33.680   4.900  0.00  0.00    +0.000 C 
ATOM     10  C   UNL     1     -19.445  34.135   5.551  0.00  0.00    +0.000 C 
ENDROOT
BRANCH   3  11
ATOM     11  C   UNL     1     -16.394  39.368   5.621  0.00  0.00    +0.000 A 
ATOM     12  C   UNL     1     -15.260  40.190   5.549  0.00  0.00    +0.000 A 
ATOM     13  C   UNL     1     -15.357  41.514   5.128  0.00  0.00    +0.000 A 
ATOM     14  C   UNL     1     -16.603  42.015   4.763  0.00  0.00    +0.000 A 
ATOM     15  C   UNL     1     -17.746  41.223   4.808  0.00  0.00    +0.000 A 
ATOM     16  C   UNL     1     -17.632  39.902   5.230  0.00  0.00    +0.000 A 
BRANCH  14  17
ATOM     17  N   UNL     1     -16.711  43.393   4.325  0.00  0.00    +0.000 N 
ATOM     18  O   UNL     1     -15.672  43.967   3.971  0.00  0.00    +0.000 OA
ATOM     19  O   UNL     1     -17.837  43.912   4.332  0.00  0.00    +0.000 OA
ENDBRANCH  14  17
ENDBRANCH   3  11
BRANCH   2  20
ATOM     20  C   UNL     1     -13.900  35.155   5.058  0.00  0.00    +0.000 A 
ATOM     21  C   UNL     1     -13.994  33.872   4.508  0.00  0.00    +0.000 A 
ATOM     22  C   UNL     1     -12.905  33.000   4.496  0.00  0.00    +0.000 A 
ATOM     23  C   UNL     1     -11.683  33.400   5.033  0.00  0.00    +0.000 A 
ATOM     24  C   UNL     1     -11.563  34.676   5.576  0.00  0.00    +0.000 A 
ATOM     25  C   UNL     1     -12.658  35.539   5.582  0.00  0.00    +0.000 A 
BRANCH  23  26
ATOM     26  O   UNL     1     -10.555  32.622   5.071  0.00  0.00    +0.000 OA
BRANCH  26  27
ATOM     27  C   UNL     1     -10.724  31.414   5.603  0.00  0.00    +0.000 C 
ATOM     28  C   UNL     1     -10.913  30.015   6.201  0.00  0.00    +0.000 C 
ENDBRANCH  26  27
ENDBRANCH  23  26
ENDBRANCH   2  20
BRANCH   3  29
ATOM     29  O   UNL     1     -16.559  37.799   7.423  0.00  0.00    +0.000 OA
ATOM     30  H   UNL     1     -15.735  37.460   7.811  0.00  0.00    +0.000 HD
ENDBRANCH   3  29
TORSDOF 6
ENDMDL
MODEL 8
REMARK VINA RESULT:      -5.8      5.244     11.290
REMARK  Name = 5109870_Ethoxyphenyl.pdbqt.pdb
REMARK  6 active torsions:
REMARK  status: ('A' for Active; 'I' for Inactive)
REMARK    1  A    between atoms: N_2  and  C_22
REMARK    2  A    between atoms: C_3  and  O_11
REMARK    3  A    between atoms: C_3  and  C_13
REMARK    4  A    between atoms: C_16  and  N_19
REMARK    5  A    between atoms: C_25  and  O_28
REMARK    6  A    between atoms: O_28  and  C_29
REMARK                            x       y       z     vdW  Elec       q    Type
REMARK                         _______ _______ _______ _____ _____    ______ ____
ROOT
ATOM      1  N   UNL     1     -11.668  51.451  25.500  0.00  0.00    +0.000 N 
ATOM      2  N   UNL     1     -10.085  49.656  25.331  0.00  0.00    +0.000 N 
ATOM      3  C   UNL     1     -12.047  50.736  24.257  0.00  0.00    +0.000 C 
ATOM      4  C   UNL     1     -10.385  50.840  25.974  0.00  0.00    +0.000 C 
ATOM      5  C   UNL     1     -11.113  49.610  24.324  0.00  0.00    +0.000 C 
ATOM      6  C   UNL     1     -11.612  52.912  25.470  0.00  0.00    +0.000 C 
ATOM      7  C   UNL     1      -9.400  51.637  26.627  0.00  0.00    +0.000 C 
ATOM      8  C   UNL     1     -10.919  54.233  25.843  0.00  0.00    +0.000 C 
ATOM      9  C   UNL     1      -8.889  53.045  26.971  0.00  0.00    +0.000 C 
ATOM     10  C   UNL     1      -9.594  54.344  26.591  0.00  0.00    +0.000 C 
ENDROOT
BRANCH   3  11
ATOM     11  C   UNL     1     -13.507  50.350  24.261  0.00  0.00    +0.000 A 
ATOM     12  C   UNL     1     -14.366  50.722  23.217  0.00  0.00    +0.000 A 
ATOM     13  C   UNL     1     -15.700  50.325  23.206  0.00  0.00    +0.000 A 
ATOM     14  C   UNL     1     -16.176  49.535  24.249  0.00  0.00    +0.000 A 
ATOM     15  C   UNL     1     -15.348  49.134  25.293  0.00  0.00    +0.000 A 
ATOM     16  C   UNL     1     -14.017  49.540  25.288  0.00  0.00    +0.000 A 
BRANCH  14  17
ATOM     17  N   UNL     1     -17.565  49.119  24.245  0.00  0.00    +0.000 N 
ATOM     18  O   UNL     1     -18.087  48.870  23.150  0.00  0.00    +0.000 OA
ATOM     19  O   UNL     1     -18.144  49.037  25.338  0.00  0.00    +0.000 OA
ENDBRANCH  14  17
ENDBRANCH   3  11
BRANCH   2  20
ATOM     20  C   UNL     1      -8.916  48.880  25.286  0.00  0.00    +0.000 A 
ATOM     21  C   UNL     1      -8.795  47.678  25.992  0.00  0.00    +0.000 A 
ATOM     22  C   UNL     1      -7.637  46.903  25.922  0.00  0.00    +0.000 A 
ATOM     23  C   UNL     1      -6.568  47.313  25.129  0.00  0.00    +0.000 A 
ATOM     24  C   UNL     1      -6.669  48.499  24.409  0.00  0.00    +0.000 A 
ATOM     25  C   UNL     1      -7.831  49.267  24.486  0.00  0.00    +0.000 A 
BRANCH  23  26
ATOM     26  O   UNL     1      -5.390  46.625  24.992  0.00  0.00    +0.000 OA
BRANCH  26  27
ATOM     27  C   UNL     1      -5.129  45.759  25.968  0.00  0.00    +0.000 C 
ATOM     28  C   UNL     1      -4.833  44.748  27.083  0.00  0.00    +0.000 C 
ENDBRANCH  26  27
ENDBRANCH  23  26
ENDBRANCH   2  20
BRANCH   3  29
ATOM     29  O   UNL     1     -11.754  51.473  23.077  0.00  0.00    +0.000 OA
ATOM     30  H   UNL     1     -10.946  51.972  23.284  0.00  0.00    +0.000 HD
ENDBRANCH   3  29
TORSDOF 6
ENDMDL
MODEL 9
REMARK VINA RESULT:      -5.6     17.147     19.918
REMARK  Name = 5109870_Ethoxyphenyl.pdbqt.pdb
REMARK  6 active torsions:
REMARK  status: ('A' for Active; 'I' for Inactive)
REMARK    1  A    between atoms: N_2  and  C_22
REMARK    2  A    between atoms: C_3  and  O_11
REMARK    3  A    between atoms: C_3  and  C_13
REMARK    4  A    between atoms: C_16  and  N_19
REMARK    5  A    between atoms: C_25  and  O_28
REMARK    6  A    between atoms: O_28  and  C_29
REMARK                            x       y       z     vdW  Elec       q    Type
REMARK                         _______ _______ _______ _____ _____    ______ ____
ROOT
ATOM      1  N   UNL     1       6.367  32.884  27.801  0.00  0.00    +0.000 N 
ATOM      2  N   UNL     1       7.467  32.517  25.700  0.00  0.00    +0.000 N 
ATOM      3  C   UNL     1       5.382  33.322  26.784  0.00  0.00    +0.000 C 
ATOM      4  C   UNL     1       7.639  32.587  27.069  0.00  0.00    +0.000 C 
ATOM      5  C   UNL     1       6.098  32.940  25.565  0.00  0.00    +0.000 C 
ATOM      6  C   UNL     1       6.583  33.737  28.969  0.00  0.00    +0.000 C 
ATOM      7  C   UNL     1       8.904  32.839  27.677  0.00  0.00    +0.000 C 
ATOM      8  C   UNL     1       7.527  34.405  29.983  0.00  0.00    +0.000 C 
ATOM      9  C   UNL     1       9.683  33.521  28.813  0.00  0.00    +0.000 C 
ATOM     10  C   UNL     1       9.049  34.312  29.953  0.00  0.00    +0.000 C 
ENDROOT
BRANCH   3  11
ATOM     11  C   UNL     1       4.046  32.642  26.974  0.00  0.00    +0.000 A 
ATOM     12  C   UNL     1       3.341  32.738  28.182  0.00  0.00    +0.000 A 
ATOM     13  C   UNL     1       2.091  32.145  28.335  0.00  0.00    +0.000 A 
ATOM     14  C   UNL     1       1.536  31.457  27.260  0.00  0.00    +0.000 A 
ATOM     15  C   UNL     1       2.201  31.355  26.042  0.00  0.00    +0.000 A 
ATOM     16  C   UNL     1       3.449  31.954  25.906  0.00  0.00    +0.000 A 
BRANCH  14  17
ATOM     17  N   UNL     1       0.235  30.835  27.412  0.00  0.00    +0.000 N 
ATOM     18  O   UNL     1      -0.432  31.137  28.412  0.00  0.00    +0.000 OA
ATOM     19  O   UNL     1      -0.130  30.041  26.534  0.00  0.00    +0.000 OA
ENDBRANCH  14  17
ENDBRANCH   3  11
BRANCH   2  20
ATOM     20  C   UNL     1       8.383  32.490  24.637  0.00  0.00    +0.000 A 
ATOM     21  C   UNL     1       8.729  33.644  23.926  0.00  0.00    +0.000 A 
ATOM     22  C   UNL     1       9.658  33.611  22.886  0.00  0.00    +0.000 A 
ATOM     23  C   UNL     1      10.273  32.412  22.536  0.00  0.00    +0.000 A 
ATOM     24  C   UNL     1       9.953  31.252  23.236  0.00  0.00    +0.000 A 
ATOM     25  C   UNL     1       9.023  31.297  24.275  0.00  0.00    +0.000 A 
BRANCH  23  26
ATOM     26  O   UNL     1      11.197  32.271  21.533  0.00  0.00    +0.000 OA
BRANCH  26  27
ATOM     27  C   UNL     1      11.094  31.147  20.829  0.00  0.00    +0.000 C 
ATOM     28  C   UNL     1      10.959  29.856  20.013  0.00  0.00    +0.000 C 
ENDBRANCH  26  27
ENDBRANCH  23  26
ENDBRANCH   2  20
BRANCH   3  29
ATOM     29  O   UNL     1       5.196  34.731  26.755  0.00  0.00    +0.000 OA
ATOM     30  H   UNL     1       4.714  34.940  27.571  0.00  0.00    +0.000 HD
ENDBRANCH   3  29
TORSDOF 6
ENDMDL
