MODEL 1
REMARK VINA RESULT:      -6.9      0.000      0.000
REMARK  Name = 5280445_Luteolin.pdbqt.pdb
REMARK  5 active torsions:
REMARK  status: ('A' for Active; 'I' for Inactive)
REMARK    1  A    between atoms: C_5  and  C_12
REMARK    2  A    between atoms: C_8  and  O_22
REMARK    3  A    between atoms: C_10  and  O_24
REMARK    4  A    between atoms: C_15  and  O_18
REMARK    5  A    between atoms: C_17  and  O_20
REMARK                            x       y       z     vdW  Elec       q    Type
REMARK                         _______ _______ _______ _____ _____    ______ ____
ROOT
ATOM      1  O   UNL     1      -5.701  48.992  26.029  0.00  0.00    +0.000 OA
ATOM      2  O   UNL     1      -3.840  45.327  25.887  0.00  0.00    +0.000 OA
ATOM      3  C   UNL     1      -3.646  47.653  26.450  0.00  0.00    +0.000 A 
ATOM      4  C   UNL     1      -4.377  48.867  26.457  0.00  0.00    +0.000 A 
ATOM      5  C   UNL     1      -6.370  47.856  25.557  0.00  0.00    +0.000 A 
ATOM      6  C   UNL     1      -4.327  46.441  25.957  0.00  0.00    +0.000 A 
ATOM      7  C   UNL     1      -5.649  46.785  25.577  0.00  0.00    +0.000 A 
ATOM      8  C   UNL     1      -2.326  47.615  26.897  0.00  0.00    +0.000 A 
ATOM      9  C   UNL     1      -3.769  50.031  26.915  0.00  0.00    +0.000 A 
ATOM     10  C   UNL     1      -2.449  49.978  27.358  0.00  0.00    +0.000 A 
ATOM     11  C   UNL     1      -1.724  48.784  27.353  0.00  0.00    +0.000 A 
ENDROOT
BRANCH   5  12
ATOM     12  C   UNL     1      -7.751  47.990  25.111  0.00  0.00    +0.000 A 
ATOM     13  C   UNL     1      -8.307  49.255  24.902  0.00  0.00    +0.000 A 
ATOM     14  C   UNL     1      -8.542  46.856  24.883  0.00  0.00    +0.000 A 
ATOM     15  C   UNL     1      -9.625  49.371  24.478  0.00  0.00    +0.000 A 
ATOM     16  C   UNL     1      -9.865  46.972  24.457  0.00  0.00    +0.000 A 
ATOM     17  C   UNL     1     -10.399  48.238  24.256  0.00  0.00    +0.000 A 
BRANCH  15  18
ATOM     18  O   UNL     1     -10.156  50.613  24.277  0.00  0.00    +0.000 OA
ATOM     19  H   UNL     1     -10.042  51.080  25.130  0.00  0.00    +0.000 HD
ENDBRANCH  15  18
BRANCH  17  20
ATOM     20  O   UNL     1     -11.691  48.405  23.838  0.00  0.00    +0.000 OA
ATOM     21  H   UNL     1     -12.252  47.806  24.364  0.00  0.00    +0.000 HD
ENDBRANCH  17  20
ENDBRANCH   5  12
BRANCH   8  22
ATOM     22  O   UNL     1      -1.570  46.475  26.913  0.00  0.00    +0.000 OA
ATOM     23  H   UNL     1      -1.920  45.840  26.250  0.00  0.00    +0.000 HD
ENDBRANCH   8  22
BRANCH  10  24
ATOM     24  O   UNL     1      -1.871  51.132  27.803  0.00  0.00    +0.000 OA
ATOM     25  H   UNL     1      -0.918  50.970  27.925  0.00  0.00    +0.000 HD
ENDBRANCH  10  24
TORSDOF 5
ENDMDL
MODEL 2
REMARK VINA RESULT:      -6.8     23.839     25.073
REMARK  Name = 5280445_Luteolin.pdbqt.pdb
REMARK  5 active torsions:
REMARK  status: ('A' for Active; 'I' for Inactive)
REMARK    1  A    between atoms: C_5  and  C_12
REMARK    2  A    between atoms: C_8  and  O_22
REMARK    3  A    between atoms: C_10  and  O_24
REMARK    4  A    between atoms: C_15  and  O_18
REMARK    5  A    between atoms: C_17  and  O_20
REMARK                            x       y       z     vdW  Elec       q    Type
REMARK                         _______ _______ _______ _____ _____    ______ ____
ROOT
ATOM      1  O   UNL     1     -18.490  39.931   5.973  0.00  0.00    +0.000 OA
ATOM      2  O   UNL     1     -14.402  40.244   5.644  0.00  0.00    +0.000 OA
ATOM      3  C   UNL     1     -16.522  41.345   5.404  0.00  0.00    +0.000 A 
ATOM      4  C   UNL     1     -17.916  41.133   5.550  0.00  0.00    +0.000 A 
ATOM      5  C   UNL     1     -17.652  38.851   6.277  0.00  0.00    +0.000 A 
ATOM      6  C   UNL     1     -15.617  40.223   5.718  0.00  0.00    +0.000 A 
ATOM      7  C   UNL     1     -16.396  39.110   6.124  0.00  0.00    +0.000 A 
ATOM      8  C   UNL     1     -16.031  42.578   4.977  0.00  0.00    +0.000 A 
ATOM      9  C   UNL     1     -18.801  42.167   5.264  0.00  0.00    +0.000 A 
ATOM     10  C   UNL     1     -18.295  43.393   4.837  0.00  0.00    +0.000 A 
ATOM     11  C   UNL     1     -16.923  43.607   4.692  0.00  0.00    +0.000 A 
ENDROOT
BRANCH   5  12
ATOM     12  C   UNL     1     -18.253  37.599   6.718  0.00  0.00    +0.000 A 
ATOM     13  C   UNL     1     -19.605  37.550   7.072  0.00  0.00    +0.000 A 
ATOM     14  C   UNL     1     -17.490  36.426   6.795  0.00  0.00    +0.000 A 
ATOM     15  C   UNL     1     -20.168  36.351   7.492  0.00  0.00    +0.000 A 
ATOM     16  C   UNL     1     -18.055  35.222   7.216  0.00  0.00    +0.000 A 
ATOM     17  C   UNL     1     -19.399  35.195   7.563  0.00  0.00    +0.000 A 
BRANCH  15  18
ATOM     18  O   UNL     1     -21.489  36.317   7.835  0.00  0.00    +0.000 OA
ATOM     19  H   UNL     1     -21.532  36.715   8.728  0.00  0.00    +0.000 HD
ENDBRANCH  15  18
BRANCH  17  20
ATOM     20  O   UNL     1     -20.001  34.040   7.983  0.00  0.00    +0.000 OA
ATOM     21  H   UNL     1     -20.562  33.717   7.254  0.00  0.00    +0.000 HD
ENDBRANCH  17  20
ENDBRANCH   5  12
BRANCH   8  22
ATOM     22  O   UNL     1     -14.699  42.842   4.816  0.00  0.00    +0.000 OA
ATOM     23  H   UNL     1     -14.188  42.394   5.525  0.00  0.00    +0.000 HD
ENDBRANCH   8  22
BRANCH  10  24
ATOM     24  O   UNL     1     -19.182  44.394   4.561  0.00  0.00    +0.000 OA
ATOM     25  H   UNL     1     -19.310  44.921   5.370  0.00  0.00    +0.000 HD
ENDBRANCH  10  24
TORSDOF 5
ENDMDL
MODEL 3
REMARK VINA RESULT:      -6.2     23.880     25.430
REMARK  Name = 5280445_Luteolin.pdbqt.pdb
REMARK  5 active torsions:
REMARK  status: ('A' for Active; 'I' for Inactive)
REMARK    1  A    between atoms: C_5  and  C_12
REMARK    2  A    between atoms: C_8  and  O_22
REMARK    3  A    between atoms: C_10  and  O_24
REMARK    4  A    between atoms: C_15  and  O_18
REMARK    5  A    between atoms: C_17  and  O_20
REMARK                            x       y       z     vdW  Elec       q    Type
REMARK                         _______ _______ _______ _____ _____    ______ ____
ROOT
ATOM      1  O   UNL     1     -18.572  39.000   6.373  0.00  0.00    +0.000 OA
ATOM      2  O   UNL     1     -15.913  35.880   6.040  0.00  0.00    +0.000 OA
ATOM      3  C   UNL     1     -18.134  36.565   6.643  0.00  0.00    +0.000 A 
ATOM      4  C   UNL     1     -18.970  37.707   6.721  0.00  0.00    +0.000 A 
ATOM      5  C   UNL     1     -17.265  39.206   5.915  0.00  0.00    +0.000 A 
ATOM      6  C   UNL     1     -16.751  36.754   6.164  0.00  0.00    +0.000 A 
ATOM      7  C   UNL     1     -16.557  38.128   5.868  0.00  0.00    +0.000 A 
ATOM      8  C   UNL     1     -18.611  35.308   7.009  0.00  0.00    +0.000 A 
ATOM      9  C   UNL     1     -20.280  37.568   7.168  0.00  0.00    +0.000 A 
ATOM     10  C   UNL     1     -20.742  36.305   7.531  0.00  0.00    +0.000 A 
ATOM     11  C   UNL     1     -19.922  35.178   7.456  0.00  0.00    +0.000 A 
ENDROOT
BRANCH   5  12
ATOM     12  C   UNL     1     -16.853  40.556   5.553  0.00  0.00    +0.000 A 
ATOM     13  C   UNL     1     -17.803  41.573   5.419  0.00  0.00    +0.000 A 
ATOM     14  C   UNL     1     -15.502  40.858   5.333  0.00  0.00    +0.000 A 
ATOM     15  C   UNL     1     -17.399  42.857   5.073  0.00  0.00    +0.000 A 
ATOM     16  C   UNL     1     -15.097  42.146   4.985  0.00  0.00    +0.000 A 
ATOM     17  C   UNL     1     -16.056  43.142   4.858  0.00  0.00    +0.000 A 
BRANCH  15  18
ATOM     18  O   UNL     1     -18.337  43.841   4.946  0.00  0.00    +0.000 OA
ATOM     19  H   UNL     1     -17.827  44.659   4.777  0.00  0.00    +0.000 HD
ENDBRANCH  15  18
BRANCH  17  20
ATOM     20  O   UNL     1     -15.710  44.422   4.519  0.00  0.00    +0.000 OA
ATOM     21  H   UNL     1     -16.218  44.665   3.724  0.00  0.00    +0.000 HD
ENDBRANCH  17  20
ENDBRANCH   5  12
BRANCH   8  22
ATOM     22  O   UNL     1     -17.852  34.171   6.956  0.00  0.00    +0.000 OA
ATOM     23  H   UNL     1     -17.041  34.342   6.430  0.00  0.00    +0.000 HD
ENDBRANCH   8  22
BRANCH  10  24
ATOM     24  O   UNL     1     -22.031  36.192   7.968  0.00  0.00    +0.000 OA
ATOM     25  H   UNL     1     -22.087  35.418   8.556  0.00  0.00    +0.000 HD
ENDBRANCH  10  24
TORSDOF 5
ENDMDL
MODEL 4
REMARK VINA RESULT:      -6.0      1.839      2.161
REMARK  Name = 5280445_Luteolin.pdbqt.pdb
REMARK  5 active torsions:
REMARK  status: ('A' for Active; 'I' for Inactive)
REMARK    1  A    between atoms: C_5  and  C_12
REMARK    2  A    between atoms: C_8  and  O_22
REMARK    3  A    between atoms: C_10  and  O_24
REMARK    4  A    between atoms: C_15  and  O_18
REMARK    5  A    between atoms: C_17  and  O_20
REMARK                            x       y       z     vdW  Elec       q    Type
REMARK                         _______ _______ _______ _____ _____    ______ ____
ROOT
ATOM      1  O   UNL     1      -6.239  47.938  27.445  0.00  0.00    +0.000 OA
ATOM      2  O   UNL     1      -3.465  45.645  25.453  0.00  0.00    +0.000 OA
ATOM      3  C   UNL     1      -3.963  46.932  27.419  0.00  0.00    +0.000 A 
ATOM      4  C   UNL     1      -4.987  47.706  28.020  0.00  0.00    +0.000 A 
ATOM      5  C   UNL     1      -6.523  47.381  26.192  0.00  0.00    +0.000 A 
ATOM      6  C   UNL     1      -4.236  46.333  26.098  0.00  0.00    +0.000 A 
ATOM      7  C   UNL     1      -5.550  46.689  25.701  0.00  0.00    +0.000 A 
ATOM      8  C   UNL     1      -2.740  46.748  28.062  0.00  0.00    +0.000 A 
ATOM      9  C   UNL     1      -4.767  48.286  29.264  0.00  0.00    +0.000 A 
ATOM     10  C   UNL     1      -3.539  48.094  29.895  0.00  0.00    +0.000 A 
ATOM     11  C   UNL     1      -2.527  47.333  29.307  0.00  0.00    +0.000 A 
ENDROOT
BRANCH   5  12
ATOM     12  C   UNL     1      -7.829  47.625  25.595  0.00  0.00    +0.000 A 
ATOM     13  C   UNL     1      -8.987  47.128  26.200  0.00  0.00    +0.000 A 
ATOM     14  C   UNL     1      -7.948  48.361  24.408  0.00  0.00    +0.000 A 
ATOM     15  C   UNL     1     -10.228  47.365  25.623  0.00  0.00    +0.000 A 
ATOM     16  C   UNL     1      -9.194  48.600  23.828  0.00  0.00    +0.000 A 
ATOM     17  C   UNL     1     -10.332  48.097  24.445  0.00  0.00    +0.000 A 
BRANCH  15  18
ATOM     18  O   UNL     1     -11.351  46.874  26.224  0.00  0.00    +0.000 OA
ATOM     19  H   UNL     1     -11.456  45.969  25.869  0.00  0.00    +0.000 HD
ENDBRANCH  15  18
BRANCH  17  20
ATOM     20  O   UNL     1     -11.577  48.304  23.916  0.00  0.00    +0.000 OA
ATOM     21  H   UNL     1     -11.836  47.492  23.444  0.00  0.00    +0.000 HD
ENDBRANCH  17  20
ENDBRANCH   5  12
BRANCH   8  22
ATOM     22  O   UNL     1      -1.715  46.014  27.533  0.00  0.00    +0.000 OA
ATOM     23  H   UNL     1      -1.170  46.584  26.947  0.00  0.00    +0.000 HD
ENDBRANCH   8  22
BRANCH  10  24
ATOM     24  O   UNL     1      -3.344  48.674  31.116  0.00  0.00    +0.000 OA
ATOM     25  H   UNL     1      -2.424  48.508  31.388  0.00  0.00    +0.000 HD
ENDBRANCH  10  24
TORSDOF 5
ENDMDL
MODEL 5
REMARK VINA RESULT:      -5.6      2.795      7.905
REMARK  Name = 5280445_Luteolin.pdbqt.pdb
REMARK  5 active torsions:
REMARK  status: ('A' for Active; 'I' for Inactive)
REMARK    1  A    between atoms: C_5  and  C_12
REMARK    2  A    between atoms: C_8  and  O_22
REMARK    3  A    between atoms: C_10  and  O_24
REMARK    4  A    between atoms: C_15  and  O_18
REMARK    5  A    between atoms: C_17  and  O_20
REMARK                            x       y       z     vdW  Elec       q    Type
REMARK                         _______ _______ _______ _____ _____    ______ ____
ROOT
ATOM      1  O   UNL     1      -2.372  47.786  26.781  0.00  0.00    +0.000 OA
ATOM      2  O   UNL     1      -5.917  49.870  26.835  0.00  0.00    +0.000 OA
ATOM      3  C   UNL     1      -4.844  47.750  26.492  0.00  0.00    +0.000 A 
ATOM      4  C   UNL     1      -3.572  47.126  26.499  0.00  0.00    +0.000 A 
ATOM      5  C   UNL     1      -2.406  49.154  27.077  0.00  0.00    +0.000 A 
ATOM      6  C   UNL     1      -4.907  49.191  26.801  0.00  0.00    +0.000 A 
ATOM      7  C   UNL     1      -3.593  49.660  27.054  0.00  0.00    +0.000 A 
ATOM      8  C   UNL     1      -5.994  47.017  26.201  0.00  0.00    +0.000 A 
ATOM      9  C   UNL     1      -3.472  45.769  26.213  0.00  0.00    +0.000 A 
ATOM     10  C   UNL     1      -4.630  45.050  25.924  0.00  0.00    +0.000 A 
ATOM     11  C   UNL     1      -5.885  45.660  25.915  0.00  0.00    +0.000 A 
ENDROOT
BRANCH   5  12
ATOM     12  C   UNL     1      -1.153  49.839  27.371  0.00  0.00    +0.000 A 
ATOM     13  C   UNL     1      -0.214  49.258  28.228  0.00  0.00    +0.000 A 
ATOM     14  C   UNL     1      -0.869  51.087  26.800  0.00  0.00    +0.000 A 
ATOM     15  C   UNL     1       0.977  49.920  28.501  0.00  0.00    +0.000 A 
ATOM     16  C   UNL     1       0.326  51.752  27.075  0.00  0.00    +0.000 A 
ATOM     17  C   UNL     1       1.246  51.158  27.929  0.00  0.00    +0.000 A 
BRANCH  15  18
ATOM     18  O   UNL     1       1.886  49.341  29.340  0.00  0.00    +0.000 OA
ATOM     19  H   UNL     1       2.596  49.008  28.755  0.00  0.00    +0.000 HD
ENDBRANCH  15  18
BRANCH  17  20
ATOM     20  O   UNL     1       2.433  51.768  28.230  0.00  0.00    +0.000 OA
ATOM     21  H   UNL     1       3.132  51.324  27.717  0.00  0.00    +0.000 HD
ENDBRANCH  17  20
ENDBRANCH   5  12
BRANCH   8  22
ATOM     22  O   UNL     1      -7.247  47.564  26.178  0.00  0.00    +0.000 OA
ATOM     23  H   UNL     1      -7.295  48.303  26.823  0.00  0.00    +0.000 HD
ENDBRANCH   8  22
BRANCH  10  24
ATOM     24  O   UNL     1      -4.509  43.718  25.645  0.00  0.00    +0.000 OA
ATOM     25  H   UNL     1      -4.888  43.215  26.388  0.00  0.00    +0.000 HD
ENDBRANCH  10  24
TORSDOF 5
ENDMDL
MODEL 6
REMARK VINA RESULT:      -5.6     13.359     15.599
REMARK  Name = 5280445_Luteolin.pdbqt.pdb
REMARK  5 active torsions:
REMARK  status: ('A' for Active; 'I' for Inactive)
REMARK    1  A    between atoms: C_5  and  C_12
REMARK    2  A    between atoms: C_8  and  O_22
REMARK    3  A    between atoms: C_10  and  O_24
REMARK    4  A    between atoms: C_15  and  O_18
REMARK    5  A    between atoms: C_17  and  O_20
REMARK                            x       y       z     vdW  Elec       q    Type
REMARK                         _______ _______ _______ _____ _____    ______ ____
ROOT
ATOM      1  O   UNL     1       3.453  56.740  16.894  0.00  0.00    +0.000 OA
ATOM      2  O   UNL     1       2.638  52.777  16.152  0.00  0.00    +0.000 OA
ATOM      3  C   UNL     1       3.151  54.928  15.215  0.00  0.00    +0.000 A 
ATOM      4  C   UNL     1       3.420  56.271  15.578  0.00  0.00    +0.000 A 
ATOM      5  C   UNL     1       3.204  55.842  17.938  0.00  0.00    +0.000 A 
ATOM      6  C   UNL     1       2.885  53.961  16.297  0.00  0.00    +0.000 A 
ATOM      7  C   UNL     1       2.966  54.637  17.540  0.00  0.00    +0.000 A 
ATOM      8  C   UNL     1       3.139  54.542  13.875  0.00  0.00    +0.000 A 
ATOM      9  C   UNL     1       3.676  57.211  14.586  0.00  0.00    +0.000 A 
ATOM     10  C   UNL     1       3.661  56.811  13.251  0.00  0.00    +0.000 A 
ATOM     11  C   UNL     1       3.395  55.489  12.888  0.00  0.00    +0.000 A 
ENDROOT
BRANCH   5  12
ATOM     12  C   UNL     1       3.238  56.334  19.310  0.00  0.00    +0.000 A 
ATOM     13  C   UNL     1       2.049  56.562  20.009  0.00  0.00    +0.000 A 
ATOM     14  C   UNL     1       4.459  56.587  19.949  0.00  0.00    +0.000 A 
ATOM     15  C   UNL     1       2.093  57.032  21.316  0.00  0.00    +0.000 A 
ATOM     16  C   UNL     1       4.504  57.059  21.261  0.00  0.00    +0.000 A 
ATOM     17  C   UNL     1       3.312  57.278  21.939  0.00  0.00    +0.000 A 
BRANCH  15  18
ATOM     18  O   UNL     1       0.925  57.249  21.988  0.00  0.00    +0.000 OA
ATOM     19  H   UNL     1       0.243  57.336  21.292  0.00  0.00    +0.000 HD
ENDBRANCH  15  18
BRANCH  17  20
ATOM     20  O   UNL     1       3.301  57.740  23.226  0.00  0.00    +0.000 OA
ATOM     21  H   UNL     1       4.022  57.293  23.707  0.00  0.00    +0.000 HD
ENDBRANCH  17  20
ENDBRANCH   5  12
BRANCH   8  22
ATOM     22  O   UNL     1       2.885  53.263  13.464  0.00  0.00    +0.000 OA
ATOM     23  H   UNL     1       1.984  53.215  13.076  0.00  0.00    +0.000 HD
ENDBRANCH   8  22
BRANCH  10  24
ATOM     24  O   UNL     1       3.913  57.751  12.293  0.00  0.00    +0.000 OA
ATOM     25  H   UNL     1       3.233  57.671  11.600  0.00  0.00    +0.000 HD
ENDBRANCH  10  24
TORSDOF 5
ENDMDL
MODEL 7
REMARK VINA RESULT:      -5.4     17.549     20.991
REMARK  Name = 5280445_Luteolin.pdbqt.pdb
REMARK  5 active torsions:
REMARK  status: ('A' for Active; 'I' for Inactive)
REMARK    1  A    between atoms: C_5  and  C_12
REMARK    2  A    between atoms: C_8  and  O_22
REMARK    3  A    between atoms: C_10  and  O_24
REMARK    4  A    between atoms: C_15  and  O_18
REMARK    5  A    between atoms: C_17  and  O_20
REMARK                            x       y       z     vdW  Elec       q    Type
REMARK                         _______ _______ _______ _____ _____    ______ ____
ROOT
ATOM      1  O   UNL     1     -16.798  54.166   9.363  0.00  0.00    +0.000 OA
ATOM      2  O   UNL     1     -14.951  50.654  10.445  0.00  0.00    +0.000 OA
ATOM      3  C   UNL     1     -16.322  52.496  11.146  0.00  0.00    +0.000 A 
ATOM      4  C   UNL     1     -16.917  53.692  10.672  0.00  0.00    +0.000 A 
ATOM      5  C   UNL     1     -16.045  53.428   8.442  0.00  0.00    +0.000 A 
ATOM      6  C   UNL     1     -15.523  51.699  10.195  0.00  0.00    +0.000 A 
ATOM      7  C   UNL     1     -15.532  52.351   8.936  0.00  0.00    +0.000 A 
ATOM      8  C   UNL     1     -16.492  52.093  12.470  0.00  0.00    +0.000 A 
ATOM      9  C   UNL     1     -17.677  54.470  11.538  0.00  0.00    +0.000 A 
ATOM     10  C   UNL     1     -17.838  54.055  12.859  0.00  0.00    +0.000 A 
ATOM     11  C   UNL     1     -17.253  52.878  13.331  0.00  0.00    +0.000 A 
ENDROOT
BRANCH   5  12
ATOM     12  C   UNL     1     -15.923  53.925   7.077  0.00  0.00    +0.000 A 
ATOM     13  C   UNL     1     -16.541  53.250   6.021  0.00  0.00    +0.000 A 
ATOM     14  C   UNL     1     -15.186  55.084   6.801  0.00  0.00    +0.000 A 
ATOM     15  C   UNL     1     -16.418  53.731   4.724  0.00  0.00    +0.000 A 
ATOM     16  C   UNL     1     -15.062  55.569   5.498  0.00  0.00    +0.000 A 
ATOM     17  C   UNL     1     -15.684  54.883   4.463  0.00  0.00    +0.000 A 
BRANCH  15  18
ATOM     18  O   UNL     1     -17.027  53.062   3.701  0.00  0.00    +0.000 OA
ATOM     19  H   UNL     1     -16.326  52.505   3.307  0.00  0.00    +0.000 HD
ENDBRANCH  15  18
BRANCH  17  20
ATOM     20  O   UNL     1     -15.593  55.317   3.169  0.00  0.00    +0.000 OA
ATOM     21  H   UNL     1     -15.312  56.249   3.188  0.00  0.00    +0.000 HD
ENDBRANCH  17  20
ENDBRANCH   5  12
BRANCH   8  22
ATOM     22  O   UNL     1     -15.943  50.952  12.984  0.00  0.00    +0.000 OA
ATOM     23  H   UNL     1     -14.991  50.909  12.747  0.00  0.00    +0.000 HD
ENDBRANCH   8  22
BRANCH  10  24
ATOM     24  O   UNL     1     -18.587  54.834  13.693  0.00  0.00    +0.000 OA
ATOM     25  H   UNL     1     -18.298  55.758  13.589  0.00  0.00    +0.000 HD
ENDBRANCH  10  24
TORSDOF 5
ENDMDL
MODEL 8
REMARK VINA RESULT:      -5.4     14.333     16.697
REMARK  Name = 5280445_Luteolin.pdbqt.pdb
REMARK  5 active torsions:
REMARK  status: ('A' for Active; 'I' for Inactive)
REMARK    1  A    between atoms: C_5  and  C_12
REMARK    2  A    between atoms: C_8  and  O_22
REMARK    3  A    between atoms: C_10  and  O_24
REMARK    4  A    between atoms: C_15  and  O_18
REMARK    5  A    between atoms: C_17  and  O_20
REMARK                            x       y       z     vdW  Elec       q    Type
REMARK                         _______ _______ _______ _____ _____    ______ ____
ROOT
ATOM      1  O   UNL     1       4.894  56.370  16.614  0.00  0.00    +0.000 OA
ATOM      2  O   UNL     1       2.668  52.934  16.217  0.00  0.00    +0.000 OA
ATOM      3  C   UNL     1       3.783  54.740  15.096  0.00  0.00    +0.000 A 
ATOM      4  C   UNL     1       4.544  55.910  15.341  0.00  0.00    +0.000 A 
ATOM      5  C   UNL     1       4.473  55.644  17.735  0.00  0.00    +0.000 A 
ATOM      6  C   UNL     1       3.327  53.957  16.259  0.00  0.00    +0.000 A 
ATOM      7  C   UNL     1       3.785  54.591  17.442  0.00  0.00    +0.000 A 
ATOM      8  C   UNL     1       3.479  54.350  13.792  0.00  0.00    +0.000 A 
ATOM      9  C   UNL     1       4.992  56.675  14.269  0.00  0.00    +0.000 A 
ATOM     10  C   UNL     1       4.680  56.272  12.972  0.00  0.00    +0.000 A 
ATOM     11  C   UNL     1       3.930  55.122  12.725  0.00  0.00    +0.000 A 
ENDROOT
BRANCH   5  12
ATOM     12  C   UNL     1       4.839  56.126  19.060  0.00  0.00    +0.000 A 
ATOM     13  C   UNL     1       6.176  56.123  19.470  0.00  0.00    +0.000 A 
ATOM     14  C   UNL     1       3.861  56.599  19.945  0.00  0.00    +0.000 A 
ATOM     15  C   UNL     1       6.514  56.584  20.736  0.00  0.00    +0.000 A 
ATOM     16  C   UNL     1       4.200  57.062  21.217  0.00  0.00    +0.000 A 
ATOM     17  C   UNL     1       5.533  57.052  21.604  0.00  0.00    +0.000 A 
BRANCH  15  18
ATOM     18  O   UNL     1       7.823  56.577  21.123  0.00  0.00    +0.000 OA
ATOM     19  H   UNL     1       8.098  55.639  21.074  0.00  0.00    +0.000 HD
ENDBRANCH  15  18
BRANCH  17  20
ATOM     20  O   UNL     1       5.918  57.495  22.840  0.00  0.00    +0.000 OA
ATOM     21  H   UNL     1       6.538  56.840  23.209  0.00  0.00    +0.000 HD
ENDBRANCH  17  20
ENDBRANCH   5  12
BRANCH   8  22
ATOM     22  O   UNL     1       2.748  53.234  13.493  0.00  0.00    +0.000 OA
ATOM     23  H   UNL     1       2.843  53.025  12.538  0.00  0.00    +0.000 HD
ENDBRANCH   8  22
BRANCH  10  24
ATOM     24  O   UNL     1       5.129  57.038  11.935  0.00  0.00    +0.000 OA
ATOM     25  H   UNL     1       5.385  56.445  11.206  0.00  0.00    +0.000 HD
ENDBRANCH  10  24
TORSDOF 5
ENDMDL
MODEL 9
REMARK VINA RESULT:      -5.3     12.432     14.462
REMARK  Name = 5280445_Luteolin.pdbqt.pdb
REMARK  5 active torsions:
REMARK  status: ('A' for Active; 'I' for Inactive)
REMARK    1  A    between atoms: C_5  and  C_12
REMARK    2  A    between atoms: C_8  and  O_22
REMARK    3  A    between atoms: C_10  and  O_24
REMARK    4  A    between atoms: C_15  and  O_18
REMARK    5  A    between atoms: C_17  and  O_20
REMARK                            x       y       z     vdW  Elec       q    Type
REMARK                         _______ _______ _______ _____ _____    ______ ____
ROOT
ATOM      1  O   UNL     1       2.376  55.725  17.535  0.00  0.00    +0.000 OA
ATOM      2  O   UNL     1       6.216  55.355  18.963  0.00  0.00    +0.000 OA
ATOM      3  C   UNL     1       4.704  54.935  17.145  0.00  0.00    +0.000 A 
ATOM      4  C   UNL     1       3.355  55.112  16.748  0.00  0.00    +0.000 A 
ATOM      5  C   UNL     1       2.729  56.203  18.803  0.00  0.00    +0.000 A 
ATOM      6  C   UNL     1       5.102  55.430  18.477  0.00  0.00    +0.000 A 
ATOM      7  C   UNL     1       3.970  56.011  19.103  0.00  0.00    +0.000 A 
ATOM      8  C   UNL     1       5.620  54.313  16.297  0.00  0.00    +0.000 A 
ATOM      9  C   UNL     1       2.943  54.659  15.500  0.00  0.00    +0.000 A 
ATOM     10  C   UNL     1       3.869  54.038  14.663  0.00  0.00    +0.000 A 
ATOM     11  C   UNL     1       5.199  53.862  15.050  0.00  0.00    +0.000 A 
ENDROOT
BRANCH   5  12
ATOM     12  C   UNL     1       1.706  56.841  19.621  0.00  0.00    +0.000 A 
ATOM     13  C   UNL     1       0.952  56.089  20.527  0.00  0.00    +0.000 A 
ATOM     14  C   UNL     1       1.461  58.217  19.515  0.00  0.00    +0.000 A 
ATOM     15  C   UNL     1      -0.021  56.708  21.301  0.00  0.00    +0.000 A 
ATOM     16  C   UNL     1       0.483  58.839  20.293  0.00  0.00    +0.000 A 
ATOM     17  C   UNL     1      -0.254  58.074  21.186  0.00  0.00    +0.000 A 
BRANCH  15  18
ATOM     18  O   UNL     1      -0.749  55.961  22.182  0.00  0.00    +0.000 OA
ATOM     19  H   UNL     1      -1.643  55.902  21.789  0.00  0.00    +0.000 HD
ENDBRANCH  15  18
BRANCH  17  20
ATOM     20  O   UNL     1      -1.223  58.636  21.971  0.00  0.00    +0.000 OA
ATOM     21  H   UNL     1      -0.975  58.484  22.901  0.00  0.00    +0.000 HD
ENDBRANCH  17  20
ENDBRANCH   5  12
BRANCH   8  22
ATOM     22  O   UNL     1       6.932  54.113  16.625  0.00  0.00    +0.000 OA
ATOM     23  H   UNL     1       7.181  53.183  16.433  0.00  0.00    +0.000 HD
ENDBRANCH   8  22
BRANCH  10  24
ATOM     24  O   UNL     1       3.442  53.601  13.442  0.00  0.00    +0.000 OA
ATOM     25  H   UNL     1       2.752  54.210  13.124  0.00  0.00    +0.000 HD
ENDBRANCH  10  24
TORSDOF 5
ENDMDL
