MODEL 1
REMARK VINA RESULT:      -5.5      0.000      0.000
REMARK  Name = 5281416_Esculetin.pdbqt.pdb
REMARK  2 active torsions:
REMARK  status: ('A' for Active; 'I' for Inactive)
REMARK    1  A    between atoms: C_7  and  O_12
REMARK    2  A    between atoms: C_8  and  O_14
REMARK                            x       y       z     vdW  Elec       q    Type
REMARK                         _______ _______ _______ _____ _____    ______ ____
ROOT
ATOM      1  O   UNL     1      -7.650  46.322  25.237  0.00  0.00    +0.000 OA
ATOM      2  O   UNL     1      -5.557  45.491  25.897  0.00  0.00    +0.000 OA
ATOM      3  C   UNL     1      -7.801  48.788  24.894  0.00  0.00    +0.000 A 
ATOM      4  C   UNL     1      -8.411  47.502  24.889  0.00  0.00    +0.000 A 
ATOM      5  C   UNL     1      -8.524  49.922  24.562  0.00  0.00    +0.000 A 
ATOM      6  C   UNL     1      -9.747  47.336  24.552  0.00  0.00    +0.000 A 
ATOM      7  C   UNL     1      -9.865  49.752  24.225  0.00  0.00    +0.000 A 
ATOM      8  C   UNL     1     -10.463  48.482  24.221  0.00  0.00    +0.000 A 
ATOM      9  C   UNL     1      -6.433  48.777  25.261  0.00  0.00    +0.000 A 
ATOM     10  C   UNL     1      -5.823  47.791  25.545  0.00  0.00    +0.000 A 
ATOM     11  C   UNL     1      -6.276  46.428  25.591  0.00  0.00    +0.000 A 
ENDROOT
BRANCH   7  12
ATOM     12  O   UNL     1     -10.647  50.824  23.885  0.00  0.00    +0.000 OA
ATOM     13  H   UNL     1     -10.451  51.547  24.509  0.00  0.00    +0.000 HD
ENDBRANCH   7  12
BRANCH   8  14
ATOM     14  O   UNL     1     -11.782  48.361  23.883  0.00  0.00    +0.000 OA
ATOM     15  H   UNL     1     -12.201  49.196  24.176  0.00  0.00    +0.000 HD
ENDBRANCH   8  14
TORSDOF 2
ENDMDL
MODEL 2
REMARK VINA RESULT:      -5.5     21.800     22.165
REMARK  Name = 5281416_Esculetin.pdbqt.pdb
REMARK  2 active torsions:
REMARK  status: ('A' for Active; 'I' for Inactive)
REMARK    1  A    between atoms: C_7  and  O_12
REMARK    2  A    between atoms: C_8  and  O_14
REMARK                            x       y       z     vdW  Elec       q    Type
REMARK                         _______ _______ _______ _____ _____    ______ ____
ROOT
ATOM      1  O   UNL     1     -17.613  39.061   6.281  0.00  0.00    +0.000 OA
ATOM      2  O   UNL     1     -17.058  36.826   6.730  0.00  0.00    +0.000 OA
ATOM      3  C   UNL     1     -15.724  40.566   5.662  0.00  0.00    +0.000 A 
ATOM      4  C   UNL     1     -17.111  40.364   5.903  0.00  0.00    +0.000 A 
ATOM      5  C   UNL     1     -15.236  41.812   5.300  0.00  0.00    +0.000 A 
ATOM      6  C   UNL     1     -18.025  41.402   5.787  0.00  0.00    +0.000 A 
ATOM      7  C   UNL     1     -16.156  42.851   5.184  0.00  0.00    +0.000 A 
ATOM      8  C   UNL     1     -17.524  42.648   5.423  0.00  0.00    +0.000 A 
ATOM      9  C   UNL     1     -14.934  39.402   5.826  0.00  0.00    +0.000 A 
ATOM     10  C   UNL     1     -15.368  38.335   6.138  0.00  0.00    +0.000 A 
ATOM     11  C   UNL     1     -16.726  37.958   6.417  0.00  0.00    +0.000 A 
ENDROOT
BRANCH   7  12
ATOM     12  O   UNL     1     -15.752  44.112   4.830  0.00  0.00    +0.000 OA
ATOM     13  H   UNL     1     -14.778  44.135   4.867  0.00  0.00    +0.000 HD
ENDBRANCH   7  12
BRANCH   8  14
ATOM     14  O   UNL     1     -18.392  43.697   5.297  0.00  0.00    +0.000 OA
ATOM     15  H   UNL     1     -19.262  43.348   5.578  0.00  0.00    +0.000 HD
ENDBRANCH   8  14
TORSDOF 2
ENDMDL
MODEL 3
REMARK VINA RESULT:      -5.4      1.338      2.367
REMARK  Name = 5281416_Esculetin.pdbqt.pdb
REMARK  2 active torsions:
REMARK  status: ('A' for Active; 'I' for Inactive)
REMARK    1  A    between atoms: C_7  and  O_12
REMARK    2  A    between atoms: C_8  and  O_14
REMARK                            x       y       z     vdW  Elec       q    Type
REMARK                         _______ _______ _______ _____ _____    ______ ____
ROOT
ATOM      1  O   UNL     1      -5.916  48.682  25.500  0.00  0.00    +0.000 OA
ATOM      2  O   UNL     1      -3.973  47.755  26.434  0.00  0.00    +0.000 OA
ATOM      3  C   UNL     1      -7.849  47.133  25.209  0.00  0.00    +0.000 A 
ATOM      4  C   UNL     1      -7.277  48.429  25.079  0.00  0.00    +0.000 A 
ATOM      5  C   UNL     1      -9.151  46.884  24.807  0.00  0.00    +0.000 A 
ATOM      6  C   UNL     1      -7.998  49.488  24.548  0.00  0.00    +0.000 A 
ATOM      7  C   UNL     1      -9.872  47.949  24.274  0.00  0.00    +0.000 A 
ATOM      8  C   UNL     1      -9.305  49.227  24.148  0.00  0.00    +0.000 A 
ATOM      9  C   UNL     1      -6.975  46.170  25.770  0.00  0.00    +0.000 A 
ATOM     10  C   UNL     1      -5.854  46.399  26.111  0.00  0.00    +0.000 A 
ATOM     11  C   UNL     1      -5.126  47.636  26.053  0.00  0.00    +0.000 A 
ENDROOT
BRANCH   7  12
ATOM     12  O   UNL     1     -11.166  47.784  23.855  0.00  0.00    +0.000 OA
ATOM     13  H   UNL     1     -11.162  47.146  23.117  0.00  0.00    +0.000 HD
ENDBRANCH   7  12
BRANCH   8  14
ATOM     14  O   UNL     1     -10.050  50.244  23.619  0.00  0.00    +0.000 OA
ATOM     15  H   UNL     1      -9.827  50.260  22.666  0.00  0.00    +0.000 HD
ENDBRANCH   8  14
TORSDOF 2
ENDMDL
MODEL 4
REMARK VINA RESULT:      -5.0     21.597     22.092
REMARK  Name = 5281416_Esculetin.pdbqt.pdb
REMARK  2 active torsions:
REMARK  status: ('A' for Active; 'I' for Inactive)
REMARK    1  A    between atoms: C_7  and  O_12
REMARK    2  A    between atoms: C_8  and  O_14
REMARK                            x       y       z     vdW  Elec       q    Type
REMARK                         _______ _______ _______ _____ _____    ______ ____
ROOT
ATOM      1  O   UNL     1      -1.520  28.220  17.331  0.00  0.00    +0.000 OA
ATOM      2  O   UNL     1      -0.369  28.894  15.401  0.00  0.00    +0.000 OA
ATOM      3  C   UNL     1      -0.386  28.664  19.507  0.00  0.00    +0.000 A 
ATOM      4  C   UNL     1      -1.494  28.154  18.777  0.00  0.00    +0.000 A 
ATOM      5  C   UNL     1      -0.354  28.605  20.891  0.00  0.00    +0.000 A 
ATOM      6  C   UNL     1      -2.582  27.581  19.419  0.00  0.00    +0.000 A 
ATOM      7  C   UNL     1      -1.448  28.028  21.532  0.00  0.00    +0.000 A 
ATOM      8  C   UNL     1      -2.540  27.527  20.808  0.00  0.00    +0.000 A 
ATOM      9  C   UNL     1       0.637  29.214  18.695  0.00  0.00    +0.000 A 
ATOM     10  C   UNL     1       0.596  29.258  17.503  0.00  0.00    +0.000 A 
ATOM     11  C   UNL     1      -0.435  28.796  16.616  0.00  0.00    +0.000 A 
ENDROOT
BRANCH   7  12
ATOM     12  O   UNL     1      -1.492  27.933  22.899  0.00  0.00    +0.000 OA
ATOM     13  H   UNL     1      -2.379  27.611  23.147  0.00  0.00    +0.000 HD
ENDBRANCH   7  12
BRANCH   8  14
ATOM     14  O   UNL     1      -3.593  26.969  21.480  0.00  0.00    +0.000 OA
ATOM     15  H   UNL     1      -4.245  27.691  21.583  0.00  0.00    +0.000 HD
ENDBRANCH   8  14
TORSDOF 2
ENDMDL
MODEL 5
REMARK VINA RESULT:      -5.0      2.332      5.372
REMARK  Name = 5281416_Esculetin.pdbqt.pdb
REMARK  2 active torsions:
REMARK  status: ('A' for Active; 'I' for Inactive)
REMARK    1  A    between atoms: C_7  and  O_12
REMARK    2  A    between atoms: C_8  and  O_14
REMARK                            x       y       z     vdW  Elec       q    Type
REMARK                         _______ _______ _______ _____ _____    ______ ____
ROOT
ATOM      1  O   UNL     1      -7.826  48.110  27.062  0.00  0.00    +0.000 OA
ATOM      2  O   UNL     1      -8.874  50.067  26.300  0.00  0.00    +0.000 OA
ATOM      3  C   UNL     1      -6.182  47.061  25.508  0.00  0.00    +0.000 A 
ATOM      4  C   UNL     1      -6.872  47.067  26.752  0.00  0.00    +0.000 A 
ATOM      5  C   UNL     1      -5.268  46.065  25.204  0.00  0.00    +0.000 A 
ATOM      6  C   UNL     1      -6.657  46.081  27.704  0.00  0.00    +0.000 A 
ATOM      7  C   UNL     1      -5.054  45.077  26.162  0.00  0.00    +0.000 A 
ATOM      8  C   UNL     1      -5.737  45.087  27.388  0.00  0.00    +0.000 A 
ATOM      9  C   UNL     1      -6.520  48.139  24.654  0.00  0.00    +0.000 A 
ATOM     10  C   UNL     1      -7.311  48.991  24.929  0.00  0.00    +0.000 A 
ATOM     11  C   UNL     1      -8.089  49.149  26.127  0.00  0.00    +0.000 A 
ENDROOT
BRANCH   7  12
ATOM     12  O   UNL     1      -4.166  44.058  25.937  0.00  0.00    +0.000 OA
ATOM     13  H   UNL     1      -4.454  43.290  26.464  0.00  0.00    +0.000 HD
ENDBRANCH   7  12
BRANCH   8  14
ATOM     14  O   UNL     1      -5.497  44.096  28.300  0.00  0.00    +0.000 OA
ATOM     15  H   UNL     1      -5.599  43.259  27.804  0.00  0.00    +0.000 HD
ENDBRANCH   8  14
TORSDOF 2
ENDMDL
MODEL 6
REMARK VINA RESULT:      -4.8     16.176     18.250
REMARK  Name = 5281416_Esculetin.pdbqt.pdb
REMARK  2 active torsions:
REMARK  status: ('A' for Active; 'I' for Inactive)
REMARK    1  A    between atoms: C_7  and  O_12
REMARK    2  A    between atoms: C_8  and  O_14
REMARK                            x       y       z     vdW  Elec       q    Type
REMARK                         _______ _______ _______ _____ _____    ______ ____
ROOT
ATOM      1  O   UNL     1     -18.124  53.249   8.413  0.00  0.00    +0.000 OA
ATOM      2  O   UNL     1     -17.781  54.165   6.280  0.00  0.00    +0.000 OA
ATOM      3  C   UNL     1     -16.082  52.516   9.642  0.00  0.00    +0.000 A 
ATOM      4  C   UNL     1     -17.494  52.672   9.581  0.00  0.00    +0.000 A 
ATOM      5  C   UNL     1     -15.472  51.965  10.757  0.00  0.00    +0.000 A 
ATOM      6  C   UNL     1     -18.311  52.280  10.631  0.00  0.00    +0.000 A 
ATOM      7  C   UNL     1     -16.295  51.572  11.810  0.00  0.00    +0.000 A 
ATOM      8  C   UNL     1     -17.689  51.728  11.746  0.00  0.00    +0.000 A 
ATOM      9  C   UNL     1     -15.400  52.968   8.485  0.00  0.00    +0.000 A 
ATOM     10  C   UNL     1     -15.939  53.441   7.531  0.00  0.00    +0.000 A 
ATOM     11  C   UNL     1     -17.339  53.670   7.304  0.00  0.00    +0.000 A 
ENDROOT
BRANCH   7  12
ATOM     12  O   UNL     1     -15.769  51.019  12.947  0.00  0.00    +0.000 OA
ATOM     13  H   UNL     1     -14.892  51.419  13.096  0.00  0.00    +0.000 HD
ENDBRANCH   7  12
BRANCH   8  14
ATOM     14  O   UNL     1     -18.459  51.329  12.803  0.00  0.00    +0.000 OA
ATOM     15  H   UNL     1     -19.335  51.738  12.653  0.00  0.00    +0.000 HD
ENDBRANCH   8  14
TORSDOF 2
ENDMDL
MODEL 7
REMARK VINA RESULT:      -4.8      2.342      3.818
REMARK  Name = 5281416_Esculetin.pdbqt.pdb
REMARK  2 active torsions:
REMARK  status: ('A' for Active; 'I' for Inactive)
REMARK    1  A    between atoms: C_7  and  O_12
REMARK    2  A    between atoms: C_8  and  O_14
REMARK                            x       y       z     vdW  Elec       q    Type
REMARK                         _______ _______ _______ _____ _____    ______ ____
ROOT
ATOM      1  O   UNL     1      -3.653  47.741  26.427  0.00  0.00    +0.000 OA
ATOM      2  O   UNL     1      -1.730  46.397  26.382  0.00  0.00    +0.000 OA
ATOM      3  C   UNL     1      -5.770  46.666  25.664  0.00  0.00    +0.000 A 
ATOM      4  C   UNL     1      -5.075  47.801  26.164  0.00  0.00    +0.000 A 
ATOM      5  C   UNL     1      -7.131  46.716  25.410  0.00  0.00    +0.000 A 
ATOM      6  C   UNL     1      -5.730  48.998  26.414  0.00  0.00    +0.000 A 
ATOM      7  C   UNL     1      -7.785  47.919  25.662  0.00  0.00    +0.000 A 
ATOM      8  C   UNL     1      -7.096  49.038  26.155  0.00  0.00    +0.000 A 
ATOM      9  C   UNL     1      -4.950  45.528  25.465  0.00  0.00    +0.000 A 
ATOM     10  C   UNL     1      -3.777  45.498  25.689  0.00  0.00    +0.000 A 
ATOM     11  C   UNL     1      -2.926  46.542  26.190  0.00  0.00    +0.000 A 
ENDROOT
BRANCH   7  12
ATOM     12  O   UNL     1      -9.130  48.050  25.436  0.00  0.00    +0.000 OA
ATOM     13  H   UNL     1      -9.600  47.690  26.212  0.00  0.00    +0.000 HD
ENDBRANCH   7  12
BRANCH   8  14
ATOM     14  O   UNL     1      -7.779  50.200  26.389  0.00  0.00    +0.000 OA
ATOM     15  H   UNL     1      -8.134  50.112  27.297  0.00  0.00    +0.000 HD
ENDBRANCH   8  14
TORSDOF 2
ENDMDL
MODEL 8
REMARK VINA RESULT:      -4.7      2.254      5.150
REMARK  Name = 5281416_Esculetin.pdbqt.pdb
REMARK  2 active torsions:
REMARK  status: ('A' for Active; 'I' for Inactive)
REMARK    1  A    between atoms: C_7  and  O_12
REMARK    2  A    between atoms: C_8  and  O_14
REMARK                            x       y       z     vdW  Elec       q    Type
REMARK                         _______ _______ _______ _____ _____    ______ ____
ROOT
ATOM      1  O   UNL     1      -9.555  47.282  27.164  0.00  0.00    +0.000 OA
ATOM      2  O   UNL     1     -11.700  47.468  26.231  0.00  0.00    +0.000 OA
ATOM      3  C   UNL     1      -7.687  46.866  25.565  0.00  0.00    +0.000 A 
ATOM      4  C   UNL     1      -8.150  47.067  26.895  0.00  0.00    +0.000 A 
ATOM      5  C   UNL     1      -6.343  46.660  25.300  0.00  0.00    +0.000 A 
ATOM      6  C   UNL     1      -7.277  47.065  27.973  0.00  0.00    +0.000 A 
ATOM      7  C   UNL     1      -5.469  46.659  26.385  0.00  0.00    +0.000 A 
ATOM      8  C   UNL     1      -5.929  46.857  27.696  0.00  0.00    +0.000 A 
ATOM      9  C   UNL     1      -8.711  46.899  24.586  0.00  0.00    +0.000 A 
ATOM     10  C   UNL     1      -9.866  47.077  24.829  0.00  0.00    +0.000 A 
ATOM     11  C   UNL     1     -10.500  47.295  26.100  0.00  0.00    +0.000 A 
ENDROOT
BRANCH   7  12
ATOM     12  O   UNL     1      -4.125  46.462  26.206  0.00  0.00    +0.000 OA
ATOM     13  H   UNL     1      -3.653  47.146  26.715  0.00  0.00    +0.000 HD
ENDBRANCH   7  12
BRANCH   8  14
ATOM     14  O   UNL     1      -5.036  46.848  28.731  0.00  0.00    +0.000 OA
ATOM     15  H   UNL     1      -5.324  46.117  29.314  0.00  0.00    +0.000 HD
ENDBRANCH   8  14
TORSDOF 2
ENDMDL
MODEL 9
REMARK VINA RESULT:      -4.6     22.655     23.469
REMARK  Name = 5281416_Esculetin.pdbqt.pdb
REMARK  2 active torsions:
REMARK  status: ('A' for Active; 'I' for Inactive)
REMARK    1  A    between atoms: C_7  and  O_12
REMARK    2  A    between atoms: C_8  and  O_14
REMARK                            x       y       z     vdW  Elec       q    Type
REMARK                         _______ _______ _______ _____ _____    ______ ____
ROOT
ATOM      1  O   UNL     1     -16.246  35.745   6.136  0.00  0.00    +0.000 OA
ATOM      2  O   UNL     1     -14.126  36.509   5.482  0.00  0.00    +0.000 OA
ATOM      3  C   UNL     1     -17.840  37.478   6.959  0.00  0.00    +0.000 A 
ATOM      4  C   UNL     1     -17.543  36.120   6.657  0.00  0.00    +0.000 A 
ATOM      5  C   UNL     1     -19.079  37.844   7.459  0.00  0.00    +0.000 A 
ATOM      6  C   UNL     1     -18.479  35.115   6.850  0.00  0.00    +0.000 A 
ATOM      7  C   UNL     1     -20.016  36.832   7.651  0.00  0.00    +0.000 A 
ATOM      8  C   UNL     1     -19.720  35.494   7.352  0.00  0.00    +0.000 A 
ATOM      9  C   UNL     1     -16.772  38.373   6.703  0.00  0.00    +0.000 A 
ATOM     10  C   UNL     1     -15.709  38.043   6.273  0.00  0.00    +0.000 A 
ATOM     11  C   UNL     1     -15.245  36.731   5.917  0.00  0.00    +0.000 A 
ENDROOT
BRANCH   7  12
ATOM     12  O   UNL     1     -21.265  37.113   8.141  0.00  0.00    +0.000 OA
ATOM     13  H   UNL     1     -21.908  36.966   7.423  0.00  0.00    +0.000 HD
ENDBRANCH   7  12
BRANCH   8  14
ATOM     14  O   UNL     1     -20.671  34.532   7.556  0.00  0.00    +0.000 OA
ATOM     15  H   UNL     1     -21.398  34.985   8.031  0.00  0.00    +0.000 HD
ENDBRANCH   8  14
TORSDOF 2
ENDMDL
