MODEL 1
REMARK VINA RESULT:      -7.4      0.000      0.000
REMARK  Name = 5281239_Fucoxanthin.pdbqt.pdb
REMARK  19 active torsions:
REMARK  status: ('A' for Active; 'I' for Inactive)
REMARK    1  A    between atoms: C_1  and  C_5
REMARK    2  A    between atoms: C_2  and  C_26
REMARK    3  A    between atoms: C_3  and  C_5
REMARK    4  A    between atoms: C_3  and  C_7
REMARK    5  A    between atoms: C_6  and  C_10
REMARK    6  A    between atoms: C_8  and  C_10
REMARK    7  A    between atoms: C_8  and  C_12
REMARK    8  A    between atoms: C_12  and  C_13
REMARK    9  A    between atoms: C_13  and  C_15
REMARK   10  A    between atoms: C_20  and  O_24
REMARK   11  A    between atoms: C_26  and  C_27
REMARK   12  A    between atoms: C_27  and  C_30
REMARK   13  A    between atoms: C_29  and  C_33
REMARK   14  A    between atoms: C_31  and  C_33
REMARK   15  A    between atoms: C_31  and  C_44
REMARK   16  A    between atoms: C_35  and  O_45
REMARK   17  A    between atoms: C_37  and  O_47
REMARK   18  A    between atoms: C_39  and  C_43
REMARK   19  A    between atoms: O_47  and  C_49
REMARK                            x       y       z     vdW  Elec       q    Type
REMARK                         _______ _______ _______ _____ _____    ______ ____
ROOT
ATOM      1  C   UNL     1       3.012  54.097  27.083  0.00  0.00    +0.000 C 
ATOM      2  C   UNL     1       3.203  53.057  27.650  0.00  0.00    +0.000 C 
ENDROOT
BRANCH   2   3
ATOM      3  C   UNL     1       3.454  51.730  28.378  0.00  0.00    +0.000 C 
BRANCH   3   4
ATOM      4  C   UNL     1       3.663  50.607  28.990  0.00  0.00    +0.000 C 
ATOM      5  C   UNL     1       4.828  50.469  29.922  0.00  0.00    +0.000 C 
BRANCH   4   7
ATOM      6  C   UNL     1       1.997  48.616  28.668  0.00  0.00    +0.000 C 
ATOM      7  C   UNL     1       2.761  49.531  28.817  0.00  0.00    +0.000 C 
BRANCH   6   8
ATOM      8  C   UNL     1       1.026  47.445  28.477  0.00  0.00    +0.000 C 
BRANCH   8   9
ATOM      9  C   UNL     1       0.201  46.457  28.324  0.00  0.00    +0.000 C 
ATOM     10  C   UNL     1       0.649  45.052  28.588  0.00  0.00    +0.000 C 
BRANCH   9  12
ATOM     11  C   UNL     1      -2.191  46.900  27.350  0.00  0.00    +0.000 C 
ATOM     12  C   UNL     1      -1.092  46.695  27.795  0.00  0.00    +0.000 C 
BRANCH  11  18
ATOM     13  C   UNL     1      -4.103  48.483  27.007  0.00  0.00    +0.000 C 
ATOM     14  C   UNL     1      -4.187  46.017  26.185  0.00  0.00    +0.000 C 
ATOM     15  C   UNL     1      -5.285  48.562  26.138  0.00  0.00    +0.000 C 
ATOM     16  C   UNL     1      -6.033  47.737  25.276  0.00  0.00    +0.000 C 
ATOM     17  C   UNL     1      -5.327  46.527  25.432  0.00  0.00    +0.000 C 
ATOM     18  C   UNL     1      -3.397  47.123  26.866  0.00  0.00    +0.000 C 
ATOM     19  C   UNL     1      -4.521  48.671  28.490  0.00  0.00    +0.000 C 
ATOM     20  C   UNL     1      -3.116  49.615  26.587  0.00  0.00    +0.000 C 
ATOM     21  C   UNL     1      -4.618  44.951  27.197  0.00  0.00    +0.000 C 
BRANCH  14  22
ATOM     22  O   UNL     1      -3.345  45.338  25.279  0.00  0.00    +0.000 OA
ATOM     23  H   UNL     1      -2.967  46.081  24.773  0.00  0.00    +0.000 HD
ENDBRANCH  14  22
BRANCH  16  24
ATOM     24  O   UNL     1      -7.419  47.758  25.354  0.00  0.00    +0.000 OA
BRANCH  24  26
ATOM     25  O   UNL     1      -7.471  49.147  23.464  0.00  0.00    +0.000 OA
ATOM     26  C   UNL     1      -7.937  48.336  24.242  0.00  0.00    +0.000 C 
ATOM     27  C   UNL     1      -9.328  47.909  23.926  0.00  0.00    +0.000 C 
ENDBRANCH  24  26
ENDBRANCH  16  24
ENDBRANCH  11  18
ENDBRANCH   9  12
ENDBRANCH   8   9
ENDBRANCH   6   8
ENDBRANCH   4   7
ENDBRANCH   3   4
ENDBRANCH   2   3
BRANCH   1  28
ATOM     28  C   UNL     1       2.776  55.429  26.362  0.00  0.00    +0.000 C 
BRANCH  28  29
ATOM     29  C   UNL     1       2.583  56.551  25.744  0.00  0.00    +0.000 C 
ATOM     30  C   UNL     1       2.082  57.745  26.497  0.00  0.00    +0.000 C 
BRANCH  29  32
ATOM     31  C   UNL     1       3.010  56.715  23.168  0.00  0.00    +0.000 C 
ATOM     32  C   UNL     1       2.809  56.634  24.349  0.00  0.00    +0.000 C 
BRANCH  31  33
ATOM     33  C   UNL     1       3.276  56.832  21.662  0.00  0.00    +0.000 C 
BRANCH  33  34
ATOM     34  C   UNL     1       3.509  56.935  20.388  0.00  0.00    +0.000 C 
ATOM     35  C   UNL     1       4.913  57.333  19.981  0.00  0.00    +0.000 C 
BRANCH  34  37
ATOM     36  O   UNL     1       1.246  57.014  19.627  0.00  0.00    +0.000 OA
ATOM     37  C   UNL     1       2.412  56.710  19.397  0.00  0.00    +0.000 C 
BRANCH  37  38
ATOM     38  C   UNL     1       2.685  56.122  18.107  0.00  0.00    +0.000 C 
BRANCH  38  40
ATOM     39  O   UNL     1       1.786  55.690  15.951  0.00  0.00    +0.000 OA
ATOM     40  C   UNL     1       2.961  55.562  16.798  0.00  0.00    +0.000 C 
ATOM     41  C   UNL     1       2.906  56.480  15.559  0.00  0.00    +0.000 C 
ATOM     42  C   UNL     1       3.763  54.216  16.685  0.00  0.00    +0.000 C 
ATOM     43  C   UNL     1       3.513  55.997  14.361  0.00  0.00    +0.000 C 
ATOM     44  C   UNL     1       4.141  54.060  15.279  0.00  0.00    +0.000 C 
ATOM     45  C   UNL     1       4.146  54.777  14.066  0.00  0.00    +0.000 C 
ATOM     46  C   UNL     1       2.648  57.987  15.649  0.00  0.00    +0.000 C 
ATOM     47  C   UNL     1       5.011  54.402  17.582  0.00  0.00    +0.000 C 
ATOM     48  C   UNL     1       2.817  53.113  17.210  0.00  0.00    +0.000 C 
BRANCH  45  49
ATOM     49  O   UNL     1       5.180  54.676  13.186  0.00  0.00    +0.000 OA
ATOM     50  H   UNL     1       5.862  55.355  13.334  0.00  0.00    +0.000 HD
ENDBRANCH  45  49
ENDBRANCH  38  40
ENDBRANCH  37  38
ENDBRANCH  34  37
ENDBRANCH  33  34
ENDBRANCH  31  33
ENDBRANCH  29  32
ENDBRANCH  28  29
ENDBRANCH   1  28
TORSDOF 19
ENDMDL
MODEL 2
REMARK VINA RESULT:      -7.2      2.351     13.968
REMARK  Name = 5281239_Fucoxanthin.pdbqt.pdb
REMARK  19 active torsions:
REMARK  status: ('A' for Active; 'I' for Inactive)
REMARK    1  A    between atoms: C_1  and  C_5
REMARK    2  A    between atoms: C_2  and  C_26
REMARK    3  A    between atoms: C_3  and  C_5
REMARK    4  A    between atoms: C_3  and  C_7
REMARK    5  A    between atoms: C_6  and  C_10
REMARK    6  A    between atoms: C_8  and  C_10
REMARK    7  A    between atoms: C_8  and  C_12
REMARK    8  A    between atoms: C_12  and  C_13
REMARK    9  A    between atoms: C_13  and  C_15
REMARK   10  A    between atoms: C_20  and  O_24
REMARK   11  A    between atoms: C_26  and  C_27
REMARK   12  A    between atoms: C_27  and  C_30
REMARK   13  A    between atoms: C_29  and  C_33
REMARK   14  A    between atoms: C_31  and  C_33
REMARK   15  A    between atoms: C_31  and  C_44
REMARK   16  A    between atoms: C_35  and  O_45
REMARK   17  A    between atoms: C_37  and  O_47
REMARK   18  A    between atoms: C_39  and  C_43
REMARK   19  A    between atoms: O_47  and  C_49
REMARK                            x       y       z     vdW  Elec       q    Type
REMARK                         _______ _______ _______ _____ _____    ______ ____
ROOT
ATOM      1  C   UNL     1      -0.422  52.695  27.406  0.00  0.00    +0.000 C 
ATOM      2  C   UNL     1       0.643  53.172  27.126  0.00  0.00    +0.000 C 
ENDROOT
BRANCH   2   3
ATOM      3  C   UNL     1       2.000  53.785  26.762  0.00  0.00    +0.000 C 
BRANCH   3   4
ATOM      4  C   UNL     1       3.146  54.305  26.451  0.00  0.00    +0.000 C 
ATOM      5  C   UNL     1       4.363  53.971  27.259  0.00  0.00    +0.000 C 
BRANCH   4   7
ATOM      6  C   UNL     1       3.348  55.860  24.356  0.00  0.00    +0.000 C 
ATOM      7  C   UNL     1       3.255  55.147  25.319  0.00  0.00    +0.000 C 
BRANCH   6   8
ATOM      8  C   UNL     1       3.463  56.766  23.125  0.00  0.00    +0.000 C 
BRANCH   8   9
ATOM      9  C   UNL     1       3.551  57.535  22.085  0.00  0.00    +0.000 C 
ATOM     10  C   UNL     1       3.249  58.997  22.202  0.00  0.00    +0.000 C 
BRANCH   9  12
ATOM     11  C   UNL     1       4.049  56.499  19.731  0.00  0.00    +0.000 C 
ATOM     12  C   UNL     1       3.821  56.972  20.813  0.00  0.00    +0.000 C 
BRANCH  11  18
ATOM     13  C   UNL     1       5.709  55.950  17.936  0.00  0.00    +0.000 C 
ATOM     14  C   UNL     1       3.172  55.435  17.677  0.00  0.00    +0.000 C 
ATOM     15  C   UNL     1       5.764  55.068  16.762  0.00  0.00    +0.000 C 
ATOM     16  C   UNL     1       4.894  54.307  15.956  0.00  0.00    +0.000 C 
ATOM     17  C   UNL     1       3.665  54.616  16.575  0.00  0.00    +0.000 C 
ATOM     18  C   UNL     1       4.295  55.982  18.543  0.00  0.00    +0.000 C 
ATOM     19  C   UNL     1       6.107  57.395  17.532  0.00  0.00    +0.000 C 
ATOM     20  C   UNL     1       6.709  55.403  18.999  0.00  0.00    +0.000 C 
ATOM     21  C   UNL     1       2.271  56.566  17.172  0.00  0.00    +0.000 C 
BRANCH  14  22
ATOM     22  O   UNL     1       2.330  54.626  18.467  0.00  0.00    +0.000 OA
ATOM     23  H   UNL     1       2.641  54.843  19.366  0.00  0.00    +0.000 HD
ENDBRANCH  14  22
BRANCH  16  24
ATOM     24  O   UNL     1       5.022  54.371  14.575  0.00  0.00    +0.000 OA
BRANCH  24  26
ATOM     25  O   UNL     1       2.938  53.580  13.843  0.00  0.00    +0.000 OA
ATOM     26  C   UNL     1       3.796  54.429  13.998  0.00  0.00    +0.000 C 
ATOM     27  C   UNL     1       3.445  55.767  13.448  0.00  0.00    +0.000 C 
ENDBRANCH  24  26
ENDBRANCH  16  24
ENDBRANCH  11  18
ENDBRANCH   9  12
ENDBRANCH   8   9
ENDBRANCH   6   8
ENDBRANCH   4   7
ENDBRANCH   3   4
ENDBRANCH   2   3
BRANCH   1  28
ATOM     28  C   UNL     1      -1.786  52.089  27.755  0.00  0.00    +0.000 C 
BRANCH  28  29
ATOM     29  C   UNL     1      -2.943  51.580  28.039  0.00  0.00    +0.000 C 
ATOM     30  C   UNL     1      -3.886  52.318  28.939  0.00  0.00    +0.000 C 
BRANCH  29  32
ATOM     31  C   UNL     1      -3.589  49.222  27.107  0.00  0.00    +0.000 C 
ATOM     32  C   UNL     1      -3.296  50.308  27.529  0.00  0.00    +0.000 C 
BRANCH  31  33
ATOM     33  C   UNL     1      -3.953  47.829  26.580  0.00  0.00    +0.000 C 
BRANCH  33  34
ATOM     34  C   UNL     1      -4.268  46.647  26.140  0.00  0.00    +0.000 C 
ATOM     35  C   UNL     1      -3.121  45.732  25.759  0.00  0.00    +0.000 C 
BRANCH  34  37
ATOM     36  O   UNL     1      -6.063  45.083  25.940  0.00  0.00    +0.000 OA
ATOM     37  C   UNL     1      -5.702  46.255  25.983  0.00  0.00    +0.000 C 
BRANCH  37  38
ATOM     38  C   UNL     1      -6.738  47.255  25.879  0.00  0.00    +0.000 C 
BRANCH  38  40
ATOM     39  O   UNL     1      -8.754  48.039  26.861  0.00  0.00    +0.000 OA
ATOM     40  C   UNL     1      -7.777  48.264  25.808  0.00  0.00    +0.000 C 
ATOM     41  C   UNL     1      -7.976  49.226  26.998  0.00  0.00    +0.000 C 
ATOM     42  C   UNL     1      -8.343  48.695  24.407  0.00  0.00    +0.000 C 
ATOM     43  C   UNL     1      -8.746  50.405  26.764  0.00  0.00    +0.000 C 
ATOM     44  C   UNL     1      -9.136  49.908  24.622  0.00  0.00    +0.000 C 
ATOM     45  C   UNL     1      -9.421  50.861  25.618  0.00  0.00    +0.000 C 
ATOM     46  C   UNL     1      -7.071  49.220  28.234  0.00  0.00    +0.000 C 
ATOM     47  C   UNL     1      -7.101  48.987  23.532  0.00  0.00    +0.000 C 
ATOM     48  C   UNL     1      -9.160  47.490  23.891  0.00  0.00    +0.000 C 
BRANCH  45  49
ATOM     49  O   UNL     1      -9.555  52.183  25.319  0.00  0.00    +0.000 OA
ATOM     50  H   UNL     1      -9.396  52.756  26.090  0.00  0.00    +0.000 HD
ENDBRANCH  45  49
ENDBRANCH  38  40
ENDBRANCH  37  38
ENDBRANCH  34  37
ENDBRANCH  33  34
ENDBRANCH  31  33
ENDBRANCH  29  32
ENDBRANCH  28  29
ENDBRANCH   1  28
TORSDOF 19
ENDMDL
MODEL 3
REMARK VINA RESULT:      -7.1      1.468      2.223
REMARK  Name = 5281239_Fucoxanthin.pdbqt.pdb
REMARK  19 active torsions:
REMARK  status: ('A' for Active; 'I' for Inactive)
REMARK    1  A    between atoms: C_1  and  C_5
REMARK    2  A    between atoms: C_2  and  C_26
REMARK    3  A    between atoms: C_3  and  C_5
REMARK    4  A    between atoms: C_3  and  C_7
REMARK    5  A    between atoms: C_6  and  C_10
REMARK    6  A    between atoms: C_8  and  C_10
REMARK    7  A    between atoms: C_8  and  C_12
REMARK    8  A    between atoms: C_12  and  C_13
REMARK    9  A    between atoms: C_13  and  C_15
REMARK   10  A    between atoms: C_20  and  O_24
REMARK   11  A    between atoms: C_26  and  C_27
REMARK   12  A    between atoms: C_27  and  C_30
REMARK   13  A    between atoms: C_29  and  C_33
REMARK   14  A    between atoms: C_31  and  C_33
REMARK   15  A    between atoms: C_31  and  C_44
REMARK   16  A    between atoms: C_35  and  O_45
REMARK   17  A    between atoms: C_37  and  O_47
REMARK   18  A    between atoms: C_39  and  C_43
REMARK   19  A    between atoms: O_47  and  C_49
REMARK                            x       y       z     vdW  Elec       q    Type
REMARK                         _______ _______ _______ _____ _____    ______ ____
ROOT
ATOM      1  C   UNL     1       2.668  54.258  26.180  0.00  0.00    +0.000 C 
ATOM      2  C   UNL     1       2.785  53.345  26.950  0.00  0.00    +0.000 C 
ENDROOT
BRANCH   2   3
ATOM      3  C   UNL     1       2.937  52.182  27.939  0.00  0.00    +0.000 C 
BRANCH   3   4
ATOM      4  C   UNL     1       3.065  51.198  28.771  0.00  0.00    +0.000 C 
ATOM      5  C   UNL     1       4.025  51.306  29.916  0.00  0.00    +0.000 C 
BRANCH   4   7
ATOM      6  C   UNL     1       1.579  49.061  28.502  0.00  0.00    +0.000 C 
ATOM      7  C   UNL     1       2.260  50.042  28.627  0.00  0.00    +0.000 C 
BRANCH   6   8
ATOM      8  C   UNL     1       0.714  47.806  28.342  0.00  0.00    +0.000 C 
BRANCH   8   9
ATOM      9  C   UNL     1      -0.022  46.746  28.216  0.00  0.00    +0.000 C 
ATOM     10  C   UNL     1       0.560  45.389  28.471  0.00  0.00    +0.000 C 
BRANCH   9  12
ATOM     11  C   UNL     1      -2.472  46.960  27.311  0.00  0.00    +0.000 C 
ATOM     12  C   UNL     1      -1.346  46.862  27.723  0.00  0.00    +0.000 C 
BRANCH  11  18
ATOM     13  C   UNL     1      -4.533  48.351  27.008  0.00  0.00    +0.000 C 
ATOM     14  C   UNL     1      -4.406  45.878  26.210  0.00  0.00    +0.000 C 
ATOM     15  C   UNL     1      -5.741  48.308  26.171  0.00  0.00    +0.000 C 
ATOM     16  C   UNL     1      -6.430  47.407  25.338  0.00  0.00    +0.000 C 
ATOM     17  C   UNL     1      -5.609  46.270  25.485  0.00  0.00    +0.000 C 
ATOM     18  C   UNL     1      -3.706  47.062  26.859  0.00  0.00    +0.000 C 
ATOM     19  C   UNL     1      -4.928  48.516  28.500  0.00  0.00    +0.000 C 
ATOM     20  C   UNL     1      -3.670  49.567  26.550  0.00  0.00    +0.000 C 
ATOM     21  C   UNL     1      -4.706  44.788  27.243  0.00  0.00    +0.000 C 
BRANCH  14  22
ATOM     22  O   UNL     1      -3.528  45.272  25.287  0.00  0.00    +0.000 OA
ATOM     23  H   UNL     1      -4.055  44.506  24.993  0.00  0.00    +0.000 HD
ENDBRANCH  14  22
BRANCH  16  24
ATOM     24  O   UNL     1      -7.810  47.297  25.455  0.00  0.00    +0.000 OA
BRANCH  24  26
ATOM     25  O   UNL     1      -8.120  48.625  23.546  0.00  0.00    +0.000 OA
ATOM     26  C   UNL     1      -8.407  47.727  24.316  0.00  0.00    +0.000 C 
ATOM     27  C   UNL     1      -9.637  46.973  23.952  0.00  0.00    +0.000 C 
ENDBRANCH  24  26
ENDBRANCH  16  24
ENDBRANCH  11  18
ENDBRANCH   9  12
ENDBRANCH   8   9
ENDBRANCH   6   8
ENDBRANCH   4   7
ENDBRANCH   3   4
ENDBRANCH   2   3
BRANCH   1  28
ATOM     28  C   UNL     1       2.523  55.430  25.204  0.00  0.00    +0.000 C 
BRANCH  28  29
ATOM     29  C   UNL     1       2.406  56.415  24.370  0.00  0.00    +0.000 C 
ATOM     30  C   UNL     1       1.185  57.282  24.401  0.00  0.00    +0.000 C 
BRANCH  29  32
ATOM     31  C   UNL     1       4.284  56.844  22.599  0.00  0.00    +0.000 C 
ATOM     32  C   UNL     1       3.417  56.645  23.407  0.00  0.00    +0.000 C 
BRANCH  31  33
ATOM     33  C   UNL     1       5.400  57.104  21.581  0.00  0.00    +0.000 C 
BRANCH  33  34
ATOM     34  C   UNL     1       6.353  57.321  20.723  0.00  0.00    +0.000 C 
ATOM     35  C   UNL     1       7.773  57.224  21.242  0.00  0.00    +0.000 C 
BRANCH  34  37
ATOM     36  O   UNL     1       6.350  58.774  18.826  0.00  0.00    +0.000 OA
ATOM     37  C   UNL     1       6.030  57.693  19.311  0.00  0.00    +0.000 C 
BRANCH  37  38
ATOM     38  C   UNL     1       5.321  56.781  18.447  0.00  0.00    +0.000 C 
BRANCH  38  40
ATOM     39  O   UNL     1       5.261  55.801  16.283  0.00  0.00    +0.000 OA
ATOM     40  C   UNL     1       4.587  55.890  17.569  0.00  0.00    +0.000 C 
ATOM     41  C   UNL     1       5.270  54.603  17.058  0.00  0.00    +0.000 C 
ATOM     42  C   UNL     1       3.018  55.957  17.534  0.00  0.00    +0.000 C 
ATOM     43  C   UNL     1       4.428  53.595  16.499  0.00  0.00    +0.000 C 
ATOM     44  C   UNL     1       2.555  54.772  16.808  0.00  0.00    +0.000 C 
ATOM     45  C   UNL     1       3.040  53.560  16.280  0.00  0.00    +0.000 C 
ATOM     46  C   UNL     1       6.672  54.174  17.497  0.00  0.00    +0.000 C 
ATOM     47  C   UNL     1       2.569  55.914  19.015  0.00  0.00    +0.000 C 
ATOM     48  C   UNL     1       2.665  57.295  16.848  0.00  0.00    +0.000 C 
BRANCH  45  49
ATOM     49  O   UNL     1       2.311  52.411  16.352  0.00  0.00    +0.000 OA
ATOM     50  H   UNL     1       2.743  51.731  16.898  0.00  0.00    +0.000 HD
ENDBRANCH  45  49
ENDBRANCH  38  40
ENDBRANCH  37  38
ENDBRANCH  34  37
ENDBRANCH  33  34
ENDBRANCH  31  33
ENDBRANCH  29  32
ENDBRANCH  28  29
ENDBRANCH   1  28
TORSDOF 19
ENDMDL
MODEL 4
REMARK VINA RESULT:      -6.7     26.933     29.715
REMARK  Name = 5281239_Fucoxanthin.pdbqt.pdb
REMARK  19 active torsions:
REMARK  status: ('A' for Active; 'I' for Inactive)
REMARK    1  A    between atoms: C_1  and  C_5
REMARK    2  A    between atoms: C_2  and  C_26
REMARK    3  A    between atoms: C_3  and  C_5
REMARK    4  A    between atoms: C_3  and  C_7
REMARK    5  A    between atoms: C_6  and  C_10
REMARK    6  A    between atoms: C_8  and  C_10
REMARK    7  A    between atoms: C_8  and  C_12
REMARK    8  A    between atoms: C_12  and  C_13
REMARK    9  A    between atoms: C_13  and  C_15
REMARK   10  A    between atoms: C_20  and  O_24
REMARK   11  A    between atoms: C_26  and  C_27
REMARK   12  A    between atoms: C_27  and  C_30
REMARK   13  A    between atoms: C_29  and  C_33
REMARK   14  A    between atoms: C_31  and  C_33
REMARK   15  A    between atoms: C_31  and  C_44
REMARK   16  A    between atoms: C_35  and  O_45
REMARK   17  A    between atoms: C_37  and  O_47
REMARK   18  A    between atoms: C_39  and  C_43
REMARK   19  A    between atoms: O_47  and  C_49
REMARK                            x       y       z     vdW  Elec       q    Type
REMARK                         _______ _______ _______ _____ _____    ______ ____
ROOT
ATOM      1  C   UNL     1     -11.532  32.394   6.496  0.00  0.00    +0.000 C 
ATOM      2  C   UNL     1     -11.377  31.410   7.164  0.00  0.00    +0.000 C 
ENDROOT
BRANCH   2   3
ATOM      3  C   UNL     1     -11.186  30.152   8.020  0.00  0.00    +0.000 C 
BRANCH   3   4
ATOM      4  C   UNL     1     -11.029  29.088   8.743  0.00  0.00    +0.000 C 
ATOM      5  C   UNL     1     -12.222  28.278   9.152  0.00  0.00    +0.000 C 
BRANCH   4   7
ATOM      6  C   UNL     1      -8.621  28.307   9.406  0.00  0.00    +0.000 C 
ATOM      7  C   UNL     1      -9.727  28.664   9.101  0.00  0.00    +0.000 C 
BRANCH   6   8
ATOM      8  C   UNL     1      -7.211  27.853   9.801  0.00  0.00    +0.000 C 
BRANCH   8   9
ATOM      9  C   UNL     1      -6.016  27.468  10.125  0.00  0.00    +0.000 C 
ATOM     10  C   UNL     1      -5.686  27.153  11.552  0.00  0.00    +0.000 C 
BRANCH   9  12
ATOM     11  C   UNL     1      -4.120  27.442   8.317  0.00  0.00    +0.000 C 
ATOM     12  C   UNL     1      -4.991  27.457   9.147  0.00  0.00    +0.000 C 
BRANCH  11  18
ATOM     13  C   UNL     1      -3.440  27.673   5.916  0.00  0.00    +0.000 C 
ATOM     14  C   UNL     1      -1.728  27.095   7.788  0.00  0.00    +0.000 C 
ATOM     15  C   UNL     1      -2.191  27.894   5.174  0.00  0.00    +0.000 C 
ATOM     16  C   UNL     1      -0.800  27.857   5.390  0.00  0.00    +0.000 C 
ATOM     17  C   UNL     1      -0.779  27.449   6.740  0.00  0.00    +0.000 C 
ATOM     18  C   UNL     1      -3.164  27.424   7.410  0.00  0.00    +0.000 C 
ATOM     19  C   UNL     1      -4.188  26.441   5.340  0.00  0.00    +0.000 C 
ATOM     20  C   UNL     1      -4.324  28.948   5.767  0.00  0.00    +0.000 C 
ATOM     21  C   UNL     1      -1.593  25.623   8.190  0.00  0.00    +0.000 C 
BRANCH  14  22
ATOM     22  O   UNL     1      -1.378  27.820   8.946  0.00  0.00    +0.000 OA
ATOM     23  H   UNL     1      -0.592  28.308   8.638  0.00  0.00    +0.000 HD
ENDBRANCH  14  22
BRANCH  16  24
ATOM     24  O   UNL     1       0.013  27.232   4.454  0.00  0.00    +0.000 OA
BRANCH  24  26
ATOM     25  O   UNL     1       0.398  28.233   2.367  0.00  0.00    +0.000 OA
ATOM     26  C   UNL     1       0.498  28.146   3.577  0.00  0.00    +0.000 C 
ATOM     27  C   UNL     1       1.305  29.226   4.208  0.00  0.00    +0.000 C 
ENDBRANCH  24  26
ENDBRANCH  16  24
ENDBRANCH  11  18
ENDBRANCH   9  12
ENDBRANCH   8   9
ENDBRANCH   6   8
ENDBRANCH   4   7
ENDBRANCH   3   4
ENDBRANCH   2   3
BRANCH   1  28
ATOM     28  C   UNL     1     -11.740  33.652   5.644  0.00  0.00    +0.000 C 
BRANCH  28  29
ATOM     29  C   UNL     1     -11.912  34.721   4.933  0.00  0.00    +0.000 C 
ATOM     30  C   UNL     1     -10.992  35.015   3.787  0.00  0.00    +0.000 C 
BRANCH  29  32
ATOM     31  C   UNL     1     -13.813  36.408   5.553  0.00  0.00    +0.000 C 
ATOM     32  C   UNL     1     -12.945  35.629   5.266  0.00  0.00    +0.000 C 
BRANCH  31  33
ATOM     33  C   UNL     1     -14.909  37.414   5.925  0.00  0.00    +0.000 C 
BRANCH  33  34
ATOM     34  C   UNL     1     -15.845  38.260   6.238  0.00  0.00    +0.000 C 
ATOM     35  C   UNL     1     -17.041  37.710   6.987  0.00  0.00    +0.000 C 
BRANCH  34  37
ATOM     36  O   UNL     1     -14.660  40.236   5.601  0.00  0.00    +0.000 OA
ATOM     37  C   UNL     1     -15.738  39.693   5.823  0.00  0.00    +0.000 C 
BRANCH  37  38
ATOM     38  C   UNL     1     -16.918  40.509   5.660  0.00  0.00    +0.000 C 
BRANCH  38  40
ATOM     39  O   UNL     1     -18.115  42.381   6.501  0.00  0.00    +0.000 OA
ATOM     40  C   UNL     1     -18.120  41.308   5.519  0.00  0.00    +0.000 C 
ATOM     41  C   UNL     1     -17.995  42.799   5.143  0.00  0.00    +0.000 C 
ATOM     42  C   UNL     1     -19.498  40.595   5.267  0.00  0.00    +0.000 C 
ATOM     43  C   UNL     1     -19.173  43.456   4.675  0.00  0.00    +0.000 C 
ATOM     44  C   UNL     1     -20.451  41.636   4.875  0.00  0.00    +0.000 C 
ATOM     45  C   UNL     1     -20.493  42.998   4.520  0.00  0.00    +0.000 C 
ATOM     46  C   UNL     1     -16.654  43.469   4.831  0.00  0.00    +0.000 C 
ATOM     47  C   UNL     1     -19.243  39.605   4.105  0.00  0.00    +0.000 C 
ATOM     48  C   UNL     1     -19.853  39.878   6.588  0.00  0.00    +0.000 C 
BRANCH  45  49
ATOM     49  O   UNL     1     -21.319  43.452   3.538  0.00  0.00    +0.000 OA
ATOM     50  H   UNL     1     -21.136  44.377   3.296  0.00  0.00    +0.000 HD
ENDBRANCH  45  49
ENDBRANCH  38  40
ENDBRANCH  37  38
ENDBRANCH  34  37
ENDBRANCH  33  34
ENDBRANCH  31  33
ENDBRANCH  29  32
ENDBRANCH  28  29
ENDBRANCH   1  28
TORSDOF 19
ENDMDL
MODEL 5
REMARK VINA RESULT:      -6.6      2.576      4.025
REMARK  Name = 5281239_Fucoxanthin.pdbqt.pdb
REMARK  19 active torsions:
REMARK  status: ('A' for Active; 'I' for Inactive)
REMARK    1  A    between atoms: C_1  and  C_5
REMARK    2  A    between atoms: C_2  and  C_26
REMARK    3  A    between atoms: C_3  and  C_5
REMARK    4  A    between atoms: C_3  and  C_7
REMARK    5  A    between atoms: C_6  and  C_10
REMARK    6  A    between atoms: C_8  and  C_10
REMARK    7  A    between atoms: C_8  and  C_12
REMARK    8  A    between atoms: C_12  and  C_13
REMARK    9  A    between atoms: C_13  and  C_15
REMARK   10  A    between atoms: C_20  and  O_24
REMARK   11  A    between atoms: C_26  and  C_27
REMARK   12  A    between atoms: C_27  and  C_30
REMARK   13  A    between atoms: C_29  and  C_33
REMARK   14  A    between atoms: C_31  and  C_33
REMARK   15  A    between atoms: C_31  and  C_44
REMARK   16  A    between atoms: C_35  and  O_45
REMARK   17  A    between atoms: C_37  and  O_47
REMARK   18  A    between atoms: C_39  and  C_43
REMARK   19  A    between atoms: O_47  and  C_49
REMARK                            x       y       z     vdW  Elec       q    Type
REMARK                         _______ _______ _______ _____ _____    ______ ____
ROOT
ATOM      1  C   UNL     1       0.882  55.614  24.574  0.00  0.00    +0.000 C 
ATOM      2  C   UNL     1       0.643  54.865  25.480  0.00  0.00    +0.000 C 
ENDROOT
BRANCH   2   3
ATOM      3  C   UNL     1       0.331  53.910  26.639  0.00  0.00    +0.000 C 
BRANCH   3   4
ATOM      4  C   UNL     1       0.063  53.105  27.619  0.00  0.00    +0.000 C 
ATOM      5  C   UNL     1       0.533  53.431  29.004  0.00  0.00    +0.000 C 
BRANCH   4   7
ATOM      6  C   UNL     1      -1.377  50.963  27.189  0.00  0.00    +0.000 C 
ATOM      7  C   UNL     1      -0.715  51.945  27.388  0.00  0.00    +0.000 C 
BRANCH   6   8
ATOM      8  C   UNL     1      -2.220  49.710  26.931  0.00  0.00    +0.000 C 
BRANCH   8   9
ATOM      9  C   UNL     1      -2.939  48.654  26.705  0.00  0.00    +0.000 C 
ATOM     10  C   UNL     1      -2.281  47.326  26.491  0.00  0.00    +0.000 C 
BRANCH   9  12
ATOM     11  C   UNL     1      -5.533  48.879  26.408  0.00  0.00    +0.000 C 
ATOM     12  C   UNL     1      -4.342  48.779  26.543  0.00  0.00    +0.000 C 
BRANCH  11  18
ATOM     13  C   UNL     1      -7.739  49.648  27.314  0.00  0.00    +0.000 C 
ATOM     14  C   UNL     1      -7.538  48.401  25.039  0.00  0.00    +0.000 C 
ATOM     15  C   UNL     1      -9.083  49.907  26.780  0.00  0.00    +0.000 C 
ATOM     16  C   UNL     1      -9.839  49.650  25.621  0.00  0.00    +0.000 C 
ATOM     17  C   UNL     1      -8.898  48.903  24.883  0.00  0.00    +0.000 C 
ATOM     18  C   UNL     1      -6.838  48.986  26.256  0.00  0.00    +0.000 C 
ATOM     19  C   UNL     1      -7.829  48.709  28.546  0.00  0.00    +0.000 C 
ATOM     20  C   UNL     1      -7.113  51.014  27.733  0.00  0.00    +0.000 C 
ATOM     21  C   UNL     1      -7.508  46.870  25.075  0.00  0.00    +0.000 C 
BRANCH  14  22
ATOM     22  O   UNL     1      -6.816  48.751  23.879  0.00  0.00    +0.000 OA
ATOM     23  H   UNL     1      -7.054  48.023  23.276  0.00  0.00    +0.000 HD
ENDBRANCH  14  22
BRANCH  16  24
ATOM     24  O   UNL     1     -11.147  49.200  25.751  0.00  0.00    +0.000 OA
BRANCH  24  26
ATOM     25  O   UNL     1     -12.522  48.981  23.863  0.00  0.00    +0.000 OA
ATOM     26  C   UNL     1     -11.885  49.608  24.689  0.00  0.00    +0.000 C 
ATOM     27  C   UNL     1     -11.911  51.083  24.496  0.00  0.00    +0.000 C 
ENDBRANCH  24  26
ENDBRANCH  16  24
ENDBRANCH  11  18
ENDBRANCH   9  12
ENDBRANCH   8   9
ENDBRANCH   6   8
ENDBRANCH   4   7
ENDBRANCH   3   4
ENDBRANCH   2   3
BRANCH   1  28
ATOM     28  C   UNL     1       1.177  56.575  23.416  0.00  0.00    +0.000 C 
BRANCH  28  29
ATOM     29  C   UNL     1       1.437  57.387  22.442  0.00  0.00    +0.000 C 
ATOM     30  C   UNL     1       0.797  58.742  22.404  0.00  0.00    +0.000 C 
BRANCH  29  32
ATOM     31  C   UNL     1       3.030  56.644  20.504  0.00  0.00    +0.000 C 
ATOM     32  C   UNL     1       2.296  56.978  21.394  0.00  0.00    +0.000 C 
BRANCH  31  33
ATOM     33  C   UNL     1       3.971  56.232  19.366  0.00  0.00    +0.000 C 
BRANCH  33  34
ATOM     34  C   UNL     1       4.766  55.876  18.400  0.00  0.00    +0.000 C 
ATOM     35  C   UNL     1       6.234  56.209  18.566  0.00  0.00    +0.000 C 
BRANCH  34  37
ATOM     36  O   UNL     1       3.204  54.523  17.200  0.00  0.00    +0.000 OA
ATOM     37  C   UNL     1       4.219  55.211  17.177  0.00  0.00    +0.000 C 
BRANCH  37  38
ATOM     38  C   UNL     1       4.872  55.357  15.898  0.00  0.00    +0.000 C 
BRANCH  38  40
ATOM     39  O   UNL     1       5.695  54.242  13.969  0.00  0.00    +0.000 OA
ATOM     40  C   UNL     1       5.513  55.535  14.609  0.00  0.00    +0.000 C 
ATOM     41  C   UNL     1       4.762  55.111  13.329  0.00  0.00    +0.000 C 
ATOM     42  C   UNL     1       6.695  56.560  14.467  0.00  0.00    +0.000 C 
ATOM     43  C   UNL     1       5.256  55.611  12.087  0.00  0.00    +0.000 C 
ATOM     44  C   UNL     1       6.933  56.742  13.034  0.00  0.00    +0.000 C 
ATOM     45  C   UNL     1       6.366  56.419  11.785  0.00  0.00    +0.000 C 
ATOM     46  C   UNL     1       3.327  54.577  13.344  0.00  0.00    +0.000 C 
ATOM     47  C   UNL     1       6.187  57.869  15.119  0.00  0.00    +0.000 C 
ATOM     48  C   UNL     1       7.887  55.943  15.232  0.00  0.00    +0.000 C 
BRANCH  45  49
ATOM     49  O   UNL     1       6.372  57.306  10.751  0.00  0.00    +0.000 OA
ATOM     50  H   UNL     1       6.566  56.879   9.898  0.00  0.00    +0.000 HD
ENDBRANCH  45  49
ENDBRANCH  38  40
ENDBRANCH  37  38
ENDBRANCH  34  37
ENDBRANCH  33  34
ENDBRANCH  31  33
ENDBRANCH  29  32
ENDBRANCH  28  29
ENDBRANCH   1  28
TORSDOF 19
ENDMDL
MODEL 6
REMARK VINA RESULT:      -6.5      2.932     15.790
REMARK  Name = 5281239_Fucoxanthin.pdbqt.pdb
REMARK  19 active torsions:
REMARK  status: ('A' for Active; 'I' for Inactive)
REMARK    1  A    between atoms: C_1  and  C_5
REMARK    2  A    between atoms: C_2  and  C_26
REMARK    3  A    between atoms: C_3  and  C_5
REMARK    4  A    between atoms: C_3  and  C_7
REMARK    5  A    between atoms: C_6  and  C_10
REMARK    6  A    between atoms: C_8  and  C_10
REMARK    7  A    between atoms: C_8  and  C_12
REMARK    8  A    between atoms: C_12  and  C_13
REMARK    9  A    between atoms: C_13  and  C_15
REMARK   10  A    between atoms: C_20  and  O_24
REMARK   11  A    between atoms: C_26  and  C_27
REMARK   12  A    between atoms: C_27  and  C_30
REMARK   13  A    between atoms: C_29  and  C_33
REMARK   14  A    between atoms: C_31  and  C_33
REMARK   15  A    between atoms: C_31  and  C_44
REMARK   16  A    between atoms: C_35  and  O_45
REMARK   17  A    between atoms: C_37  and  O_47
REMARK   18  A    between atoms: C_39  and  C_43
REMARK   19  A    between atoms: O_47  and  C_49
REMARK                            x       y       z     vdW  Elec       q    Type
REMARK                         _______ _______ _______ _____ _____    ______ ____
ROOT
ATOM      1  C   UNL     1       0.965  55.011  24.847  0.00  0.00    +0.000 C 
ATOM      2  C   UNL     1       1.191  55.596  23.825  0.00  0.00    +0.000 C 
ENDROOT
BRANCH   2   3
ATOM      3  C   UNL     1       1.480  56.338  22.514  0.00  0.00    +0.000 C 
BRANCH   3   4
ATOM      4  C   UNL     1       1.721  56.966  21.406  0.00  0.00    +0.000 C 
ATOM      5  C   UNL     1       1.723  58.465  21.382  0.00  0.00    +0.000 C 
BRANCH   4   7
ATOM      6  C   UNL     1       2.293  55.617  19.239  0.00  0.00    +0.000 C 
ATOM      7  C   UNL     1       2.032  56.237  20.234  0.00  0.00    +0.000 C 
BRANCH   6   8
ATOM      8  C   UNL     1       2.622  54.829  17.966  0.00  0.00    +0.000 C 
BRANCH   8   9
ATOM      9  C   UNL     1       2.910  54.161  16.893  0.00  0.00    +0.000 C 
ATOM     10  C   UNL     1       2.439  52.748  16.735  0.00  0.00    +0.000 C 
BRANCH   9  12
ATOM     11  C   UNL     1       4.503  55.212  15.098  0.00  0.00    +0.000 C 
ATOM     12  C   UNL     1       3.770  54.729  15.920  0.00  0.00    +0.000 C 
BRANCH  11  18
ATOM     13  C   UNL     1       6.694  56.304  14.563  0.00  0.00    +0.000 C 
ATOM     14  C   UNL     1       4.876  55.893  12.749  0.00  0.00    +0.000 C 
ATOM     15  C   UNL     1       7.497  56.560  13.359  0.00  0.00    +0.000 C 
ATOM     16  C   UNL     1       7.355  56.542  11.958  0.00  0.00    +0.000 C 
ATOM     17  C   UNL     1       5.995  56.183  11.860  0.00  0.00    +0.000 C 
ATOM     18  C   UNL     1       5.307  55.746  14.199  0.00  0.00    +0.000 C 
ATOM     19  C   UNL     1       6.504  57.619  15.364  0.00  0.00    +0.000 C 
ATOM     20  C   UNL     1       7.452  55.257  15.435  0.00  0.00    +0.000 C 
ATOM     21  C   UNL     1       3.768  56.941  12.611  0.00  0.00    +0.000 C 
BRANCH  14  22
ATOM     22  O   UNL     1       4.289  54.685  12.317  0.00  0.00    +0.000 OA
ATOM     23  H   UNL     1       3.813  54.977  11.517  0.00  0.00    +0.000 HD
ENDBRANCH  14  22
BRANCH  16  24
ATOM     24  O   UNL     1       7.858  57.601  11.213  0.00  0.00    +0.000 OA
BRANCH  24  26
ATOM     25  O   UNL     1       9.872  56.590  10.558  0.00  0.00    +0.000 OA
ATOM     26  C   UNL     1       9.200  57.468  11.067  0.00  0.00    +0.000 C 
ATOM     27  C   UNL     1       9.989  58.592  11.642  0.00  0.00    +0.000 C 
ENDBRANCH  24  26
ENDBRANCH  16  24
ENDBRANCH  11  18
ENDBRANCH   9  12
ENDBRANCH   8   9
ENDBRANCH   6   8
ENDBRANCH   4   7
ENDBRANCH   3   4
ENDBRANCH   2   3
BRANCH   1  28
ATOM     28  C   UNL     1       0.677  54.254  26.149  0.00  0.00    +0.000 C 
BRANCH  28  29
ATOM     29  C   UNL     1       0.429  53.606  27.243  0.00  0.00    +0.000 C 
ATOM     30  C   UNL     1       1.214  53.903  28.484  0.00  0.00    +0.000 C 
BRANCH  29  32
ATOM     31  C   UNL     1      -1.388  51.723  27.249  0.00  0.00    +0.000 C 
ATOM     32  C   UNL     1      -0.558  52.592  27.252  0.00  0.00    +0.000 C 
BRANCH  31  33
ATOM     33  C   UNL     1      -2.438  50.607  27.236  0.00  0.00    +0.000 C 
BRANCH  33  34
ATOM     34  C   UNL     1      -3.323  49.654  27.225  0.00  0.00    +0.000 C 
ATOM     35  C   UNL     1      -2.829  48.268  26.863  0.00  0.00    +0.000 C 
BRANCH  34  37
ATOM     36  O   UNL     1      -5.115  50.967  28.105  0.00  0.00    +0.000 OA
ATOM     37  C   UNL     1      -4.759  49.951  27.515  0.00  0.00    +0.000 C 
BRANCH  37  38
ATOM     38  C   UNL     1      -5.803  49.043  27.104  0.00  0.00    +0.000 C 
BRANCH  38  40
ATOM     39  O   UNL     1      -7.279  47.309  27.783  0.00  0.00    +0.000 OA
ATOM     40  C   UNL     1      -6.868  48.157  26.675  0.00  0.00    +0.000 C 
ATOM     41  C   UNL     1      -8.252  48.258  27.351  0.00  0.00    +0.000 C 
ATOM     42  C   UNL     1      -6.785  47.473  25.263  0.00  0.00    +0.000 C 
ATOM     43  C   UNL     1      -9.351  47.638  26.685  0.00  0.00    +0.000 C 
ATOM     44  C   UNL     1      -8.103  46.896  24.989  0.00  0.00    +0.000 C 
ATOM     45  C   UNL     1      -9.415  46.886  25.499  0.00  0.00    +0.000 C 
ATOM     46  C   UNL     1      -8.585  49.312  28.412  0.00  0.00    +0.000 C 
ATOM     47  C   UNL     1      -6.458  48.615  24.270  0.00  0.00    +0.000 C 
ATOM     48  C   UNL     1      -5.648  46.432  25.362  0.00  0.00    +0.000 C 
BRANCH  45  49
ATOM     49  O   UNL     1     -10.499  46.901  24.675  0.00  0.00    +0.000 OA
ATOM     50  H   UNL     1     -10.575  47.734  24.176  0.00  0.00    +0.000 HD
ENDBRANCH  45  49
ENDBRANCH  38  40
ENDBRANCH  37  38
ENDBRANCH  34  37
ENDBRANCH  33  34
ENDBRANCH  31  33
ENDBRANCH  29  32
ENDBRANCH  28  29
ENDBRANCH   1  28
TORSDOF 19
ENDMDL
MODEL 7
REMARK VINA RESULT:      -6.5      2.952      4.134
REMARK  Name = 5281239_Fucoxanthin.pdbqt.pdb
REMARK  19 active torsions:
REMARK  status: ('A' for Active; 'I' for Inactive)
REMARK    1  A    between atoms: C_1  and  C_5
REMARK    2  A    between atoms: C_2  and  C_26
REMARK    3  A    between atoms: C_3  and  C_5
REMARK    4  A    between atoms: C_3  and  C_7
REMARK    5  A    between atoms: C_6  and  C_10
REMARK    6  A    between atoms: C_8  and  C_10
REMARK    7  A    between atoms: C_8  and  C_12
REMARK    8  A    between atoms: C_12  and  C_13
REMARK    9  A    between atoms: C_13  and  C_15
REMARK   10  A    between atoms: C_20  and  O_24
REMARK   11  A    between atoms: C_26  and  C_27
REMARK   12  A    between atoms: C_27  and  C_30
REMARK   13  A    between atoms: C_29  and  C_33
REMARK   14  A    between atoms: C_31  and  C_33
REMARK   15  A    between atoms: C_31  and  C_44
REMARK   16  A    between atoms: C_35  and  O_45
REMARK   17  A    between atoms: C_37  and  O_47
REMARK   18  A    between atoms: C_39  and  C_43
REMARK   19  A    between atoms: O_47  and  C_49
REMARK                            x       y       z     vdW  Elec       q    Type
REMARK                         _______ _______ _______ _____ _____    ______ ____
ROOT
ATOM      1  C   UNL     1       0.712  56.502  26.892  0.00  0.00    +0.000 C 
ATOM      2  C   UNL     1       0.023  55.760  27.536  0.00  0.00    +0.000 C 
ENDROOT
BRANCH   2   3
ATOM      3  C   UNL     1      -0.864  54.815  28.356  0.00  0.00    +0.000 C 
BRANCH   3   4
ATOM      4  C   UNL     1      -1.617  54.019  29.048  0.00  0.00    +0.000 C 
ATOM      5  C   UNL     1      -2.091  54.432  30.408  0.00  0.00    +0.000 C 
BRANCH   4   7
ATOM      6  C   UNL     1      -2.382  51.735  28.027  0.00  0.00    +0.000 C 
ATOM      7  C   UNL     1      -2.030  52.782  28.497  0.00  0.00    +0.000 C 
BRANCH   6   8
ATOM      8  C   UNL     1      -2.828  50.398  27.422  0.00  0.00    +0.000 C 
BRANCH   8   9
ATOM      9  C   UNL     1      -3.210  49.273  26.903  0.00  0.00    +0.000 C 
ATOM     10  C   UNL     1      -2.202  48.330  26.323  0.00  0.00    +0.000 C 
BRANCH   9  12
ATOM     11  C   UNL     1      -5.768  48.750  26.679  0.00  0.00    +0.000 C 
ATOM     12  C   UNL     1      -4.593  48.988  26.779  0.00  0.00    +0.000 C 
BRANCH  11  18
ATOM     13  C   UNL     1      -7.638  47.093  26.866  0.00  0.00    +0.000 C 
ATOM     14  C   UNL     1      -8.037  49.546  26.096  0.00  0.00    +0.000 C 
ATOM     15  C   UNL     1      -9.103  47.139  26.967  0.00  0.00    +0.000 C 
ATOM     16  C   UNL     1     -10.157  48.054  26.786  0.00  0.00    +0.000 C 
ATOM     17  C   UNL     1      -9.423  49.182  26.364  0.00  0.00    +0.000 C 
ATOM     18  C   UNL     1      -7.055  48.487  26.573  0.00  0.00    +0.000 C 
ATOM     19  C   UNL     1      -7.215  46.131  25.723  0.00  0.00    +0.000 C 
ATOM     20  C   UNL     1      -7.074  46.580  28.226  0.00  0.00    +0.000 C 
ATOM     21  C   UNL     1      -7.819  49.863  24.613  0.00  0.00    +0.000 C 
BRANCH  14  22
ATOM     22  O   UNL     1      -7.774  50.757  26.769  0.00  0.00    +0.000 OA
ATOM     23  H   UNL     1      -8.285  50.636  27.591  0.00  0.00    +0.000 HD
ENDBRANCH  14  22
BRANCH  16  24
ATOM     24  O   UNL     1     -11.291  47.653  26.092  0.00  0.00    +0.000 OA
BRANCH  24  26
ATOM     25  O   UNL     1     -13.061  49.186  25.950  0.00  0.00    +0.000 OA
ATOM     26  C   UNL     1     -12.368  48.360  26.514  0.00  0.00    +0.000 C 
ATOM     27  C   UNL     1     -12.764  48.083  27.922  0.00  0.00    +0.000 C 
ENDBRANCH  24  26
ENDBRANCH  16  24
ENDBRANCH  11  18
ENDBRANCH   9  12
ENDBRANCH   8   9
ENDBRANCH   6   8
ENDBRANCH   4   7
ENDBRANCH   3   4
ENDBRANCH   2   3
BRANCH   1  28
ATOM     28  C   UNL     1       1.583  57.454  26.065  0.00  0.00    +0.000 C 
BRANCH  28  29
ATOM     29  C   UNL     1       2.328  58.258  25.374  0.00  0.00    +0.000 C 
ATOM     30  C   UNL     1       2.715  59.591  25.937  0.00  0.00    +0.000 C 
BRANCH  29  32
ATOM     31  C   UNL     1       3.085  57.564  22.967  0.00  0.00    +0.000 C 
ATOM     32  C   UNL     1       2.741  57.889  24.071  0.00  0.00    +0.000 C 
BRANCH  31  33
ATOM     33  C   UNL     1       3.515  57.135  21.560  0.00  0.00    +0.000 C 
BRANCH  33  34
ATOM     34  C   UNL     1       3.879  56.762  20.368  0.00  0.00    +0.000 C 
ATOM     35  C   UNL     1       5.367  56.613  20.124  0.00  0.00    +0.000 C 
BRANCH  34  37
ATOM     36  O   UNL     1       1.667  56.791  19.466  0.00  0.00    +0.000 OA
ATOM     37  C   UNL     1       2.857  56.544  19.299  0.00  0.00    +0.000 C 
BRANCH  37  38
ATOM     38  C   UNL     1       3.235  56.030  18.004  0.00  0.00    +0.000 C 
BRANCH  38  40
ATOM     39  O   UNL     1       4.635  54.452  16.911  0.00  0.00    +0.000 OA
ATOM     40  C   UNL     1       3.643  55.498  16.718  0.00  0.00    +0.000 C 
ATOM     41  C   UNL     1       3.379  54.011  16.399  0.00  0.00    +0.000 C 
ATOM     42  C   UNL     1       3.884  56.480  15.515  0.00  0.00    +0.000 C 
ATOM     43  C   UNL     1       3.465  53.611  15.031  0.00  0.00    +0.000 C 
ATOM     44  C   UNL     1       3.986  55.658  14.307  0.00  0.00    +0.000 C 
ATOM     45  C   UNL     1       3.795  54.333  13.871  0.00  0.00    +0.000 C 
ATOM     46  C   UNL     1       2.630  53.075  17.352  0.00  0.00    +0.000 C 
ATOM     47  C   UNL     1       2.633  57.390  15.468  0.00  0.00    +0.000 C 
ATOM     48  C   UNL     1       5.171  57.262  15.857  0.00  0.00    +0.000 C 
BRANCH  45  49
ATOM     49  O   UNL     1       3.255  54.056  12.652  0.00  0.00    +0.000 OA
ATOM     50  H   UNL     1       2.901  54.850  12.214  0.00  0.00    +0.000 HD
ENDBRANCH  45  49
ENDBRANCH  38  40
ENDBRANCH  37  38
ENDBRANCH  34  37
ENDBRANCH  33  34
ENDBRANCH  31  33
ENDBRANCH  29  32
ENDBRANCH  28  29
ENDBRANCH   1  28
TORSDOF 19
ENDMDL
MODEL 8
REMARK VINA RESULT:      -6.4      8.836     19.325
REMARK  Name = 5281239_Fucoxanthin.pdbqt.pdb
REMARK  19 active torsions:
REMARK  status: ('A' for Active; 'I' for Inactive)
REMARK    1  A    between atoms: C_1  and  C_5
REMARK    2  A    between atoms: C_2  and  C_26
REMARK    3  A    between atoms: C_3  and  C_5
REMARK    4  A    between atoms: C_3  and  C_7
REMARK    5  A    between atoms: C_6  and  C_10
REMARK    6  A    between atoms: C_8  and  C_10
REMARK    7  A    between atoms: C_8  and  C_12
REMARK    8  A    between atoms: C_12  and  C_13
REMARK    9  A    between atoms: C_13  and  C_15
REMARK   10  A    between atoms: C_20  and  O_24
REMARK   11  A    between atoms: C_26  and  C_27
REMARK   12  A    between atoms: C_27  and  C_30
REMARK   13  A    between atoms: C_29  and  C_33
REMARK   14  A    between atoms: C_31  and  C_33
REMARK   15  A    between atoms: C_31  and  C_44
REMARK   16  A    between atoms: C_35  and  O_45
REMARK   17  A    between atoms: C_37  and  O_47
REMARK   18  A    between atoms: C_39  and  C_43
REMARK   19  A    between atoms: O_47  and  C_49
REMARK                            x       y       z     vdW  Elec       q    Type
REMARK                         _______ _______ _______ _____ _____    ______ ____
ROOT
ATOM      1  C   UNL     1     -11.818  47.807  28.059  0.00  0.00    +0.000 C 
ATOM      2  C   UNL     1     -11.005  47.868  27.179  0.00  0.00    +0.000 C 
ENDROOT
BRANCH   2   3
ATOM      3  C   UNL     1      -9.967  47.954  26.053  0.00  0.00    +0.000 C 
BRANCH   3   4
ATOM      4  C   UNL     1      -9.093  48.026  25.099  0.00  0.00    +0.000 C 
ATOM      5  C   UNL     1      -9.386  48.843  23.877  0.00  0.00    +0.000 C 
BRANCH   4   7
ATOM      6  C   UNL     1      -6.783  46.825  25.354  0.00  0.00    +0.000 C 
ATOM      7  C   UNL     1      -7.844  47.376  25.235  0.00  0.00    +0.000 C 
BRANCH   6   8
ATOM      8  C   UNL     1      -5.429  46.124  25.509  0.00  0.00    +0.000 C 
BRANCH   8   9
ATOM      9  C   UNL     1      -4.283  45.530  25.631  0.00  0.00    +0.000 C 
ATOM     10  C   UNL     1      -4.102  44.130  25.129  0.00  0.00    +0.000 C 
BRANCH   9  12
ATOM     11  C   UNL     1      -2.340  46.699  26.944  0.00  0.00    +0.000 C 
ATOM     12  C   UNL     1      -3.234  46.163  26.343  0.00  0.00    +0.000 C 
BRANCH  11  18
ATOM     13  C   UNL     1      -0.109  46.515  28.069  0.00  0.00    +0.000 C 
ATOM     14  C   UNL     1      -1.435  48.751  27.989  0.00  0.00    +0.000 C 
ATOM     15  C   UNL     1       0.951  47.435  28.503  0.00  0.00    +0.000 C 
ATOM     16  C   UNL     1       1.147  48.814  28.715  0.00  0.00    +0.000 C 
ATOM     17  C   UNL     1      -0.143  49.288  28.400  0.00  0.00    +0.000 C 
ATOM     18  C   UNL     1      -1.358  47.283  27.602  0.00  0.00    +0.000 C 
ATOM     19  C   UNL     1      -0.512  45.580  29.241  0.00  0.00    +0.000 C 
ATOM     20  C   UNL     1       0.443  45.668  26.882  0.00  0.00    +0.000 C 
ATOM     21  C   UNL     1      -2.501  48.977  29.065  0.00  0.00    +0.000 C 
BRANCH  14  22
ATOM     22  O   UNL     1      -1.876  49.499  26.878  0.00  0.00    +0.000 OA
ATOM     23  H   UNL     1      -2.567  48.916  26.514  0.00  0.00    +0.000 HD
ENDBRANCH  14  22
BRANCH  16  24
ATOM     24  O   UNL     1       1.789  49.236  29.871  0.00  0.00    +0.000 OA
BRANCH  24  26
ATOM     25  O   UNL     1       1.936  47.358  31.269  0.00  0.00    +0.000 OA
ATOM     26  C   UNL     1       1.467  48.420  30.905  0.00  0.00    +0.000 C 
ATOM     27  C   UNL     1       0.330  48.907  31.733  0.00  0.00    +0.000 C 
ENDBRANCH  24  26
ENDBRANCH  16  24
ENDBRANCH  11  18
ENDBRANCH   9  12
ENDBRANCH   8   9
ENDBRANCH   6   8
ENDBRANCH   4   7
ENDBRANCH   3   4
ENDBRANCH   2   3
BRANCH   1  28
ATOM     28  C   UNL     1     -12.856  47.739  29.185  0.00  0.00    +0.000 C 
BRANCH  28  29
ATOM     29  C   UNL     1     -13.727  47.675  30.142  0.00  0.00    +0.000 C 
ATOM     30  C   UNL     1     -15.162  48.014  29.874  0.00  0.00    +0.000 C 
BRANCH  29  32
ATOM     31  C   UNL     1     -12.957  47.010  32.553  0.00  0.00    +0.000 C 
ATOM     32  C   UNL     1     -13.311  47.323  31.449  0.00  0.00    +0.000 C 
BRANCH  31  33
ATOM     33  C   UNL     1     -12.502  46.596  33.957  0.00  0.00    +0.000 C 
BRANCH  33  34
ATOM     34  C   UNL     1     -12.124  46.247  35.151  0.00  0.00    +0.000 C 
ATOM     35  C   UNL     1     -11.151  47.170  35.856  0.00  0.00    +0.000 C 
BRANCH  34  37
ATOM     36  O   UNL     1     -12.019  44.410  36.675  0.00  0.00    +0.000 OA
ATOM     37  C   UNL     1     -12.608  44.967  35.754  0.00  0.00    +0.000 C 
BRANCH  37  38
ATOM     38  C   UNL     1     -13.808  44.325  35.272  0.00  0.00    +0.000 C 
BRANCH  38  40
ATOM     39  O   UNL     1     -14.699  42.677  33.812  0.00  0.00    +0.000 OA
ATOM     40  C   UNL     1     -15.022  43.674  34.821  0.00  0.00    +0.000 C 
ATOM     41  C   UNL     1     -15.192  42.156  35.045  0.00  0.00    +0.000 C 
ATOM     42  C   UNL     1     -16.313  44.532  34.569  0.00  0.00    +0.000 C 
ATOM     43  C   UNL     1     -16.508  41.620  34.916  0.00  0.00    +0.000 C 
ATOM     44  C   UNL     1     -17.428  43.593  34.420  0.00  0.00    +0.000 C 
ATOM     45  C   UNL     1     -17.729  42.226  34.571  0.00  0.00    +0.000 C 
ATOM     46  C   UNL     1     -14.165  41.306  35.799  0.00  0.00    +0.000 C 
ATOM     47  C   UNL     1     -16.484  45.403  35.838  0.00  0.00    +0.000 C 
ATOM     48  C   UNL     1     -16.024  45.375  33.308  0.00  0.00    +0.000 C 
BRANCH  45  49
ATOM     49  O   UNL     1     -18.925  41.813  35.075  0.00  0.00    +0.000 OA
ATOM     50  H   UNL     1     -19.639  41.850  34.414  0.00  0.00    +0.000 HD
ENDBRANCH  45  49
ENDBRANCH  38  40
ENDBRANCH  37  38
ENDBRANCH  34  37
ENDBRANCH  33  34
ENDBRANCH  31  33
ENDBRANCH  29  32
ENDBRANCH  28  29
ENDBRANCH   1  28
TORSDOF 19
ENDMDL
MODEL 9
REMARK VINA RESULT:      -6.2      9.143     17.929
REMARK  Name = 5281239_Fucoxanthin.pdbqt.pdb
REMARK  19 active torsions:
REMARK  status: ('A' for Active; 'I' for Inactive)
REMARK    1  A    between atoms: C_1  and  C_5
REMARK    2  A    between atoms: C_2  and  C_26
REMARK    3  A    between atoms: C_3  and  C_5
REMARK    4  A    between atoms: C_3  and  C_7
REMARK    5  A    between atoms: C_6  and  C_10
REMARK    6  A    between atoms: C_8  and  C_10
REMARK    7  A    between atoms: C_8  and  C_12
REMARK    8  A    between atoms: C_12  and  C_13
REMARK    9  A    between atoms: C_13  and  C_15
REMARK   10  A    between atoms: C_20  and  O_24
REMARK   11  A    between atoms: C_26  and  C_27
REMARK   12  A    between atoms: C_27  and  C_30
REMARK   13  A    between atoms: C_29  and  C_33
REMARK   14  A    between atoms: C_31  and  C_33
REMARK   15  A    between atoms: C_31  and  C_44
REMARK   16  A    between atoms: C_35  and  O_45
REMARK   17  A    between atoms: C_37  and  O_47
REMARK   18  A    between atoms: C_39  and  C_43
REMARK   19  A    between atoms: O_47  and  C_49
REMARK                            x       y       z     vdW  Elec       q    Type
REMARK                         _______ _______ _______ _____ _____    ______ ____
ROOT
ATOM      1  C   UNL     1      -3.542  44.257  37.808  0.00  0.00    +0.000 C 
ATOM      2  C   UNL     1      -3.129  45.049  37.008  0.00  0.00    +0.000 C 
ENDROOT
BRANCH   2   3
ATOM      3  C   UNL     1      -2.598  46.067  35.991  0.00  0.00    +0.000 C 
BRANCH   3   4
ATOM      4  C   UNL     1      -2.153  46.927  35.130  0.00  0.00    +0.000 C 
ATOM      5  C   UNL     1      -1.776  48.307  35.577  0.00  0.00    +0.000 C 
BRANCH   4   7
ATOM      6  C   UNL     1      -1.823  46.225  32.631  0.00  0.00    +0.000 C 
ATOM      7  C   UNL     1      -1.975  46.546  33.778  0.00  0.00    +0.000 C 
BRANCH   6   8
ATOM      8  C   UNL     1      -1.624  45.817  31.167  0.00  0.00    +0.000 C 
BRANCH   8   9
ATOM      9  C   UNL     1      -1.465  45.476  29.926  0.00  0.00    +0.000 C 
ATOM     10  C   UNL     1      -0.268  44.676  29.512  0.00  0.00    +0.000 C 
BRANCH   9  12
ATOM     11  C   UNL     1      -3.130  46.370  28.111  0.00  0.00    +0.000 C 
ATOM     12  C   UNL     1      -2.363  45.959  28.942  0.00  0.00    +0.000 C 
BRANCH  11  18
ATOM     13  C   UNL     1      -4.679  45.879  26.204  0.00  0.00    +0.000 C 
ATOM     14  C   UNL     1      -4.251  48.302  27.048  0.00  0.00    +0.000 C 
ATOM     15  C   UNL     1      -5.774  46.570  25.509  0.00  0.00    +0.000 C 
ATOM     16  C   UNL     1      -6.323  47.862  25.402  0.00  0.00    +0.000 C 
ATOM     17  C   UNL     1      -5.435  48.568  26.240  0.00  0.00    +0.000 C 
ATOM     18  C   UNL     1      -3.973  46.815  27.200  0.00  0.00    +0.000 C 
ATOM     19  C   UNL     1      -3.633  45.372  25.175  0.00  0.00    +0.000 C 
ATOM     20  C   UNL     1      -5.286  44.671  26.982  0.00  0.00    +0.000 C 
ATOM     21  C   UNL     1      -3.023  49.033  26.496  0.00  0.00    +0.000 C 
BRANCH  14  22
ATOM     22  O   UNL     1      -4.467  48.865  28.322  0.00  0.00    +0.000 OA
ATOM     23  H   UNL     1      -4.035  48.209  28.900  0.00  0.00    +0.000 HD
ENDBRANCH  14  22
BRANCH  16  24
ATOM     24  O   UNL     1      -6.648  48.357  24.146  0.00  0.00    +0.000 OA
BRANCH  24  26
ATOM     25  O   UNL     1      -8.846  47.669  23.697  0.00  0.00    +0.000 OA
ATOM     26  C   UNL     1      -7.994  48.473  24.028  0.00  0.00    +0.000 C 
ATOM     27  C   UNL     1      -8.519  49.828  24.350  0.00  0.00    +0.000 C 
ENDBRANCH  24  26
ENDBRANCH  16  24
ENDBRANCH  11  18
ENDBRANCH   9  12
ENDBRANCH   8   9
ENDBRANCH   6   8
ENDBRANCH   4   7
ENDBRANCH   3   4
ENDBRANCH   2   3
BRANCH   1  28
ATOM     28  C   UNL     1      -4.066  43.250  38.838  0.00  0.00    +0.000 C 
BRANCH  28  29
ATOM     29  C   UNL     1      -4.506  42.390  39.702  0.00  0.00    +0.000 C 
ATOM     30  C   UNL     1      -4.963  42.852  41.053  0.00  0.00    +0.000 C 
BRANCH  29  32
ATOM     31  C   UNL     1      -4.511  39.841  39.113  0.00  0.00    +0.000 C 
ATOM     32  C   UNL     1      -4.516  41.012  39.381  0.00  0.00    +0.000 C 
BRANCH  31  33
ATOM     33  C   UNL     1      -4.489  38.346  38.774  0.00  0.00    +0.000 C 
BRANCH  33  34
ATOM     34  C   UNL     1      -4.466  37.076  38.495  0.00  0.00    +0.000 C 
ATOM     35  C   UNL     1      -4.189  36.129  39.645  0.00  0.00    +0.000 C 
BRANCH  34  37
ATOM     36  O   UNL     1      -5.534  35.802  36.779  0.00  0.00    +0.000 OA
ATOM     37  C   UNL     1      -4.662  36.607  37.088  0.00  0.00    +0.000 C 
BRANCH  37  38
ATOM     38  C   UNL     1      -3.821  37.092  36.020  0.00  0.00    +0.000 C 
BRANCH  38  40
ATOM     39  O   UNL     1      -3.742  37.872  33.778  0.00  0.00    +0.000 OA
ATOM     40  C   UNL     1      -2.951  37.556  34.957  0.00  0.00    +0.000 C 
ATOM     41  C   UNL     1      -3.125  38.990  34.412  0.00  0.00    +0.000 C 
ATOM     42  C   UNL     1      -1.579  36.833  34.708  0.00  0.00    +0.000 C 
ATOM     43  C   UNL     1      -2.055  39.528  33.636  0.00  0.00    +0.000 C 
ATOM     44  C   UNL     1      -0.806  37.684  33.800  0.00  0.00    +0.000 C 
ATOM     45  C   UNL     1      -0.835  38.966  33.219  0.00  0.00    +0.000 C 
ATOM     46  C   UNL     1      -4.130  39.986  34.997  0.00  0.00    +0.000 C 
ATOM     47  C   UNL     1      -0.903  36.739  36.097  0.00  0.00    +0.000 C 
ATOM     48  C   UNL     1      -1.930  35.446  34.126  0.00  0.00    +0.000 C 
BRANCH  45  49
ATOM     49  O   UNL     1       0.300  39.703  33.064  0.00  0.00    +0.000 OA
ATOM     50  H   UNL     1       1.021  39.400  33.643  0.00  0.00    +0.000 HD
ENDBRANCH  45  49
ENDBRANCH  38  40
ENDBRANCH  37  38
ENDBRANCH  34  37
ENDBRANCH  33  34
ENDBRANCH  31  33
ENDBRANCH  29  32
ENDBRANCH  28  29
ENDBRANCH   1  28
TORSDOF 19
ENDMDL
