MODEL 1
REMARK VINA RESULT:      -6.5      0.000      0.000
REMARK  Name = 5281698_sexangularetin.pdbqt.pdb
REMARK  6 active torsions:
REMARK  status: ('A' for Active; 'I' for Inactive)
REMARK    1  A    between atoms: C_5  and  C_12
REMARK    2  A    between atoms: C_6  and  O_20
REMARK    3  A    between atoms: C_8  and  O_22
REMARK    4  A    between atoms: C_9  and  O_24
REMARK    5  A    between atoms: C_10  and  O_26
REMARK    6  A    between atoms: C_17  and  O_18
REMARK                            x       y       z     vdW  Elec       q    Type
REMARK                         _______ _______ _______ _____ _____    ______ ____
ROOT
ATOM      1  O   UNL     1     -18.013  39.378   6.051  0.00  0.00    +0.000 OA
ATOM      2  O   UNL     1     -14.205  40.649   5.504  0.00  0.00    +0.000 OA
ATOM      3  C   UNL     1     -16.494  41.196   5.546  0.00  0.00    +0.000 A 
ATOM      4  C   UNL     1     -17.780  40.693   5.735  0.00  0.00    +0.000 A 
ATOM      5  C   UNL     1     -16.947  38.490   6.132  0.00  0.00    +0.000 A 
ATOM      6  C   UNL     1     -18.881  41.553   5.621  0.00  0.00    +0.000 A 
ATOM      7  C   UNL     1     -15.365  40.271   5.656  0.00  0.00    +0.000 A 
ATOM      8  C   UNL     1     -15.662  38.855   5.964  0.00  0.00    +0.000 A 
ATOM      9  C   UNL     1     -16.298  42.554   5.269  0.00  0.00    +0.000 A 
ATOM     10  C   UNL     1     -18.674  42.917   5.384  0.00  0.00    +0.000 A 
ATOM     11  C   UNL     1     -17.388  43.416   5.196  0.00  0.00    +0.000 A 
ENDROOT
BRANCH   5  12
ATOM     12  C   UNL     1     -17.372  37.110   6.444  0.00  0.00    +0.000 A 
ATOM     13  C   UNL     1     -17.002  36.062   5.592  0.00  0.00    +0.000 A 
ATOM     14  C   UNL     1     -18.082  36.797   7.607  0.00  0.00    +0.000 A 
ATOM     15  C   UNL     1     -17.349  34.743   5.878  0.00  0.00    +0.000 A 
ATOM     16  C   UNL     1     -18.438  35.482   7.904  0.00  0.00    +0.000 A 
ATOM     17  C   UNL     1     -18.067  34.465   7.034  0.00  0.00    +0.000 A 
BRANCH  17  18
ATOM     18  O   UNL     1     -18.423  33.184   7.344  0.00  0.00    +0.000 OA
ATOM     19  H   UNL     1     -18.345  32.645   6.537  0.00  0.00    +0.000 HD
ENDBRANCH  17  18
ENDBRANCH   5  12
BRANCH   6  20
ATOM     20  O   UNL     1     -20.163  41.104   5.831  0.00  0.00    +0.000 OA
ATOM     21  C   UNL     1     -20.749  40.664   4.628  0.00  0.00    +0.000 C 
ENDBRANCH   6  20
BRANCH   8  22
ATOM     22  O   UNL     1     -14.584  37.999   6.079  0.00  0.00    +0.000 OA
ATOM     23  H   UNL     1     -14.327  37.771   5.160  0.00  0.00    +0.000 HD
ENDBRANCH   8  22
BRANCH   9  24
ATOM     24  O   UNL     1     -15.064  43.110   5.076  0.00  0.00    +0.000 OA
ATOM     25  H   UNL     1     -15.122  43.773   4.351  0.00  0.00    +0.000 HD
ENDBRANCH   9  24
BRANCH  10  26
ATOM     26  O   UNL     1     -19.739  43.772   5.353  0.00  0.00    +0.000 OA
ATOM     27  H   UNL     1     -19.919  44.079   6.261  0.00  0.00    +0.000 HD
ENDBRANCH  10  26
TORSDOF 6
ENDMDL
MODEL 2
REMARK VINA RESULT:      -5.9      1.452      1.552
REMARK  Name = 5281698_sexangularetin.pdbqt.pdb
REMARK  6 active torsions:
REMARK  status: ('A' for Active; 'I' for Inactive)
REMARK    1  A    between atoms: C_5  and  C_12
REMARK    2  A    between atoms: C_6  and  O_20
REMARK    3  A    between atoms: C_8  and  O_22
REMARK    4  A    between atoms: C_9  and  O_24
REMARK    5  A    between atoms: C_10  and  O_26
REMARK    6  A    between atoms: C_17  and  O_18
REMARK                            x       y       z     vdW  Elec       q    Type
REMARK                         _______ _______ _______ _____ _____    ______ ____
ROOT
ATOM      1  O   UNL     1     -18.632  40.141   5.622  0.00  0.00    +0.000 OA
ATOM      2  O   UNL     1     -14.582  40.259   5.680  0.00  0.00    +0.000 OA
ATOM      3  C   UNL     1     -16.595  41.379   5.192  0.00  0.00    +0.000 A 
ATOM      4  C   UNL     1     -17.984  41.270   5.187  0.00  0.00    +0.000 A 
ATOM      5  C   UNL     1     -17.892  39.037   6.031  0.00  0.00    +0.000 A 
ATOM      6  C   UNL     1     -18.760  42.350   4.743  0.00  0.00    +0.000 A 
ATOM      7  C   UNL     1     -15.810  40.229   5.646  0.00  0.00    +0.000 A 
ATOM      8  C   UNL     1     -16.547  39.019   6.074  0.00  0.00    +0.000 A 
ATOM      9  C   UNL     1     -15.976  42.565   4.782  0.00  0.00    +0.000 A 
ATOM     10  C   UNL     1     -18.134  43.546   4.373  0.00  0.00    +0.000 A 
ATOM     11  C   UNL     1     -16.746  43.652   4.380  0.00  0.00    +0.000 A 
ENDROOT
BRANCH   5  12
ATOM     12  C   UNL     1     -18.740  37.895   6.432  0.00  0.00    +0.000 A 
ATOM     13  C   UNL     1     -18.410  36.603   6.003  0.00  0.00    +0.000 A 
ATOM     14  C   UNL     1     -19.834  38.048   7.289  0.00  0.00    +0.000 A 
ATOM     15  C   UNL     1     -19.162  35.499   6.398  0.00  0.00    +0.000 A 
ATOM     16  C   UNL     1     -20.596  36.952   7.689  0.00  0.00    +0.000 A 
ATOM     17  C   UNL     1     -20.252  35.684   7.239  0.00  0.00    +0.000 A 
BRANCH  17  18
ATOM     18  O   UNL     1     -21.010  34.623   7.643  0.00  0.00    +0.000 OA
ATOM     19  H   UNL     1     -20.745  34.391   8.551  0.00  0.00    +0.000 HD
ENDBRANCH  17  18
ENDBRANCH   5  12
BRANCH   6  20
ATOM     20  O   UNL     1     -20.132  42.294   4.751  0.00  0.00    +0.000 OA
ATOM     21  C   UNL     1     -20.628  41.814   3.523  0.00  0.00    +0.000 C 
ENDBRANCH   6  20
BRANCH   8  22
ATOM     22  O   UNL     1     -15.792  37.949   6.514  0.00  0.00    +0.000 OA
ATOM     23  H   UNL     1     -15.254  38.291   7.258  0.00  0.00    +0.000 HD
ENDBRANCH   8  22
BRANCH   9  24
ATOM     24  O   UNL     1     -14.619  42.737   4.766  0.00  0.00    +0.000 OA
ATOM     25  H   UNL     1     -14.420  43.694   4.650  0.00  0.00    +0.000 HD
ENDBRANCH   9  24
BRANCH  10  26
ATOM     26  O   UNL     1     -18.889  44.628   4.018  0.00  0.00    +0.000 OA
ATOM     27  H   UNL     1     -18.292  45.364   3.788  0.00  0.00    +0.000 HD
ENDBRANCH  10  26
TORSDOF 6
ENDMDL
MODEL 3
REMARK VINA RESULT:      -5.8      1.826      6.263
REMARK  Name = 5281698_sexangularetin.pdbqt.pdb
REMARK  6 active torsions:
REMARK  status: ('A' for Active; 'I' for Inactive)
REMARK    1  A    between atoms: C_5  and  C_12
REMARK    2  A    between atoms: C_6  and  O_20
REMARK    3  A    between atoms: C_8  and  O_22
REMARK    4  A    between atoms: C_9  and  O_24
REMARK    5  A    between atoms: C_10  and  O_26
REMARK    6  A    between atoms: C_17  and  O_18
REMARK                            x       y       z     vdW  Elec       q    Type
REMARK                         _______ _______ _______ _____ _____    ______ ____
ROOT
ATOM      1  O   UNL     1     -18.451  38.710   6.254  0.00  0.00    +0.000 OA
ATOM      2  O   UNL     1     -15.973  35.529   5.863  0.00  0.00    +0.000 OA
ATOM      3  C   UNL     1     -18.095  36.326   6.497  0.00  0.00    +0.000 A 
ATOM      4  C   UNL     1     -18.893  37.463   6.618  0.00  0.00    +0.000 A 
ATOM      5  C   UNL     1     -17.147  38.874   5.802  0.00  0.00    +0.000 A 
ATOM      6  C   UNL     1     -20.201  37.338   7.107  0.00  0.00    +0.000 A 
ATOM      7  C   UNL     1     -16.729  36.488   5.997  0.00  0.00    +0.000 A 
ATOM      8  C   UNL     1     -16.281  37.855   5.649  0.00  0.00    +0.000 A 
ATOM      9  C   UNL     1     -18.600  35.066   6.837  0.00  0.00    +0.000 A 
ATOM     10  C   UNL     1     -20.711  36.070   7.407  0.00  0.00    +0.000 A 
ATOM     11  C   UNL     1     -19.911  34.937   7.285  0.00  0.00    +0.000 A 
ENDROOT
BRANCH   5  12
ATOM     12  C   UNL     1     -16.821  40.281   5.489  0.00  0.00    +0.000 A 
ATOM     13  C   UNL     1     -16.099  41.047   6.413  0.00  0.00    +0.000 A 
ATOM     14  C   UNL     1     -17.152  40.864   4.262  0.00  0.00    +0.000 A 
ATOM     15  C   UNL     1     -15.737  42.362   6.132  0.00  0.00    +0.000 A 
ATOM     16  C   UNL     1     -16.798  42.180   3.969  0.00  0.00    +0.000 A 
ATOM     17  C   UNL     1     -16.092  42.919   4.910  0.00  0.00    +0.000 A 
BRANCH  17  18
ATOM     18  O   UNL     1     -15.753  44.205   4.604  0.00  0.00    +0.000 OA
ATOM     19  H   UNL     1     -16.533  44.768   4.756  0.00  0.00    +0.000 HD
ENDBRANCH  17  18
ENDBRANCH   5  12
BRANCH   6  20
ATOM     20  O   UNL     1     -21.030  38.429   7.212  0.00  0.00    +0.000 OA
ATOM     21  C   UNL     1     -21.654  38.713   5.982  0.00  0.00    +0.000 C 
ENDBRANCH   6  20
BRANCH   8  22
ATOM     22  O   UNL     1     -14.993  37.989   5.165  0.00  0.00    +0.000 OA
ATOM     23  H   UNL     1     -15.059  37.854   4.196  0.00  0.00    +0.000 HD
ENDBRANCH   8  22
BRANCH   9  24
ATOM     24  O   UNL     1     -17.871  33.914   6.739  0.00  0.00    +0.000 OA
ATOM     25  H   UNL     1     -18.462  33.146   6.907  0.00  0.00    +0.000 HD
ENDBRANCH   9  24
BRANCH  10  26
ATOM     26  O   UNL     1     -22.011  35.936   7.807  0.00  0.00    +0.000 OA
ATOM     27  H   UNL     1     -22.022  35.644   8.737  0.00  0.00    +0.000 HD
ENDBRANCH  10  26
TORSDOF 6
ENDMDL
MODEL 4
REMARK VINA RESULT:      -5.8      2.220      6.040
REMARK  Name = 5281698_sexangularetin.pdbqt.pdb
REMARK  6 active torsions:
REMARK  status: ('A' for Active; 'I' for Inactive)
REMARK    1  A    between atoms: C_5  and  C_12
REMARK    2  A    between atoms: C_6  and  O_20
REMARK    3  A    between atoms: C_8  and  O_22
REMARK    4  A    between atoms: C_9  and  O_24
REMARK    5  A    between atoms: C_10  and  O_26
REMARK    6  A    between atoms: C_17  and  O_18
REMARK                            x       y       z     vdW  Elec       q    Type
REMARK                         _______ _______ _______ _____ _____    ______ ____
ROOT
ATOM      1  O   UNL     1     -18.244  40.314   4.941  0.00  0.00    +0.000 OA
ATOM      2  O   UNL     1     -15.872  37.811   7.068  0.00  0.00    +0.000 OA
ATOM      3  C   UNL     1     -18.059  38.452   6.479  0.00  0.00    +0.000 A 
ATOM      4  C   UNL     1     -18.818  39.352   5.732  0.00  0.00    +0.000 A 
ATOM      5  C   UNL     1     -16.860  40.450   4.915  0.00  0.00    +0.000 A 
ATOM      6  C   UNL     1     -20.217  39.268   5.765  0.00  0.00    +0.000 A 
ATOM      7  C   UNL     1     -16.601  38.573   6.436  0.00  0.00    +0.000 A 
ATOM      8  C   UNL     1     -16.023  39.647   5.598  0.00  0.00    +0.000 A 
ATOM      9  C   UNL     1     -18.685  37.457   7.237  0.00  0.00    +0.000 A 
ATOM     10  C   UNL     1     -20.833  38.244   6.494  0.00  0.00    +0.000 A 
ATOM     11  C   UNL     1     -20.072  37.348   7.239  0.00  0.00    +0.000 A 
ENDROOT
BRANCH   5  12
ATOM     12  C   UNL     1     -16.408  41.555   4.045  0.00  0.00    +0.000 A 
ATOM     13  C   UNL     1     -16.286  41.345   2.666  0.00  0.00    +0.000 A 
ATOM     14  C   UNL     1     -16.160  42.838   4.543  0.00  0.00    +0.000 A 
ATOM     15  C   UNL     1     -15.904  42.377   1.811  0.00  0.00    +0.000 A 
ATOM     16  C   UNL     1     -15.775  43.878   3.699  0.00  0.00    +0.000 A 
ATOM     17  C   UNL     1     -15.650  43.637   2.337  0.00  0.00    +0.000 A 
BRANCH  17  18
ATOM     18  O   UNL     1     -15.274  44.669   1.526  0.00  0.00    +0.000 OA
ATOM     19  H   UNL     1     -14.958  45.397   2.090  0.00  0.00    +0.000 HD
ENDBRANCH  17  18
ENDBRANCH   5  12
BRANCH   6  20
ATOM     20  O   UNL     1     -21.001  40.115   5.019  0.00  0.00    +0.000 OA
ATOM     21  C   UNL     1     -21.436  41.212   5.788  0.00  0.00    +0.000 C 
ENDBRANCH   6  20
BRANCH   8  22
ATOM     22  O   UNL     1     -14.645  39.738   5.557  0.00  0.00    +0.000 OA
ATOM     23  H   UNL     1     -14.316  39.067   6.191  0.00  0.00    +0.000 HD
ENDBRANCH   8  22
BRANCH   9  24
ATOM     24  O   UNL     1     -17.998  36.543   7.989  0.00  0.00    +0.000 OA
ATOM     25  H   UNL     1     -18.626  36.097   8.601  0.00  0.00    +0.000 HD
ENDBRANCH   9  24
BRANCH  10  26
ATOM     26  O   UNL     1     -22.192  38.110   6.464  0.00  0.00    +0.000 OA
ATOM     27  H   UNL     1     -22.482  38.074   5.534  0.00  0.00    +0.000 HD
ENDBRANCH  10  26
TORSDOF 6
ENDMDL
MODEL 5
REMARK VINA RESULT:      -5.4      1.901      7.106
REMARK  Name = 5281698_sexangularetin.pdbqt.pdb
REMARK  6 active torsions:
REMARK  status: ('A' for Active; 'I' for Inactive)
REMARK    1  A    between atoms: C_5  and  C_12
REMARK    2  A    between atoms: C_6  and  O_20
REMARK    3  A    between atoms: C_8  and  O_22
REMARK    4  A    between atoms: C_9  and  O_24
REMARK    5  A    between atoms: C_10  and  O_26
REMARK    6  A    between atoms: C_17  and  O_18
REMARK                            x       y       z     vdW  Elec       q    Type
REMARK                         _______ _______ _______ _____ _____    ______ ____
ROOT
ATOM      1  O   UNL     1     -17.613  38.291   5.587  0.00  0.00    +0.000 OA
ATOM      2  O   UNL     1     -21.128  37.830   7.549  0.00  0.00    +0.000 OA
ATOM      3  C   UNL     1     -19.289  36.800   6.500  0.00  0.00    +0.000 A 
ATOM      4  C   UNL     1     -18.093  37.027   5.820  0.00  0.00    +0.000 A 
ATOM      5  C   UNL     1     -18.358  39.396   5.983  0.00  0.00    +0.000 A 
ATOM      6  C   UNL     1     -17.336  35.936   5.373  0.00  0.00    +0.000 A 
ATOM      7  C   UNL     1     -20.067  37.959   6.942  0.00  0.00    +0.000 A 
ATOM      8  C   UNL     1     -19.530  39.304   6.640  0.00  0.00    +0.000 A 
ATOM      9  C   UNL     1     -19.721  35.493   6.755  0.00  0.00    +0.000 A 
ATOM     10  C   UNL     1     -17.755  34.634   5.668  0.00  0.00    +0.000 A 
ATOM     11  C   UNL     1     -18.950  34.410   6.347  0.00  0.00    +0.000 A 
ENDROOT
BRANCH   5  12
ATOM     12  C   UNL     1     -17.718  40.678   5.624  0.00  0.00    +0.000 A 
ATOM     13  C   UNL     1     -16.537  41.067   6.268  0.00  0.00    +0.000 A 
ATOM     14  C   UNL     1     -18.217  41.497   4.606  0.00  0.00    +0.000 A 
ATOM     15  C   UNL     1     -15.884  42.248   5.924  0.00  0.00    +0.000 A 
ATOM     16  C   UNL     1     -17.575  42.683   4.254  0.00  0.00    +0.000 A 
ATOM     17  C   UNL     1     -16.411  43.049   4.918  0.00  0.00    +0.000 A 
BRANCH  17  18
ATOM     18  O   UNL     1     -15.795  44.212   4.557  0.00  0.00    +0.000 OA
ATOM     19  H   UNL     1     -16.403  44.711   3.983  0.00  0.00    +0.000 HD
ENDBRANCH  17  18
ENDBRANCH   5  12
BRANCH   6  20
ATOM     20  O   UNL     1     -16.137  36.117   4.727  0.00  0.00    +0.000 OA
ATOM     21  C   UNL     1     -15.094  36.341   5.647  0.00  0.00    +0.000 C 
ENDBRANCH   6  20
BRANCH   8  22
ATOM     22  O   UNL     1     -20.268  40.387   7.078  0.00  0.00    +0.000 OA
ATOM     23  H   UNL     1     -20.048  41.122   6.468  0.00  0.00    +0.000 HD
ENDBRANCH   8  22
BRANCH   9  24
ATOM     24  O   UNL     1     -20.882  35.203   7.418  0.00  0.00    +0.000 OA
ATOM     25  H   UNL     1     -20.672  35.011   8.360  0.00  0.00    +0.000 HD
ENDBRANCH   9  24
BRANCH  10  26
ATOM     26  O   UNL     1     -16.979  33.570   5.304  0.00  0.00    +0.000 OA
ATOM     27  H   UNL     1     -16.125  33.632   5.772  0.00  0.00    +0.000 HD
ENDBRANCH  10  26
TORSDOF 6
ENDMDL
MODEL 6
REMARK VINA RESULT:      -5.4     12.955     14.584
REMARK  Name = 5281698_sexangularetin.pdbqt.pdb
REMARK  6 active torsions:
REMARK  status: ('A' for Active; 'I' for Inactive)
REMARK    1  A    between atoms: C_5  and  C_12
REMARK    2  A    between atoms: C_6  and  O_20
REMARK    3  A    between atoms: C_8  and  O_22
REMARK    4  A    between atoms: C_9  and  O_24
REMARK    5  A    between atoms: C_10  and  O_26
REMARK    6  A    between atoms: C_17  and  O_18
REMARK                            x       y       z     vdW  Elec       q    Type
REMARK                         _______ _______ _______ _____ _____    ______ ____
ROOT
ATOM      1  O   UNL     1     -16.847  52.893   6.974  0.00  0.00    +0.000 OA
ATOM      2  O   UNL     1     -14.848  56.274   5.982  0.00  0.00    +0.000 OA
ATOM      3  C   UNL     1     -16.282  54.540   5.291  0.00  0.00    +0.000 A 
ATOM      4  C   UNL     1     -16.935  53.376   5.693  0.00  0.00    +0.000 A 
ATOM      5  C   UNL     1     -16.037  53.540   7.901  0.00  0.00    +0.000 A 
ATOM      6  C   UNL     1     -17.728  52.677   4.773  0.00  0.00    +0.000 A 
ATOM      7  C   UNL     1     -15.448  55.241   6.269  0.00  0.00    +0.000 A 
ATOM      8  C   UNL     1     -15.353  54.667   7.630  0.00  0.00    +0.000 A 
ATOM      9  C   UNL     1     -16.435  55.023   3.986  0.00  0.00    +0.000 A 
ATOM     10  C   UNL     1     -17.907  53.189   3.483  0.00  0.00    +0.000 A 
ATOM     11  C   UNL     1     -17.254  54.352   3.084  0.00  0.00    +0.000 A 
ENDROOT
BRANCH   5  12
ATOM     12  C   UNL     1     -16.025  52.871   9.219  0.00  0.00    +0.000 A 
ATOM     13  C   UNL     1     -15.291  51.690   9.389  0.00  0.00    +0.000 A 
ATOM     14  C   UNL     1     -16.670  53.415  10.333  0.00  0.00    +0.000 A 
ATOM     15  C   UNL     1     -15.223  51.057  10.628  0.00  0.00    +0.000 A 
ATOM     16  C   UNL     1     -16.612  52.791  11.578  0.00  0.00    +0.000 A 
ATOM     17  C   UNL     1     -15.886  51.614  11.714  0.00  0.00    +0.000 A 
BRANCH  17  18
ATOM     18  O   UNL     1     -15.839  51.019  12.941  0.00  0.00    +0.000 OA
ATOM     19  H   UNL     1     -16.672  51.214  13.405  0.00  0.00    +0.000 HD
ENDBRANCH  17  18
ENDBRANCH   5  12
BRANCH   6  20
ATOM     20  O   UNL     1     -18.413  51.543   5.138  0.00  0.00    +0.000 OA
ATOM     21  C   UNL     1     -19.670  51.864   5.687  0.00  0.00    +0.000 C 
ENDBRANCH   6  20
BRANCH   8  22
ATOM     22  O   UNL     1     -14.574  55.349   8.545  0.00  0.00    +0.000 OA
ATOM     23  H   UNL     1     -13.954  55.891   8.014  0.00  0.00    +0.000 HD
ENDBRANCH   8  22
BRANCH   9  24
ATOM     24  O   UNL     1     -15.824  56.159   3.531  0.00  0.00    +0.000 OA
ATOM     25  H   UNL     1     -16.244  56.429   2.683  0.00  0.00    +0.000 HD
ENDBRANCH   9  24
BRANCH  10  26
ATOM     26  O   UNL     1     -18.744  52.554   2.609  0.00  0.00    +0.000 OA
ATOM     27  H   UNL     1     -19.110  51.763   3.046  0.00  0.00    +0.000 HD
ENDBRANCH  10  26
TORSDOF 6
ENDMDL
MODEL 7
REMARK VINA RESULT:      -5.4      2.028      6.949
REMARK  Name = 5281698_sexangularetin.pdbqt.pdb
REMARK  6 active torsions:
REMARK  status: ('A' for Active; 'I' for Inactive)
REMARK    1  A    between atoms: C_5  and  C_12
REMARK    2  A    between atoms: C_6  and  O_20
REMARK    3  A    between atoms: C_8  and  O_22
REMARK    4  A    between atoms: C_9  and  O_24
REMARK    5  A    between atoms: C_10  and  O_26
REMARK    6  A    between atoms: C_17  and  O_18
REMARK                            x       y       z     vdW  Elec       q    Type
REMARK                         _______ _______ _______ _____ _____    ______ ____
ROOT
ATOM      1  O   UNL     1     -17.376  39.745   5.177  0.00  0.00    +0.000 OA
ATOM      2  O   UNL     1     -20.939  40.526   6.941  0.00  0.00    +0.000 OA
ATOM      3  C   UNL     1     -19.225  38.965   6.533  0.00  0.00    +0.000 A 
ATOM      4  C   UNL     1     -18.004  38.757   5.893  0.00  0.00    +0.000 A 
ATOM      5  C   UNL     1     -17.990  40.984   5.026  0.00  0.00    +0.000 A 
ATOM      6  C   UNL     1     -17.376  37.508   5.992  0.00  0.00    +0.000 A 
ATOM      7  C   UNL     1     -19.865  40.275   6.400  0.00  0.00    +0.000 A 
ATOM      8  C   UNL     1     -19.170  41.301   5.591  0.00  0.00    +0.000 A 
ATOM      9  C   UNL     1     -19.810  37.943   7.290  0.00  0.00    +0.000 A 
ATOM     10  C   UNL     1     -17.948  36.506   6.784  0.00  0.00    +0.000 A 
ATOM     11  C   UNL     1     -19.168  36.716   7.423  0.00  0.00    +0.000 A 
ENDROOT
BRANCH   5  12
ATOM     12  C   UNL     1     -17.200  41.918   4.199  0.00  0.00    +0.000 A 
ATOM     13  C   UNL     1     -17.240  41.812   2.803  0.00  0.00    +0.000 A 
ATOM     14  C   UNL     1     -16.458  42.962   4.761  0.00  0.00    +0.000 A 
ATOM     15  C   UNL     1     -16.542  42.704   1.991  0.00  0.00    +0.000 A 
ATOM     16  C   UNL     1     -15.753  43.859   3.961  0.00  0.00    +0.000 A 
ATOM     17  C   UNL     1     -15.802  43.722   2.579  0.00  0.00    +0.000 A 
BRANCH  17  18
ATOM     18  O   UNL     1     -15.107  44.612   1.813  0.00  0.00    +0.000 OA
ATOM     19  H   UNL     1     -14.206  44.683   2.174  0.00  0.00    +0.000 HD
ENDBRANCH  17  18
ENDBRANCH   5  12
BRANCH   6  20
ATOM     20  O   UNL     1     -16.158  37.273   5.402  0.00  0.00    +0.000 OA
ATOM     21  C   UNL     1     -15.101  37.686   6.237  0.00  0.00    +0.000 C 
ENDBRANCH   6  20
BRANCH   8  22
ATOM     22  O   UNL     1     -19.780  42.536   5.487  0.00  0.00    +0.000 OA
ATOM     23  H   UNL     1     -19.084  43.151   5.173  0.00  0.00    +0.000 HD
ENDBRANCH   8  22
BRANCH   9  24
ATOM     24  O   UNL     1     -21.003  38.083   7.944  0.00  0.00    +0.000 OA
ATOM     25  H   UNL     1     -21.735  38.024   7.289  0.00  0.00    +0.000 HD
ENDBRANCH   9  24
BRANCH  10  26
ATOM     26  O   UNL     1     -17.299  35.315   6.949  0.00  0.00    +0.000 OA
ATOM     27  H   UNL     1     -16.422  35.489   7.338  0.00  0.00    +0.000 HD
ENDBRANCH  10  26
TORSDOF 6
ENDMDL
MODEL 8
REMARK VINA RESULT:      -5.3     13.953     15.168
REMARK  Name = 5281698_sexangularetin.pdbqt.pdb
REMARK  6 active torsions:
REMARK  status: ('A' for Active; 'I' for Inactive)
REMARK    1  A    between atoms: C_5  and  C_12
REMARK    2  A    between atoms: C_6  and  O_20
REMARK    3  A    between atoms: C_8  and  O_22
REMARK    4  A    between atoms: C_9  and  O_24
REMARK    5  A    between atoms: C_10  and  O_26
REMARK    6  A    between atoms: C_17  and  O_18
REMARK                            x       y       z     vdW  Elec       q    Type
REMARK                         _______ _______ _______ _____ _____    ______ ____
ROOT
ATOM      1  O   UNL     1     -18.474  53.192  11.849  0.00  0.00    +0.000 OA
ATOM      2  O   UNL     1     -15.082  51.450  10.479  0.00  0.00    +0.000 OA
ATOM      3  C   UNL     1     -16.931  52.831  10.016  0.00  0.00    +0.000 A 
ATOM      4  C   UNL     1     -18.093  53.392  10.546  0.00  0.00    +0.000 A 
ATOM      5  C   UNL     1     -17.720  52.359  12.668  0.00  0.00    +0.000 A 
ATOM      6  C   UNL     1     -18.897  54.206   9.736  0.00  0.00    +0.000 A 
ATOM      7  C   UNL     1     -16.119  51.973  10.881  0.00  0.00    +0.000 A 
ATOM      8  C   UNL     1     -16.584  51.757  12.269  0.00  0.00    +0.000 A 
ATOM      9  C   UNL     1     -16.556  53.096   8.694  0.00  0.00    +0.000 A 
ATOM     10  C   UNL     1     -18.493  54.498   8.428  0.00  0.00    +0.000 A 
ATOM     11  C   UNL     1     -17.332  53.936   7.903  0.00  0.00    +0.000 A 
ENDROOT
BRANCH   5  12
ATOM     12  C   UNL     1     -18.287  52.223  14.025  0.00  0.00    +0.000 A 
ATOM     13  C   UNL     1     -17.921  53.134  15.023  0.00  0.00    +0.000 A 
ATOM     14  C   UNL     1     -19.238  51.247  14.337  0.00  0.00    +0.000 A 
ATOM     15  C   UNL     1     -18.469  53.061  16.302  0.00  0.00    +0.000 A 
ATOM     16  C   UNL     1     -19.793  51.161  15.613  0.00  0.00    +0.000 A 
ATOM     17  C   UNL     1     -19.403  52.072  16.586  0.00  0.00    +0.000 A 
BRANCH  17  18
ATOM     18  O   UNL     1     -19.958  51.973  17.829  0.00  0.00    +0.000 OA
ATOM     19  H   UNL     1     -19.316  51.535  18.414  0.00  0.00    +0.000 HD
ENDBRANCH  17  18
ENDBRANCH   5  12
BRANCH   6  20
ATOM     20  O   UNL     1     -20.033  54.802  10.228  0.00  0.00    +0.000 OA
ATOM     21  C   UNL     1     -21.170  54.009   9.982  0.00  0.00    +0.000 C 
ENDBRANCH   6  20
BRANCH   8  22
ATOM     22  O   UNL     1     -15.798  50.956  13.076  0.00  0.00    +0.000 OA
ATOM     23  H   UNL     1     -14.950  51.437  13.181  0.00  0.00    +0.000 HD
ENDBRANCH   8  22
BRANCH   9  24
ATOM     24  O   UNL     1     -15.429  52.580   8.117  0.00  0.00    +0.000 OA
ATOM     25  H   UNL     1     -15.024  51.928   8.734  0.00  0.00    +0.000 HD
ENDBRANCH   9  24
BRANCH  10  26
ATOM     26  O   UNL     1     -19.232  55.355   7.663  0.00  0.00    +0.000 OA
ATOM     27  H   UNL     1     -19.480  54.900   6.837  0.00  0.00    +0.000 HD
ENDBRANCH  10  26
TORSDOF 6
ENDMDL
MODEL 9
REMARK VINA RESULT:      -5.3     13.355     15.723
REMARK  Name = 5281698_sexangularetin.pdbqt.pdb
REMARK  6 active torsions:
REMARK  status: ('A' for Active; 'I' for Inactive)
REMARK    1  A    between atoms: C_5  and  C_12
REMARK    2  A    between atoms: C_6  and  O_20
REMARK    3  A    between atoms: C_8  and  O_22
REMARK    4  A    between atoms: C_9  and  O_24
REMARK    5  A    between atoms: C_10  and  O_26
REMARK    6  A    between atoms: C_17  and  O_18
REMARK                            x       y       z     vdW  Elec       q    Type
REMARK                         _______ _______ _______ _____ _____    ______ ____
ROOT
ATOM      1  O   UNL     1     -14.776  54.468   7.800  0.00  0.00    +0.000 OA
ATOM      2  O   UNL     1     -17.505  53.889   4.861  0.00  0.00    +0.000 OA
ATOM      3  C   UNL     1     -15.582  55.037   5.588  0.00  0.00    +0.000 A 
ATOM      4  C   UNL     1     -14.683  55.197   6.641  0.00  0.00    +0.000 A 
ATOM      5  C   UNL     1     -15.829  53.577   7.971  0.00  0.00    +0.000 A 
ATOM      6  C   UNL     1     -13.632  56.115   6.517  0.00  0.00    +0.000 A 
ATOM      7  C   UNL     1     -16.679  54.081   5.751  0.00  0.00    +0.000 A 
ATOM      8  C   UNL     1     -16.763  53.341   7.030  0.00  0.00    +0.000 A 
ATOM      9  C   UNL     1     -15.425  55.769   4.405  0.00  0.00    +0.000 A 
ATOM     10  C   UNL     1     -13.459  56.813   5.316  0.00  0.00    +0.000 A 
ATOM     11  C   UNL     1     -14.359  56.651   4.266  0.00  0.00    +0.000 A 
ENDROOT
BRANCH   5  12
ATOM     12  C   UNL     1     -15.803  52.903   9.285  0.00  0.00    +0.000 A 
ATOM     13  C   UNL     1     -16.437  53.498  10.382  0.00  0.00    +0.000 A 
ATOM     14  C   UNL     1     -15.219  51.644   9.462  0.00  0.00    +0.000 A 
ATOM     15  C   UNL     1     -16.469  52.870  11.625  0.00  0.00    +0.000 A 
ATOM     16  C   UNL     1     -15.242  51.006  10.701  0.00  0.00    +0.000 A 
ATOM     17  C   UNL     1     -15.868  51.626  11.774  0.00  0.00    +0.000 A 
BRANCH  17  18
ATOM     18  O   UNL     1     -15.881  50.984  12.978  0.00  0.00    +0.000 OA
ATOM     19  H   UNL     1     -15.598  50.064  12.834  0.00  0.00    +0.000 HD
ENDBRANCH  17  18
ENDBRANCH   5  12
BRANCH   6  20
ATOM     20  O   UNL     1     -12.706  56.280   7.519  0.00  0.00    +0.000 OA
ATOM     21  C   UNL     1     -13.065  57.343   8.371  0.00  0.00    +0.000 C 
ENDBRANCH   6  20
BRANCH   8  22
ATOM     22  O   UNL     1     -17.795  52.432   7.162  0.00  0.00    +0.000 OA
ATOM     23  H   UNL     1     -17.468  51.599   6.763  0.00  0.00    +0.000 HD
ENDBRANCH   8  22
BRANCH   9  24
ATOM     24  O   UNL     1     -16.270  55.656   3.336  0.00  0.00    +0.000 OA
ATOM     25  H   UNL     1     -17.155  56.003   3.590  0.00  0.00    +0.000 HD
ENDBRANCH   9  24
BRANCH  10  26
ATOM     26  O   UNL     1     -12.389  57.649   5.162  0.00  0.00    +0.000 OA
ATOM     27  H   UNL     1     -11.942  57.745   6.024  0.00  0.00    +0.000 HD
ENDBRANCH  10  26
TORSDOF 6
ENDMDL
