MODEL 1
REMARK VINA RESULT:      -7.5      0.000      0.000
REMARK  Name = 5281224_Astaxanthin.pdbqt.pdb
REMARK  16 active torsions:
REMARK  status: ('A' for Active; 'I' for Inactive)
REMARK    1  A    between atoms: C_1  and  C_5
REMARK    2  A    between atoms: C_2  and  C_27
REMARK    3  A    between atoms: C_3  and  C_5
REMARK    4  A    between atoms: C_3  and  C_7
REMARK    5  A    between atoms: C_6  and  C_10
REMARK    6  A    between atoms: C_8  and  C_10
REMARK    7  A    between atoms: C_8  and  C_12
REMARK    8  A    between atoms: C_11  and  C_16
REMARK    9  A    between atoms: C_17  and  O_23
REMARK   10  A    between atoms: C_25  and  C_27
REMARK   11  A    between atoms: C_25  and  C_29
REMARK   12  A    between atoms: C_28  and  C_32
REMARK   13  A    between atoms: C_30  and  C_32
REMARK   14  A    between atoms: C_30  and  C_34
REMARK   15  A    between atoms: C_33  and  C_38
REMARK   16  A    between atoms: C_39  and  O_45
REMARK                            x       y       z     vdW  Elec       q    Type
REMARK                         _______ _______ _______ _____ _____    ______ ____
ROOT
ATOM      1  C   UNL     1       0.048  52.629  26.791  0.00  0.00    +0.000 C 
ATOM      2  C   UNL     1      -0.132  51.480  27.088  0.00  0.00    +0.000 C 
ENDROOT
BRANCH   2   3
ATOM      3  C   UNL     1      -0.362  50.014  27.476  0.00  0.00    +0.000 C 
BRANCH   3   4
ATOM      4  C   UNL     1      -0.558  48.777  27.810  0.00  0.00    +0.000 C 
ATOM      5  C   UNL     1       0.414  48.084  28.716  0.00  0.00    +0.000 C 
BRANCH   4   7
ATOM      6  C   UNL     1      -2.565  47.451  26.781  0.00  0.00    +0.000 C 
ATOM      7  C   UNL     1      -1.644  48.059  27.255  0.00  0.00    +0.000 C 
BRANCH   6   8
ATOM      8  C   UNL     1      -3.738  46.675  26.173  0.00  0.00    +0.000 C 
BRANCH   8   9
ATOM      9  C   UNL     1      -4.733  46.024  25.652  0.00  0.00    +0.000 C 
ATOM     10  C   UNL     1      -4.522  44.640  25.119  0.00  0.00    +0.000 C 
BRANCH   9  12
ATOM     11  C   UNL     1      -7.159  47.004  25.776  0.00  0.00    +0.000 C 
ATOM     12  C   UNL     1      -6.041  46.562  25.728  0.00  0.00    +0.000 C 
BRANCH  11  16
ATOM     13  O   UNL     1     -11.014  48.667  28.304  0.00  0.00    +0.000 OA
ATOM     14  C   UNL     1      -9.250  47.722  24.471  0.00  0.00    +0.000 C 
ATOM     15  C   UNL     1     -10.557  48.249  24.824  0.00  0.00    +0.000 C 
ATOM     16  C   UNL     1      -8.510  47.527  25.820  0.00  0.00    +0.000 C 
ATOM     17  C   UNL     1     -11.255  48.595  25.977  0.00  0.00    +0.000 C 
ATOM     18  C   UNL     1      -8.474  48.749  23.614  0.00  0.00    +0.000 C 
ATOM     19  C   UNL     1      -9.398  46.357  23.764  0.00  0.00    +0.000 C 
ATOM     20  C   UNL     1      -9.078  47.830  27.025  0.00  0.00    +0.000 C 
ATOM     21  C   UNL     1     -10.496  48.390  27.231  0.00  0.00    +0.000 C 
ATOM     22  C   UNL     1      -8.255  47.615  28.302  0.00  0.00    +0.000 C 
BRANCH  17  23
ATOM     23  O   UNL     1     -12.532  49.088  25.958  0.00  0.00    +0.000 OA
ATOM     24  H   UNL     1     -13.124  48.540  26.512  0.00  0.00    +0.000 HD
ENDBRANCH  17  23
ENDBRANCH  11  16
ENDBRANCH   9  12
ENDBRANCH   8   9
ENDBRANCH   6   8
ENDBRANCH   4   7
ENDBRANCH   3   4
ENDBRANCH   2   3
BRANCH   1  25
ATOM     25  C   UNL     1       0.279  54.098  26.421  0.00  0.00    +0.000 C 
BRANCH  25  26
ATOM     26  C   UNL     1       0.476  55.340  26.104  0.00  0.00    +0.000 C 
ATOM     27  C   UNL     1       0.491  56.391  27.173  0.00  0.00    +0.000 C 
BRANCH  26  29
ATOM     28  C   UNL     1       0.689  56.029  23.590  0.00  0.00    +0.000 C 
ATOM     29  C   UNL     1       0.589  55.713  24.744  0.00  0.00    +0.000 C 
BRANCH  28  30
ATOM     30  C   UNL     1       0.819  56.434  22.116  0.00  0.00    +0.000 C 
BRANCH  30  31
ATOM     31  C   UNL     1       0.934  56.781  20.873  0.00  0.00    +0.000 C 
ATOM     32  C   UNL     1      -0.051  57.735  20.268  0.00  0.00    +0.000 C 
BRANCH  31  34
ATOM     33  C   UNL     1       3.038  56.053  19.491  0.00  0.00    +0.000 C 
ATOM     34  C   UNL     1       2.078  56.385  20.136  0.00  0.00    +0.000 C 
BRANCH  33  38
ATOM     35  O   UNL     1       5.143  53.060  16.231  0.00  0.00    +0.000 OA
ATOM     36  C   UNL     1       5.478  56.500  18.831  0.00  0.00    +0.000 C 
ATOM     37  C   UNL     1       6.436  55.874  17.935  0.00  0.00    +0.000 C 
ATOM     38  C   UNL     1       4.185  55.654  18.699  0.00  0.00    +0.000 C 
ATOM     39  C   UNL     1       6.481  54.793  17.060  0.00  0.00    +0.000 C 
ATOM     40  C   UNL     1       5.185  57.947  18.370  0.00  0.00    +0.000 C 
ATOM     41  C   UNL     1       5.988  56.436  20.287  0.00  0.00    +0.000 C 
ATOM     42  C   UNL     1       4.091  54.571  17.873  0.00  0.00    +0.000 C 
ATOM     43  C   UNL     1       5.216  54.030  16.975  0.00  0.00    +0.000 C 
ATOM     44  C   UNL     1       2.759  53.810  17.804  0.00  0.00    +0.000 C 
BRANCH  39  45
ATOM     45  O   UNL     1       7.594  54.465  16.335  0.00  0.00    +0.000 OA
ATOM     46  H   UNL     1       8.340  54.239  16.928  0.00  0.00    +0.000 HD
ENDBRANCH  39  45
ENDBRANCH  33  38
ENDBRANCH  31  34
ENDBRANCH  30  31
ENDBRANCH  28  30
ENDBRANCH  26  29
ENDBRANCH  25  26
ENDBRANCH   1  25
TORSDOF 16
ENDMDL
MODEL 2
REMARK VINA RESULT:      -7.4      0.988      2.358
REMARK  Name = 5281224_Astaxanthin.pdbqt.pdb
REMARK  16 active torsions:
REMARK  status: ('A' for Active; 'I' for Inactive)
REMARK    1  A    between atoms: C_1  and  C_5
REMARK    2  A    between atoms: C_2  and  C_27
REMARK    3  A    between atoms: C_3  and  C_5
REMARK    4  A    between atoms: C_3  and  C_7
REMARK    5  A    between atoms: C_6  and  C_10
REMARK    6  A    between atoms: C_8  and  C_10
REMARK    7  A    between atoms: C_8  and  C_12
REMARK    8  A    between atoms: C_11  and  C_16
REMARK    9  A    between atoms: C_17  and  O_23
REMARK   10  A    between atoms: C_25  and  C_27
REMARK   11  A    between atoms: C_25  and  C_29
REMARK   12  A    between atoms: C_28  and  C_32
REMARK   13  A    between atoms: C_30  and  C_32
REMARK   14  A    between atoms: C_30  and  C_34
REMARK   15  A    between atoms: C_33  and  C_38
REMARK   16  A    between atoms: C_39  and  O_45
REMARK                            x       y       z     vdW  Elec       q    Type
REMARK                         _______ _______ _______ _____ _____    ______ ____
ROOT
ATOM      1  C   UNL     1       0.262  52.695  26.799  0.00  0.00    +0.000 C 
ATOM      2  C   UNL     1       0.016  51.564  27.114  0.00  0.00    +0.000 C 
ENDROOT
BRANCH   2   3
ATOM      3  C   UNL     1      -0.297  50.119  27.524  0.00  0.00    +0.000 C 
BRANCH   3   4
ATOM      4  C   UNL     1      -0.561  48.901  27.878  0.00  0.00    +0.000 C 
ATOM      5  C   UNL     1       0.414  48.141  28.726  0.00  0.00    +0.000 C 
BRANCH   4   7
ATOM      6  C   UNL     1      -2.717  47.719  26.985  0.00  0.00    +0.000 C 
ATOM      7  C   UNL     1      -1.729  48.262  27.397  0.00  0.00    +0.000 C 
BRANCH   6   8
ATOM      8  C   UNL     1      -3.978  47.024  26.458  0.00  0.00    +0.000 C 
BRANCH   8   9
ATOM      9  C   UNL     1      -5.040  46.434  26.004  0.00  0.00    +0.000 C 
ATOM     10  C   UNL     1      -4.991  44.982  25.640  0.00  0.00    +0.000 C 
BRANCH   9  12
ATOM     11  C   UNL     1      -7.339  47.690  25.985  0.00  0.00    +0.000 C 
ATOM     12  C   UNL     1      -6.278  47.123  25.999  0.00  0.00    +0.000 C 
BRANCH  11  16
ATOM     13  O   UNL     1     -11.748  48.397  23.964  0.00  0.00    +0.000 OA
ATOM     14  C   UNL     1      -8.910  49.410  27.065  0.00  0.00    +0.000 C 
ATOM     15  C   UNL     1     -10.248  49.902  26.789  0.00  0.00    +0.000 C 
ATOM     16  C   UNL     1      -8.625  48.360  25.960  0.00  0.00    +0.000 C 
ATOM     17  C   UNL     1     -11.258  49.685  25.856  0.00  0.00    +0.000 C 
ATOM     18  C   UNL     1      -8.871  48.714  28.446  0.00  0.00    +0.000 C 
ATOM     19  C   UNL     1      -7.885  50.560  26.957  0.00  0.00    +0.000 C 
ATOM     20  C   UNL     1      -9.531  48.048  24.987  0.00  0.00    +0.000 C 
ATOM     21  C   UNL     1     -10.928  48.670  24.831  0.00  0.00    +0.000 C 
ATOM     22  C   UNL     1      -9.157  46.981  23.948  0.00  0.00    +0.000 C 
BRANCH  17  23
ATOM     23  O   UNL     1     -12.456  50.347  25.884  0.00  0.00    +0.000 OA
ATOM     24  H   UNL     1     -12.931  50.240  25.035  0.00  0.00    +0.000 HD
ENDBRANCH  17  23
ENDBRANCH  11  16
ENDBRANCH   9  12
ENDBRANCH   8   9
ENDBRANCH   6   8
ENDBRANCH   4   7
ENDBRANCH   3   4
ENDBRANCH   2   3
BRANCH   1  25
ATOM     25  C   UNL     1       0.580  54.143  26.406  0.00  0.00    +0.000 C 
BRANCH  25  26
ATOM     26  C   UNL     1       0.849  55.365  26.070  0.00  0.00    +0.000 C 
ATOM     27  C   UNL     1       1.027  56.410  27.130  0.00  0.00    +0.000 C 
BRANCH  26  29
ATOM     28  C   UNL     1       0.925  56.040  23.544  0.00  0.00    +0.000 C 
ATOM     29  C   UNL     1       0.888  55.730  24.704  0.00  0.00    +0.000 C 
BRANCH  28  30
ATOM     30  C   UNL     1       0.975  56.435  22.062  0.00  0.00    +0.000 C 
BRANCH  30  31
ATOM     31  C   UNL     1       1.024  56.774  20.813  0.00  0.00    +0.000 C 
ATOM     32  C   UNL     1       0.087  57.818  20.284  0.00  0.00    +0.000 C 
BRANCH  31  34
ATOM     33  C   UNL     1       2.936  55.863  19.272  0.00  0.00    +0.000 C 
ATOM     34  C   UNL     1       2.063  56.275  19.988  0.00  0.00    +0.000 C 
BRANCH  33  38
ATOM     35  O   UNL     1       7.677  55.366  18.132  0.00  0.00    +0.000 OA
ATOM     36  C   UNL     1       3.544  54.582  17.132  0.00  0.00    +0.000 C 
ATOM     37  C   UNL     1       4.781  54.225  16.458  0.00  0.00    +0.000 C 
ATOM     38  C   UNL     1       3.980  55.372  18.392  0.00  0.00    +0.000 C 
ATOM     39  C   UNL     1       6.149  54.400  16.646  0.00  0.00    +0.000 C 
ATOM     40  C   UNL     1       2.789  53.305  17.572  0.00  0.00    +0.000 C 
ATOM     41  C   UNL     1       2.686  55.491  16.225  0.00  0.00    +0.000 C 
ATOM     42  C   UNL     1       5.289  55.612  18.699  0.00  0.00    +0.000 C 
ATOM     43  C   UNL     1       6.500  55.158  17.867  0.00  0.00    +0.000 C 
ATOM     44  C   UNL     1       5.615  56.392  19.980  0.00  0.00    +0.000 C 
BRANCH  39  45
ATOM     45  O   UNL     1       7.090  53.911  15.782  0.00  0.00    +0.000 OA
ATOM     46  H   UNL     1       6.686  53.279  15.151  0.00  0.00    +0.000 HD
ENDBRANCH  39  45
ENDBRANCH  33  38
ENDBRANCH  31  34
ENDBRANCH  30  31
ENDBRANCH  28  30
ENDBRANCH  26  29
ENDBRANCH  25  26
ENDBRANCH   1  25
TORSDOF 16
ENDMDL
MODEL 3
REMARK VINA RESULT:      -7.3      2.217      3.500
REMARK  Name = 5281224_Astaxanthin.pdbqt.pdb
REMARK  16 active torsions:
REMARK  status: ('A' for Active; 'I' for Inactive)
REMARK    1  A    between atoms: C_1  and  C_5
REMARK    2  A    between atoms: C_2  and  C_27
REMARK    3  A    between atoms: C_3  and  C_5
REMARK    4  A    between atoms: C_3  and  C_7
REMARK    5  A    between atoms: C_6  and  C_10
REMARK    6  A    between atoms: C_8  and  C_10
REMARK    7  A    between atoms: C_8  and  C_12
REMARK    8  A    between atoms: C_11  and  C_16
REMARK    9  A    between atoms: C_17  and  O_23
REMARK   10  A    between atoms: C_25  and  C_27
REMARK   11  A    between atoms: C_25  and  C_29
REMARK   12  A    between atoms: C_28  and  C_32
REMARK   13  A    between atoms: C_30  and  C_32
REMARK   14  A    between atoms: C_30  and  C_34
REMARK   15  A    between atoms: C_33  and  C_38
REMARK   16  A    between atoms: C_39  and  O_45
REMARK                            x       y       z     vdW  Elec       q    Type
REMARK                         _______ _______ _______ _____ _____    ______ ____
ROOT
ATOM      1  C   UNL     1      -0.122  56.079  24.403  0.00  0.00    +0.000 C 
ATOM      2  C   UNL     1       0.129  55.118  25.075  0.00  0.00    +0.000 C 
ENDROOT
BRANCH   2   3
ATOM      3  C   UNL     1       0.447  53.883  25.928  0.00  0.00    +0.000 C 
BRANCH   3   4
ATOM      4  C   UNL     1       0.721  52.840  26.646  0.00  0.00    +0.000 C 
ATOM      5  C   UNL     1       2.034  52.748  27.363  0.00  0.00    +0.000 C 
BRANCH   4   7
ATOM      6  C   UNL     1      -0.953  50.830  26.719  0.00  0.00    +0.000 C 
ATOM      7  C   UNL     1      -0.185  51.753  26.688  0.00  0.00    +0.000 C 
BRANCH   6   8
ATOM      8  C   UNL     1      -1.931  49.651  26.757  0.00  0.00    +0.000 C 
BRANCH   8   9
ATOM      9  C   UNL     1      -2.753  48.647  26.787  0.00  0.00    +0.000 C 
ATOM     10  C   UNL     1      -2.271  47.300  27.233  0.00  0.00    +0.000 C 
BRANCH   9  12
ATOM     11  C   UNL     1      -5.308  49.040  26.364  0.00  0.00    +0.000 C 
ATOM     12  C   UNL     1      -4.133  48.861  26.547  0.00  0.00    +0.000 C 
BRANCH  11  16
ATOM     13  O   UNL     1      -9.503  51.288  27.533  0.00  0.00    +0.000 OA
ATOM     14  C   UNL     1      -7.424  48.429  25.044  0.00  0.00    +0.000 C 
ATOM     15  C   UNL     1      -8.815  48.844  25.073  0.00  0.00    +0.000 C 
ATOM     16  C   UNL     1      -6.728  49.250  26.160  0.00  0.00    +0.000 C 
ATOM     17  C   UNL     1      -9.616  49.725  25.794  0.00  0.00    +0.000 C 
ATOM     18  C   UNL     1      -6.787  48.788  23.681  0.00  0.00    +0.000 C 
ATOM     19  C   UNL     1      -7.310  46.922  25.368  0.00  0.00    +0.000 C 
ATOM     20  C   UNL     1      -7.396  50.152  26.939  0.00  0.00    +0.000 C 
ATOM     21  C   UNL     1      -8.895  50.482  26.842  0.00  0.00    +0.000 C 
ATOM     22  C   UNL     1      -6.612  50.926  28.007  0.00  0.00    +0.000 C 
BRANCH  17  23
ATOM     23  O   UNL     1     -10.955  49.884  25.555  0.00  0.00    +0.000 OA
ATOM     24  H   UNL     1     -11.277  50.727  25.935  0.00  0.00    +0.000 HD
ENDBRANCH  17  23
ENDBRANCH  11  16
ENDBRANCH   9  12
ENDBRANCH   8   9
ENDBRANCH   6   8
ENDBRANCH   4   7
ENDBRANCH   3   4
ENDBRANCH   2   3
BRANCH   1  25
ATOM     25  C   UNL     1      -0.449  57.302  23.538  0.00  0.00    +0.000 C 
BRANCH  25  26
ATOM     26  C   UNL     1      -0.728  58.338  22.811  0.00  0.00    +0.000 C 
ATOM     27  C   UNL     1      -1.596  59.428  23.365  0.00  0.00    +0.000 C 
BRANCH  26  29
ATOM     28  C   UNL     1       0.087  58.455  20.328  0.00  0.00    +0.000 C 
ATOM     29  C   UNL     1      -0.287  58.400  21.468  0.00  0.00    +0.000 C 
BRANCH  28  30
ATOM     30  C   UNL     1       0.562  58.529  18.871  0.00  0.00    +0.000 C 
BRANCH  30  31
ATOM     31  C   UNL     1       0.958  58.585  17.639  0.00  0.00    +0.000 C 
ATOM     32  C   UNL     1       0.520  59.720  16.763  0.00  0.00    +0.000 C 
BRANCH  31  34
ATOM     33  C   UNL     1       2.734  56.864  16.774  0.00  0.00    +0.000 C 
ATOM     34  C   UNL     1       1.926  57.663  17.168  0.00  0.00    +0.000 C 
BRANCH  33  38
ATOM     35  O   UNL     1       5.584  55.035  13.231  0.00  0.00    +0.000 OA
ATOM     36  C   UNL     1       4.172  54.807  17.312  0.00  0.00    +0.000 C 
ATOM     37  C   UNL     1       5.116  53.985  16.574  0.00  0.00    +0.000 C 
ATOM     38  C   UNL     1       3.697  55.886  16.305  0.00  0.00    +0.000 C 
ATOM     39  C   UNL     1       5.658  53.929  15.293  0.00  0.00    +0.000 C 
ATOM     40  C   UNL     1       4.882  55.499  18.499  0.00  0.00    +0.000 C 
ATOM     41  C   UNL     1       2.963  53.956  17.762  0.00  0.00    +0.000 C 
ATOM     42  C   UNL     1       4.152  55.949  15.019  0.00  0.00    +0.000 C 
ATOM     43  C   UNL     1       5.169  54.988  14.382  0.00  0.00    +0.000 C 
ATOM     44  C   UNL     1       3.630  57.068  14.107  0.00  0.00    +0.000 C 
BRANCH  39  45
ATOM     45  O   UNL     1       6.567  52.983  14.908  0.00  0.00    +0.000 OA
ATOM     46  H   UNL     1       7.403  53.403  14.617  0.00  0.00    +0.000 HD
ENDBRANCH  39  45
ENDBRANCH  33  38
ENDBRANCH  31  34
ENDBRANCH  30  31
ENDBRANCH  28  30
ENDBRANCH  26  29
ENDBRANCH  25  26
ENDBRANCH   1  25
TORSDOF 16
ENDMDL
MODEL 4
REMARK VINA RESULT:      -7.3      1.579      2.663
REMARK  Name = 5281224_Astaxanthin.pdbqt.pdb
REMARK  16 active torsions:
REMARK  status: ('A' for Active; 'I' for Inactive)
REMARK    1  A    between atoms: C_1  and  C_5
REMARK    2  A    between atoms: C_2  and  C_27
REMARK    3  A    between atoms: C_3  and  C_5
REMARK    4  A    between atoms: C_3  and  C_7
REMARK    5  A    between atoms: C_6  and  C_10
REMARK    6  A    between atoms: C_8  and  C_10
REMARK    7  A    between atoms: C_8  and  C_12
REMARK    8  A    between atoms: C_11  and  C_16
REMARK    9  A    between atoms: C_17  and  O_23
REMARK   10  A    between atoms: C_25  and  C_27
REMARK   11  A    between atoms: C_25  and  C_29
REMARK   12  A    between atoms: C_28  and  C_32
REMARK   13  A    between atoms: C_30  and  C_32
REMARK   14  A    between atoms: C_30  and  C_34
REMARK   15  A    between atoms: C_33  and  C_38
REMARK   16  A    between atoms: C_39  and  O_45
REMARK                            x       y       z     vdW  Elec       q    Type
REMARK                         _______ _______ _______ _____ _____    ______ ____
ROOT
ATOM      1  C   UNL     1       0.210  53.794  25.833  0.00  0.00    +0.000 C 
ATOM      2  C   UNL     1       0.041  52.730  26.362  0.00  0.00    +0.000 C 
ENDROOT
BRANCH   2   3
ATOM      3  C   UNL     1      -0.179  51.367  27.030  0.00  0.00    +0.000 C 
BRANCH   3   4
ATOM      4  C   UNL     1      -0.369  50.214  27.590  0.00  0.00    +0.000 C 
ATOM      5  C   UNL     1       0.615  49.702  28.598  0.00  0.00    +0.000 C 
BRANCH   4   7
ATOM      6  C   UNL     1      -2.386  48.719  26.858  0.00  0.00    +0.000 C 
ATOM      7  C   UNL     1      -1.460  49.405  27.192  0.00  0.00    +0.000 C 
BRANCH   6   8
ATOM      8  C   UNL     1      -3.571  47.843  26.434  0.00  0.00    +0.000 C 
BRANCH   8   9
ATOM      9  C   UNL     1      -4.568  47.097  26.071  0.00  0.00    +0.000 C 
ATOM     10  C   UNL     1      -4.360  45.631  25.838  0.00  0.00    +0.000 C 
BRANCH   9  12
ATOM     11  C   UNL     1      -6.983  48.113  26.037  0.00  0.00    +0.000 C 
ATOM     12  C   UNL     1      -5.877  47.638  26.044  0.00  0.00    +0.000 C 
BRANCH  11  16
ATOM     13  O   UNL     1     -11.434  48.615  24.048  0.00  0.00    +0.000 OA
ATOM     14  C   UNL     1      -8.661  49.673  27.193  0.00  0.00    +0.000 C 
ATOM     15  C   UNL     1     -10.031  50.087  26.939  0.00  0.00    +0.000 C 
ATOM     16  C   UNL     1      -8.310  48.696  26.042  0.00  0.00    +0.000 C 
ATOM     17  C   UNL     1     -11.026  49.846  25.997  0.00  0.00    +0.000 C 
ATOM     18  C   UNL     1      -8.573  48.920  28.541  0.00  0.00    +0.000 C 
ATOM     19  C   UNL     1      -7.716  50.894  27.138  0.00  0.00    +0.000 C 
ATOM     20  C   UNL     1      -9.196  48.368  25.055  0.00  0.00    +0.000 C 
ATOM     21  C   UNL     1     -10.632  48.902  24.927  0.00  0.00    +0.000 C 
ATOM     22  C   UNL     1      -8.754  47.378  23.969  0.00  0.00    +0.000 C 
BRANCH  17  23
ATOM     23  O   UNL     1     -12.265  50.424  26.055  0.00  0.00    +0.000 OA
ATOM     24  H   UNL     1     -12.779  50.068  26.808  0.00  0.00    +0.000 HD
ENDBRANCH  17  23
ENDBRANCH  11  16
ENDBRANCH   9  12
ENDBRANCH   8   9
ENDBRANCH   6   8
ENDBRANCH   4   7
ENDBRANCH   3   4
ENDBRANCH   2   3
BRANCH   1  25
ATOM     25  C   UNL     1       0.423  55.149  25.148  0.00  0.00    +0.000 C 
BRANCH  25  26
ATOM     26  C   UNL     1       0.603  56.297  24.575  0.00  0.00    +0.000 C 
ATOM     27  C   UNL     1      -0.483  57.331  24.617  0.00  0.00    +0.000 C 
BRANCH  26  29
ATOM     28  C   UNL     1       2.786  56.751  23.208  0.00  0.00    +0.000 C 
ATOM     29  C   UNL     1       1.784  56.542  23.837  0.00  0.00    +0.000 C 
BRANCH  28  30
ATOM     30  C   UNL     1       4.064  57.017  22.402  0.00  0.00    +0.000 C 
BRANCH  30  31
ATOM     31  C   UNL     1       5.139  57.249  21.718  0.00  0.00    +0.000 C 
ATOM     32  C   UNL     1       6.249  58.058  22.320  0.00  0.00    +0.000 C 
BRANCH  31  34
ATOM     33  C   UNL     1       5.490  56.046  19.417  0.00  0.00    +0.000 C 
ATOM     34  C   UNL     1       5.330  56.609  20.468  0.00  0.00    +0.000 C 
BRANCH  33  38
ATOM     35  O   UNL     1       3.733  53.416  15.674  0.00  0.00    +0.000 OA
ATOM     36  C   UNL     1       7.114  55.345  17.557  0.00  0.00    +0.000 C 
ATOM     37  C   UNL     1       7.004  54.589  16.321  0.00  0.00    +0.000 C 
ATOM     38  C   UNL     1       5.685  55.350  18.160  0.00  0.00    +0.000 C 
ATOM     39  C   UNL     1       6.017  53.922  15.601  0.00  0.00    +0.000 C 
ATOM     40  C   UNL     1       7.541  56.801  17.255  0.00  0.00    +0.000 C 
ATOM     41  C   UNL     1       8.081  54.637  18.531  0.00  0.00    +0.000 C 
ATOM     42  C   UNL     1       4.625  54.739  17.555  0.00  0.00    +0.000 C 
ATOM     43  C   UNL     1       4.677  53.967  16.226  0.00  0.00    +0.000 C 
ATOM     44  C   UNL     1       3.248  54.816  18.227  0.00  0.00    +0.000 C 
BRANCH  39  45
ATOM     45  O   UNL     1       6.261  53.283  14.416  0.00  0.00    +0.000 OA
ATOM     46  H   UNL     1       5.876  53.784  13.667  0.00  0.00    +0.000 HD
ENDBRANCH  39  45
ENDBRANCH  33  38
ENDBRANCH  31  34
ENDBRANCH  30  31
ENDBRANCH  28  30
ENDBRANCH  26  29
ENDBRANCH  25  26
ENDBRANCH   1  25
TORSDOF 16
ENDMDL
MODEL 5
REMARK VINA RESULT:      -7.0     11.206     15.563
REMARK  Name = 5281224_Astaxanthin.pdbqt.pdb
REMARK  16 active torsions:
REMARK  status: ('A' for Active; 'I' for Inactive)
REMARK    1  A    between atoms: C_1  and  C_5
REMARK    2  A    between atoms: C_2  and  C_27
REMARK    3  A    between atoms: C_3  and  C_5
REMARK    4  A    between atoms: C_3  and  C_7
REMARK    5  A    between atoms: C_6  and  C_10
REMARK    6  A    between atoms: C_8  and  C_10
REMARK    7  A    between atoms: C_8  and  C_12
REMARK    8  A    between atoms: C_11  and  C_16
REMARK    9  A    between atoms: C_17  and  O_23
REMARK   10  A    between atoms: C_25  and  C_27
REMARK   11  A    between atoms: C_25  and  C_29
REMARK   12  A    between atoms: C_28  and  C_32
REMARK   13  A    between atoms: C_30  and  C_32
REMARK   14  A    between atoms: C_30  and  C_34
REMARK   15  A    between atoms: C_33  and  C_38
REMARK   16  A    between atoms: C_39  and  O_45
REMARK                            x       y       z     vdW  Elec       q    Type
REMARK                         _______ _______ _______ _____ _____    ______ ____
ROOT
ATOM      1  C   UNL     1      -0.482  41.046  33.375  0.00  0.00    +0.000 C 
ATOM      2  C   UNL     1      -1.045  40.028  33.672  0.00  0.00    +0.000 C 
ENDROOT
BRANCH   2   3
ATOM      3  C   UNL     1      -1.762  38.729  34.061  0.00  0.00    +0.000 C 
BRANCH   3   4
ATOM      4  C   UNL     1      -2.371  37.635  34.394  0.00  0.00    +0.000 C 
ATOM      5  C   UNL     1      -1.803  36.309  33.985  0.00  0.00    +0.000 C 
BRANCH   4   7
ATOM      6  C   UNL     1      -4.662  37.743  35.652  0.00  0.00    +0.000 C 
ATOM      7  C   UNL     1      -3.611  37.694  35.073  0.00  0.00    +0.000 C 
BRANCH   6   8
ATOM      8  C   UNL     1      -6.002  37.804  36.394  0.00  0.00    +0.000 C 
BRANCH   8   9
ATOM      9  C   UNL     1      -7.135  37.848  37.025  0.00  0.00    +0.000 C 
ATOM     10  C   UNL     1      -7.751  39.172  37.363  0.00  0.00    +0.000 C 
BRANCH   9  12
ATOM     11  C   UNL     1      -8.487  35.643  37.437  0.00  0.00    +0.000 C 
ATOM     12  C   UNL     1      -7.857  36.652  37.255  0.00  0.00    +0.000 C 
BRANCH  11  16
ATOM     13  O   UNL     1     -11.440  32.889  40.214  0.00  0.00    +0.000 OA
ATOM     14  C   UNL     1      -9.259  33.376  36.513  0.00  0.00    +0.000 C 
ATOM     15  C   UNL     1     -10.102  32.296  36.997  0.00  0.00    +0.000 C 
ATOM     16  C   UNL     1      -9.259  34.434  37.647  0.00  0.00    +0.000 C 
ATOM     17  C   UNL     1     -10.849  31.998  38.132  0.00  0.00    +0.000 C 
ATOM     18  C   UNL     1      -9.871  34.001  35.238  0.00  0.00    +0.000 C 
ATOM     19  C   UNL     1      -7.818  32.867  36.285  0.00  0.00    +0.000 C 
ATOM     20  C   UNL     1      -9.954  34.269  38.811  0.00  0.00    +0.000 C 
ATOM     21  C   UNL     1     -10.813  33.047  39.175  0.00  0.00    +0.000 C 
ATOM     22  C   UNL     1      -9.901  35.384  39.864  0.00  0.00    +0.000 C 
BRANCH  17  23
ATOM     23  O   UNL     1     -11.563  30.838  38.273  0.00  0.00    +0.000 OA
ATOM     24  H   UNL     1     -11.770  30.671  39.215  0.00  0.00    +0.000 HD
ENDBRANCH  17  23
ENDBRANCH  11  16
ENDBRANCH   9  12
ENDBRANCH   8   9
ENDBRANCH   6   8
ENDBRANCH   4   7
ENDBRANCH   3   4
ENDBRANCH   2   3
BRANCH   1  25
ATOM     25  C   UNL     1       0.239  42.347  33.004  0.00  0.00    +0.000 C 
BRANCH  25  26
ATOM     26  C   UNL     1       0.846  43.448  32.688  0.00  0.00    +0.000 C 
ATOM     27  C   UNL     1       1.653  44.179  33.719  0.00  0.00    +0.000 C 
BRANCH  26  29
ATOM     28  C   UNL     1       0.532  44.478  30.305  0.00  0.00    +0.000 C 
ATOM     29  C   UNL     1       0.675  44.004  31.399  0.00  0.00    +0.000 C 
BRANCH  28  30
ATOM     30  C   UNL     1       0.349  45.088  28.908  0.00  0.00    +0.000 C 
BRANCH  30  31
ATOM     31  C   UNL     1       0.202  45.608  27.731  0.00  0.00    +0.000 C 
ATOM     32  C   UNL     1       1.224  45.351  26.666  0.00  0.00    +0.000 C 
BRANCH  31  34
ATOM     33  C   UNL     1      -2.029  46.841  27.124  0.00  0.00    +0.000 C 
ATOM     34  C   UNL     1      -1.001  46.285  27.407  0.00  0.00    +0.000 C 
BRANCH  33  38
ATOM     35  O   UNL     1      -6.482  46.735  25.080  0.00  0.00    +0.000 OA
ATOM     36  C   UNL     1      -3.442  48.983  27.180  0.00  0.00    +0.000 C 
ATOM     37  C   UNL     1      -4.762  49.361  26.704  0.00  0.00    +0.000 C 
ATOM     38  C   UNL     1      -3.274  47.497  26.772  0.00  0.00    +0.000 C 
ATOM     39  C   UNL     1      -5.827  48.771  26.030  0.00  0.00    +0.000 C 
ATOM     40  C   UNL     1      -3.378  49.095  28.721  0.00  0.00    +0.000 C 
ATOM     41  C   UNL     1      -2.360  49.834  26.481  0.00  0.00    +0.000 C 
ATOM     42  C   UNL     1      -4.241  46.796  26.111  0.00  0.00    +0.000 C 
ATOM     43  C   UNL     1      -5.607  47.353  25.673  0.00  0.00    +0.000 C 
ATOM     44  C   UNL     1      -3.981  45.324  25.767  0.00  0.00    +0.000 C 
BRANCH  39  45
ATOM     45  O   UNL     1      -6.981  49.441  25.726  0.00  0.00    +0.000 OA
ATOM     46  H   UNL     1      -7.028  49.633  24.766  0.00  0.00    +0.000 HD
ENDBRANCH  39  45
ENDBRANCH  33  38
ENDBRANCH  31  34
ENDBRANCH  30  31
ENDBRANCH  28  30
ENDBRANCH  26  29
ENDBRANCH  25  26
ENDBRANCH   1  25
TORSDOF 16
ENDMDL
MODEL 6
REMARK VINA RESULT:      -7.0      3.091      4.805
REMARK  Name = 5281224_Astaxanthin.pdbqt.pdb
REMARK  16 active torsions:
REMARK  status: ('A' for Active; 'I' for Inactive)
REMARK    1  A    between atoms: C_1  and  C_5
REMARK    2  A    between atoms: C_2  and  C_27
REMARK    3  A    between atoms: C_3  and  C_5
REMARK    4  A    between atoms: C_3  and  C_7
REMARK    5  A    between atoms: C_6  and  C_10
REMARK    6  A    between atoms: C_8  and  C_10
REMARK    7  A    between atoms: C_8  and  C_12
REMARK    8  A    between atoms: C_11  and  C_16
REMARK    9  A    between atoms: C_17  and  O_23
REMARK   10  A    between atoms: C_25  and  C_27
REMARK   11  A    between atoms: C_25  and  C_29
REMARK   12  A    between atoms: C_28  and  C_32
REMARK   13  A    between atoms: C_30  and  C_32
REMARK   14  A    between atoms: C_30  and  C_34
REMARK   15  A    between atoms: C_33  and  C_38
REMARK   16  A    between atoms: C_39  and  O_45
REMARK                            x       y       z     vdW  Elec       q    Type
REMARK                         _______ _______ _______ _____ _____    ______ ____
ROOT
ATOM      1  C   UNL     1      -0.552  55.589  27.271  0.00  0.00    +0.000 C 
ATOM      2  C   UNL     1      -1.562  55.524  27.916  0.00  0.00    +0.000 C 
ENDROOT
BRANCH   2   3
ATOM      3  C   UNL     1      -2.858  55.443  28.733  0.00  0.00    +0.000 C 
BRANCH   3   4
ATOM      4  C   UNL     1      -3.952  55.367  29.423  0.00  0.00    +0.000 C 
ATOM      5  C   UNL     1      -4.212  56.352  30.523  0.00  0.00    +0.000 C 
BRANCH   4   7
ATOM      6  C   UNL     1      -5.631  53.408  28.994  0.00  0.00    +0.000 C 
ATOM      7  C   UNL     1      -4.862  54.308  29.192  0.00  0.00    +0.000 C 
BRANCH   6   8
ATOM      8  C   UNL     1      -6.611  52.256  28.740  0.00  0.00    +0.000 C 
BRANCH   8   9
ATOM      9  C   UNL     1      -7.446  51.286  28.529  0.00  0.00    +0.000 C 
ATOM     10  C   UNL     1      -8.920  51.532  28.637  0.00  0.00    +0.000 C 
BRANCH   9  12
ATOM     11  C   UNL     1      -6.558  48.978  27.665  0.00  0.00    +0.000 C 
ATOM     12  C   UNL     1      -6.969  50.040  28.051  0.00  0.00    +0.000 C 
BRANCH  11  16
ATOM     13  O   UNL     1      -3.642  45.085  28.270  0.00  0.00    +0.000 OA
ATOM     14  C   UNL     1      -6.627  47.120  25.895  0.00  0.00    +0.000 C 
ATOM     15  C   UNL     1      -5.949  45.850  25.704  0.00  0.00    +0.000 C 
ATOM     16  C   UNL     1      -6.054  47.695  27.216  0.00  0.00    +0.000 C 
ATOM     17  C   UNL     1      -4.991  45.081  26.357  0.00  0.00    +0.000 C 
ATOM     18  C   UNL     1      -8.148  46.894  26.060  0.00  0.00    +0.000 C 
ATOM     19  C   UNL     1      -6.298  48.081  24.731  0.00  0.00    +0.000 C 
ATOM     20  C   UNL     1      -5.112  47.041  27.958  0.00  0.00    +0.000 C 
ATOM     21  C   UNL     1      -4.485  45.680  27.612  0.00  0.00    +0.000 C 
ATOM     22  C   UNL     1      -4.621  47.689  29.260  0.00  0.00    +0.000 C 
BRANCH  17  23
ATOM     23  O   UNL     1      -4.555  43.872  25.886  0.00  0.00    +0.000 OA
ATOM     24  H   UNL     1      -3.693  43.967  25.432  0.00  0.00    +0.000 HD
ENDBRANCH  17  23
ENDBRANCH  11  16
ENDBRANCH   9  12
ENDBRANCH   8   9
ENDBRANCH   6   8
ENDBRANCH   4   7
ENDBRANCH   3   4
ENDBRANCH   2   3
BRANCH   1  25
ATOM     25  C   UNL     1       0.732  55.673  26.438  0.00  0.00    +0.000 C 
BRANCH  25  26
ATOM     26  C   UNL     1       1.818  55.739  25.733  0.00  0.00    +0.000 C 
ATOM     27  C   UNL     1       3.153  55.602  26.403  0.00  0.00    +0.000 C 
BRANCH  26  29
ATOM     28  C   UNL     1       1.690  56.271  23.176  0.00  0.00    +0.000 C 
ATOM     29  C   UNL     1       1.747  56.027  24.350  0.00  0.00    +0.000 C 
BRANCH  28  30
ATOM     30  C   UNL     1       1.620  56.585  21.675  0.00  0.00    +0.000 C 
BRANCH  30  31
ATOM     31  C   UNL     1       1.562  56.858  20.410  0.00  0.00    +0.000 C 
ATOM     32  C   UNL     1       0.688  57.974  19.925  0.00  0.00    +0.000 C 
BRANCH  31  34
ATOM     33  C   UNL     1       3.186  55.671  18.731  0.00  0.00    +0.000 C 
ATOM     34  C   UNL     1       2.443  56.208  19.510  0.00  0.00    +0.000 C 
BRANCH  33  38
ATOM     35  O   UNL     1       7.700  54.511  17.214  0.00  0.00    +0.000 OA
ATOM     36  C   UNL     1       3.428  54.307  16.570  0.00  0.00    +0.000 C 
ATOM     37  C   UNL     1       4.543  53.778  15.803  0.00  0.00    +0.000 C 
ATOM     38  C   UNL     1       4.074  55.035  17.777  0.00  0.00    +0.000 C 
ATOM     39  C   UNL     1       5.933  53.761  15.875  0.00  0.00    +0.000 C 
ATOM     40  C   UNL     1       2.543  53.151  17.091  0.00  0.00    +0.000 C 
ATOM     41  C   UNL     1       2.633  55.324  15.722  0.00  0.00    +0.000 C 
ATOM     42  C   UNL     1       5.425  55.092  17.971  0.00  0.00    +0.000 C 
ATOM     43  C   UNL     1       6.487  54.468  17.050  0.00  0.00    +0.000 C 
ATOM     44  C   UNL     1       5.962  55.825  19.208  0.00  0.00    +0.000 C 
BRANCH  39  45
ATOM     45  O   UNL     1       6.721  53.141  14.944  0.00  0.00    +0.000 OA
ATOM     46  H   UNL     1       6.188  52.541  14.383  0.00  0.00    +0.000 HD
ENDBRANCH  39  45
ENDBRANCH  33  38
ENDBRANCH  31  34
ENDBRANCH  30  31
ENDBRANCH  28  30
ENDBRANCH  26  29
ENDBRANCH  25  26
ENDBRANCH   1  25
TORSDOF 16
ENDMDL
MODEL 7
REMARK VINA RESULT:      -6.9      9.625     15.621
REMARK  Name = 5281224_Astaxanthin.pdbqt.pdb
REMARK  16 active torsions:
REMARK  status: ('A' for Active; 'I' for Inactive)
REMARK    1  A    between atoms: C_1  and  C_5
REMARK    2  A    between atoms: C_2  and  C_27
REMARK    3  A    between atoms: C_3  and  C_5
REMARK    4  A    between atoms: C_3  and  C_7
REMARK    5  A    between atoms: C_6  and  C_10
REMARK    6  A    between atoms: C_8  and  C_10
REMARK    7  A    between atoms: C_8  and  C_12
REMARK    8  A    between atoms: C_11  and  C_16
REMARK    9  A    between atoms: C_17  and  O_23
REMARK   10  A    between atoms: C_25  and  C_27
REMARK   11  A    between atoms: C_25  and  C_29
REMARK   12  A    between atoms: C_28  and  C_32
REMARK   13  A    between atoms: C_30  and  C_32
REMARK   14  A    between atoms: C_30  and  C_34
REMARK   15  A    between atoms: C_33  and  C_38
REMARK   16  A    between atoms: C_39  and  O_45
REMARK                            x       y       z     vdW  Elec       q    Type
REMARK                         _______ _______ _______ _____ _____    ______ ____
ROOT
ATOM      1  C   UNL     1      -0.243  43.419  31.342  0.00  0.00    +0.000 C 
ATOM      2  C   UNL     1      -0.185  44.117  30.367  0.00  0.00    +0.000 C 
ENDROOT
BRANCH   2   3
ATOM      3  C   UNL     1      -0.116  45.015  29.125  0.00  0.00    +0.000 C 
BRANCH   3   4
ATOM      4  C   UNL     1      -0.058  45.779  28.080  0.00  0.00    +0.000 C 
ATOM      5  C   UNL     1       1.045  45.596  27.081  0.00  0.00    +0.000 C 
BRANCH   4   7
ATOM      6  C   UNL     1      -1.773  47.733  27.793  0.00  0.00    +0.000 C 
ATOM      7  C   UNL     1      -0.987  46.835  27.923  0.00  0.00    +0.000 C 
BRANCH   6   8
ATOM      8  C   UNL     1      -2.774  48.882  27.628  0.00  0.00    +0.000 C 
BRANCH   8   9
ATOM      9  C   UNL     1      -3.627  49.849  27.487  0.00  0.00    +0.000 C 
ATOM     10  C   UNL     1      -3.218  51.258  27.792  0.00  0.00    +0.000 C 
BRANCH   9  12
ATOM     11  C   UNL     1      -5.969  49.394  26.406  0.00  0.00    +0.000 C 
ATOM     12  C   UNL     1      -4.892  49.591  26.903  0.00  0.00    +0.000 C 
BRANCH  11  16
ATOM     13  O   UNL     1     -10.750  50.425  26.079  0.00  0.00    +0.000 OA
ATOM     14  C   UNL     1      -7.375  48.108  24.685  0.00  0.00    +0.000 C 
ATOM     15  C   UNL     1      -8.772  48.109  24.285  0.00  0.00    +0.000 C 
ATOM     16  C   UNL     1      -7.271  49.173  25.807  0.00  0.00    +0.000 C 
ATOM     17  C   UNL     1      -9.945  48.773  24.629  0.00  0.00    +0.000 C 
ATOM     18  C   UNL     1      -6.480  48.535  23.498  0.00  0.00    +0.000 C 
ATOM     19  C   UNL     1      -6.983  46.725  25.251  0.00  0.00    +0.000 C 
ATOM     20  C   UNL     1      -8.345  49.900  26.238  0.00  0.00    +0.000 C 
ATOM     21  C   UNL     1      -9.781  49.779  25.702  0.00  0.00    +0.000 C 
ATOM     22  C   UNL     1      -8.132  50.942  27.345  0.00  0.00    +0.000 C 
BRANCH  17  23
ATOM     23  O   UNL     1     -11.149  48.524  24.026  0.00  0.00    +0.000 OA
ATOM     24  H   UNL     1     -11.803  49.213  24.261  0.00  0.00    +0.000 HD
ENDBRANCH  17  23
ENDBRANCH  11  16
ENDBRANCH   9  12
ENDBRANCH   8   9
ENDBRANCH   6   8
ENDBRANCH   4   7
ENDBRANCH   3   4
ENDBRANCH   2   3
BRANCH   1  25
ATOM     25  C   UNL     1      -0.325  42.535  32.591  0.00  0.00    +0.000 C 
BRANCH  25  26
ATOM     26  C   UNL     1      -0.398  41.788  33.648  0.00  0.00    +0.000 C 
ATOM     27  C   UNL     1      -0.995  42.336  34.909  0.00  0.00    +0.000 C 
BRANCH  26  29
ATOM     28  C   UNL     1       0.636  39.386  33.627  0.00  0.00    +0.000 C 
ATOM     29  C   UNL     1       0.162  40.489  33.637  0.00  0.00    +0.000 C 
BRANCH  28  30
ATOM     30  C   UNL     1       1.238  37.975  33.613  0.00  0.00    +0.000 C 
BRANCH  30  31
ATOM     31  C   UNL     1       1.752  36.786  33.595  0.00  0.00    +0.000 C 
ATOM     32  C   UNL     1       0.959  35.620  34.103  0.00  0.00    +0.000 C 
BRANCH  31  34
ATOM     33  C   UNL     1       4.061  36.387  32.422  0.00  0.00    +0.000 C 
ATOM     34  C   UNL     1       2.995  36.567  32.950  0.00  0.00    +0.000 C 
BRANCH  33  38
ATOM     35  O   UNL     1       8.940  36.844  32.457  0.00  0.00    +0.000 OA
ATOM     36  C   UNL     1       5.382  35.458  30.427  0.00  0.00    +0.000 C 
ATOM     37  C   UNL     1       6.786  35.394  30.059  0.00  0.00    +0.000 C 
ATOM     38  C   UNL     1       5.354  36.179  31.800  0.00  0.00    +0.000 C 
ATOM     39  C   UNL     1       8.013  35.784  30.587  0.00  0.00    +0.000 C 
ATOM     40  C   UNL     1       4.808  34.032  30.593  0.00  0.00    +0.000 C 
ATOM     41  C   UNL     1       4.598  36.293  29.391  0.00  0.00    +0.000 C 
ATOM     42  C   UNL     1       6.485  36.611  32.432  0.00  0.00    +0.000 C 
ATOM     43  C   UNL     1       7.920  36.462  31.899  0.00  0.00    +0.000 C 
ATOM     44  C   UNL     1       6.349  37.299  33.796  0.00  0.00    +0.000 C 
BRANCH  39  45
ATOM     45  O   UNL     1       9.205  35.559  29.954  0.00  0.00    +0.000 OA
ATOM     46  H   UNL     1       9.154  35.829  29.013  0.00  0.00    +0.000 HD
ENDBRANCH  39  45
ENDBRANCH  33  38
ENDBRANCH  31  34
ENDBRANCH  30  31
ENDBRANCH  28  30
ENDBRANCH  26  29
ENDBRANCH  25  26
ENDBRANCH   1  25
TORSDOF 16
ENDMDL
MODEL 8
REMARK VINA RESULT:      -6.8     10.085     15.018
REMARK  Name = 5281224_Astaxanthin.pdbqt.pdb
REMARK  16 active torsions:
REMARK  status: ('A' for Active; 'I' for Inactive)
REMARK    1  A    between atoms: C_1  and  C_5
REMARK    2  A    between atoms: C_2  and  C_27
REMARK    3  A    between atoms: C_3  and  C_5
REMARK    4  A    between atoms: C_3  and  C_7
REMARK    5  A    between atoms: C_6  and  C_10
REMARK    6  A    between atoms: C_8  and  C_10
REMARK    7  A    between atoms: C_8  and  C_12
REMARK    8  A    between atoms: C_11  and  C_16
REMARK    9  A    between atoms: C_17  and  O_23
REMARK   10  A    between atoms: C_25  and  C_27
REMARK   11  A    between atoms: C_25  and  C_29
REMARK   12  A    between atoms: C_28  and  C_32
REMARK   13  A    between atoms: C_30  and  C_32
REMARK   14  A    between atoms: C_30  and  C_34
REMARK   15  A    between atoms: C_33  and  C_38
REMARK   16  A    between atoms: C_39  and  O_45
REMARK                            x       y       z     vdW  Elec       q    Type
REMARK                         _______ _______ _______ _____ _____    ______ ____
ROOT
ATOM      1  C   UNL     1      -0.349  43.686  31.523  0.00  0.00    +0.000 C 
ATOM      2  C   UNL     1       0.063  42.733  32.124  0.00  0.00    +0.000 C 
ENDROOT
BRANCH   2   3
ATOM      3  C   UNL     1       0.592  41.510  32.884  0.00  0.00    +0.000 C 
BRANCH   3   4
ATOM      4  C   UNL     1       1.042  40.476  33.522  0.00  0.00    +0.000 C 
ATOM      5  C   UNL     1       2.499  40.384  33.864  0.00  0.00    +0.000 C 
BRANCH   4   7
ATOM      6  C   UNL     1      -0.557  38.482  34.078  0.00  0.00    +0.000 C 
ATOM      7  C   UNL     1       0.176  39.398  33.824  0.00  0.00    +0.000 C 
BRANCH   6   8
ATOM      8  C   UNL     1      -1.489  37.309  34.404  0.00  0.00    +0.000 C 
BRANCH   8   9
ATOM      9  C   UNL     1      -2.272  36.313  34.684  0.00  0.00    +0.000 C 
ATOM     10  C   UNL     1      -1.848  34.914  34.358  0.00  0.00    +0.000 C 
BRANCH   9  12
ATOM     11  C   UNL     1      -4.465  36.741  36.051  0.00  0.00    +0.000 C 
ATOM     12  C   UNL     1      -3.454  36.538  35.433  0.00  0.00    +0.000 C 
BRANCH  11  16
ATOM     13  O   UNL     1      -8.134  39.730  37.328  0.00  0.00    +0.000 OA
ATOM     14  C   UNL     1      -6.265  35.844  37.647  0.00  0.00    +0.000 C 
ATOM     15  C   UNL     1      -7.471  36.382  38.251  0.00  0.00    +0.000 C 
ATOM     16  C   UNL     1      -5.690  36.997  36.784  0.00  0.00    +0.000 C 
ATOM     17  C   UNL     1      -8.183  37.578  38.250  0.00  0.00    +0.000 C 
ATOM     18  C   UNL     1      -6.615  34.651  36.727  0.00  0.00    +0.000 C 
ATOM     19  C   UNL     1      -5.244  35.462  38.742  0.00  0.00    +0.000 C 
ATOM     20  C   UNL     1      -6.291  38.220  36.691  0.00  0.00    +0.000 C 
ATOM     21  C   UNL     1      -7.586  38.638  37.406  0.00  0.00    +0.000 C 
ATOM     22  C   UNL     1      -5.649  39.289  35.797  0.00  0.00    +0.000 C 
BRANCH  17  23
ATOM     23  O   UNL     1      -9.338  37.761  38.961  0.00  0.00    +0.000 OA
ATOM     24  H   UNL     1      -9.958  37.019  38.812  0.00  0.00    +0.000 HD
ENDBRANCH  17  23
ENDBRANCH  11  16
ENDBRANCH   9  12
ENDBRANCH   8   9
ENDBRANCH   6   8
ENDBRANCH   4   7
ENDBRANCH   3   4
ENDBRANCH   2   3
BRANCH   1  25
ATOM     25  C   UNL     1      -0.876  44.898  30.746  0.00  0.00    +0.000 C 
BRANCH  25  26
ATOM     26  C   UNL     1      -1.322  45.926  30.094  0.00  0.00    +0.000 C 
ATOM     27  C   UNL     1      -0.866  47.304  30.470  0.00  0.00    +0.000 C 
BRANCH  26  29
ATOM     28  C   UNL     1      -3.132  45.611  28.233  0.00  0.00    +0.000 C 
ATOM     29  C   UNL     1      -2.302  45.755  29.088  0.00  0.00    +0.000 C 
BRANCH  28  30
ATOM     30  C   UNL     1      -4.190  45.428  27.137  0.00  0.00    +0.000 C 
BRANCH  30  31
ATOM     31  C   UNL     1      -5.080  45.280  26.207  0.00  0.00    +0.000 C 
ATOM     32  C   UNL     1      -5.044  44.071  25.323  0.00  0.00    +0.000 C 
BRANCH  31  34
ATOM     33  C   UNL     1      -7.116  46.924  26.070  0.00  0.00    +0.000 C 
ATOM     34  C   UNL     1      -6.174  46.178  26.131  0.00  0.00    +0.000 C 
BRANCH  33  38
ATOM     35  O   UNL     1     -11.363  48.248  24.014  0.00  0.00    +0.000 OA
ATOM     36  C   UNL     1      -8.338  48.972  27.018  0.00  0.00    +0.000 C 
ATOM     37  C   UNL     1      -9.573  49.673  26.708  0.00  0.00    +0.000 C 
ATOM     38  C   UNL     1      -8.263  47.808  25.997  0.00  0.00    +0.000 C 
ATOM     39  C   UNL     1     -10.621  49.568  25.799  0.00  0.00    +0.000 C 
ATOM     40  C   UNL     1      -8.401  48.387  28.449  0.00  0.00    +0.000 C 
ATOM     41  C   UNL     1      -7.128  49.911  26.818  0.00  0.00    +0.000 C 
ATOM     42  C   UNL     1      -9.226  47.588  25.054  0.00  0.00    +0.000 C 
ATOM     43  C   UNL     1     -10.493  48.436  24.855  0.00  0.00    +0.000 C 
ATOM     44  C   UNL     1      -9.064  46.397  24.100  0.00  0.00    +0.000 C 
BRANCH  39  45
ATOM     45  O   UNL     1     -11.682  50.432  25.779  0.00  0.00    +0.000 OA
ATOM     46  H   UNL     1     -11.376  51.352  25.636  0.00  0.00    +0.000 HD
ENDBRANCH  39  45
ENDBRANCH  33  38
ENDBRANCH  31  34
ENDBRANCH  30  31
ENDBRANCH  28  30
ENDBRANCH  26  29
ENDBRANCH  25  26
ENDBRANCH   1  25
TORSDOF 16
ENDMDL
MODEL 9
REMARK VINA RESULT:      -6.8     10.181     15.105
REMARK  Name = 5281224_Astaxanthin.pdbqt.pdb
REMARK  16 active torsions:
REMARK  status: ('A' for Active; 'I' for Inactive)
REMARK    1  A    between atoms: C_1  and  C_5
REMARK    2  A    between atoms: C_2  and  C_27
REMARK    3  A    between atoms: C_3  and  C_5
REMARK    4  A    between atoms: C_3  and  C_7
REMARK    5  A    between atoms: C_6  and  C_10
REMARK    6  A    between atoms: C_8  and  C_10
REMARK    7  A    between atoms: C_8  and  C_12
REMARK    8  A    between atoms: C_11  and  C_16
REMARK    9  A    between atoms: C_17  and  O_23
REMARK   10  A    between atoms: C_25  and  C_27
REMARK   11  A    between atoms: C_25  and  C_29
REMARK   12  A    between atoms: C_28  and  C_32
REMARK   13  A    between atoms: C_30  and  C_32
REMARK   14  A    between atoms: C_30  and  C_34
REMARK   15  A    between atoms: C_33  and  C_38
REMARK   16  A    between atoms: C_39  and  O_45
REMARK                            x       y       z     vdW  Elec       q    Type
REMARK                         _______ _______ _______ _____ _____    ______ ____
ROOT
ATOM      1  C   UNL     1      -0.315  43.571  31.587  0.00  0.00    +0.000 C 
ATOM      2  C   UNL     1       0.118  42.615  32.170  0.00  0.00    +0.000 C 
ENDROOT
BRANCH   2   3
ATOM      3  C   UNL     1       0.672  41.390  32.908  0.00  0.00    +0.000 C 
BRANCH   3   4
ATOM      4  C   UNL     1       1.145  40.354  33.526  0.00  0.00    +0.000 C 
ATOM      5  C   UNL     1       2.617  40.245  33.786  0.00  0.00    +0.000 C 
BRANCH   4   7
ATOM      6  C   UNL     1      -0.446  38.384  34.185  0.00  0.00    +0.000 C 
ATOM      7  C   UNL     1       0.282  39.290  33.883  0.00  0.00    +0.000 C 
BRANCH   6   8
ATOM      8  C   UNL     1      -1.374  37.226  34.570  0.00  0.00    +0.000 C 
BRANCH   8   9
ATOM      9  C   UNL     1      -2.153  36.243  34.902  0.00  0.00    +0.000 C 
ATOM     10  C   UNL     1      -1.656  34.833  34.813  0.00  0.00    +0.000 C 
BRANCH   9  12
ATOM     11  C   UNL     1      -4.473  36.755  36.005  0.00  0.00    +0.000 C 
ATOM     12  C   UNL     1      -3.413  36.514  35.490  0.00  0.00    +0.000 C 
BRANCH  11  16
ATOM     13  O   UNL     1      -8.678  35.283  38.048  0.00  0.00    +0.000 OA
ATOM     14  C   UNL     1      -6.102  38.546  36.860  0.00  0.00    +0.000 C 
ATOM     15  C   UNL     1      -7.404  38.535  37.503  0.00  0.00    +0.000 C 
ATOM     16  C   UNL     1      -5.743  37.054  36.639  0.00  0.00    +0.000 C 
ATOM     17  C   UNL     1      -8.335  37.596  37.936  0.00  0.00    +0.000 C 
ATOM     18  C   UNL     1      -5.050  39.186  37.796  0.00  0.00    +0.000 C 
ATOM     19  C   UNL     1      -6.187  39.262  35.494  0.00  0.00    +0.000 C 
ATOM     20  C   UNL     1      -6.565  36.032  37.021  0.00  0.00    +0.000 C 
ATOM     21  C   UNL     1      -7.934  36.191  37.701  0.00  0.00    +0.000 C 
ATOM     22  C   UNL     1      -6.108  34.588  36.771  0.00  0.00    +0.000 C 
BRANCH  17  23
ATOM     23  O   UNL     1      -9.519  37.938  38.533  0.00  0.00    +0.000 OA
ATOM     24  H   UNL     1      -9.372  38.595  39.243  0.00  0.00    +0.000 HD
ENDBRANCH  17  23
ENDBRANCH  11  16
ENDBRANCH   9  12
ENDBRANCH   8   9
ENDBRANCH   6   8
ENDBRANCH   4   7
ENDBRANCH   3   4
ENDBRANCH   2   3
BRANCH   1  25
ATOM     25  C   UNL     1      -0.868  44.786  30.833  0.00  0.00    +0.000 C 
BRANCH  25  26
ATOM     26  C   UNL     1      -1.336  45.816  30.201  0.00  0.00    +0.000 C 
ATOM     27  C   UNL     1      -0.981  47.199  30.659  0.00  0.00    +0.000 C 
BRANCH  26  29
ATOM     28  C   UNL     1      -3.021  45.486  28.228  0.00  0.00    +0.000 C 
ATOM     29  C   UNL     1      -2.248  45.637  29.135  0.00  0.00    +0.000 C 
BRANCH  28  30
ATOM     30  C   UNL     1      -4.007  45.295  27.067  0.00  0.00    +0.000 C 
BRANCH  30  31
ATOM     31  C   UNL     1      -4.835  45.141  26.083  0.00  0.00    +0.000 C 
ATOM     32  C   UNL     1      -4.633  44.026  25.103  0.00  0.00    +0.000 C 
BRANCH  31  34
ATOM     33  C   UNL     1      -7.004  46.607  25.990  0.00  0.00    +0.000 C 
ATOM     34  C   UNL     1      -6.014  45.926  26.027  0.00  0.00    +0.000 C 
BRANCH  33  38
ATOM     35  O   UNL     1     -10.368  49.336  28.284  0.00  0.00    +0.000 OA
ATOM     36  C   UNL     1      -8.848  47.702  24.580  0.00  0.00    +0.000 C 
ATOM     37  C   UNL     1      -9.993  48.553  24.858  0.00  0.00    +0.000 C 
ATOM     38  C   UNL     1      -8.191  47.441  25.960  0.00  0.00    +0.000 C 
ATOM     39  C   UNL     1     -10.598  49.144  25.963  0.00  0.00    +0.000 C 
ATOM     40  C   UNL     1      -7.840  48.445  23.672  0.00  0.00    +0.000 C 
ATOM     41  C   UNL     1      -9.315  46.362  23.970  0.00  0.00    +0.000 C 
ATOM     42  C   UNL     1      -8.679  47.964  27.123  0.00  0.00    +0.000 C 
ATOM     43  C   UNL     1      -9.921  48.861  27.248  0.00  0.00    +0.000 C 
ATOM     44  C   UNL     1      -7.944  47.657  28.434  0.00  0.00    +0.000 C 
BRANCH  39  45
ATOM     45  O   UNL     1     -11.718  49.925  25.872  0.00  0.00    +0.000 OA
ATOM     46  H   UNL     1     -11.849  50.441  26.694  0.00  0.00    +0.000 HD
ENDBRANCH  39  45
ENDBRANCH  33  38
ENDBRANCH  31  34
ENDBRANCH  30  31
ENDBRANCH  28  30
ENDBRANCH  26  29
ENDBRANCH  25  26
ENDBRANCH   1  25
TORSDOF 16
ENDMDL
