MODEL 1
REMARK VINA RESULT:      -6.8      0.000      0.000
REMARK  Name = 5289155_Peridinin.pdbqt.pdb
REMARK  13 active torsions:
REMARK  status: ('A' for Active; 'I' for Inactive)
REMARK    1  A    between atoms: C_1  and  C_3
REMARK    2  A    between atoms: C_3  and  C_25
REMARK    3  A    between atoms: C_6  and  C_12
REMARK    4  A    between atoms: C_11  and  C_14
REMARK    5  A    between atoms: C_19  and  O_23
REMARK    6  A    between atoms: C_26  and  C_28
REMARK    7  A    between atoms: C_27  and  C_31
REMARK    8  A    between atoms: C_29  and  C_31
REMARK    9  A    between atoms: C_29  and  C_42
REMARK   10  A    between atoms: C_33  and  O_43
REMARK   11  A    between atoms: C_35  and  O_45
REMARK   12  A    between atoms: C_37  and  C_41
REMARK   13  A    between atoms: O_45  and  C_47
REMARK                            x       y       z     vdW  Elec       q    Type
REMARK                         _______ _______ _______ _____ _____    ______ ____
ROOT
ATOM      1  C   UNL     1     -13.709  50.814  23.666  0.00  0.00    +0.000 C 
ENDROOT
BRANCH   1   2
ATOM      2  C   UNL     1     -12.637  50.902  24.389  0.00  0.00    +0.000 C 
ATOM      3  C   UNL     1     -12.264  52.204  25.028  0.00  0.00    +0.000 C 
ATOM      4  O   UNL     1     -11.073  47.698  23.862  0.00  0.00    +0.000 OA
ATOM      5  O   UNL     1      -9.532  45.982  23.621  0.00  0.00    +0.000 OA
ATOM      6  C   UNL     1      -9.277  47.660  25.341  0.00  0.00    +0.000 C 
ATOM      7  C   UNL     1      -9.997  48.674  25.658  0.00  0.00    +0.000 C 
ATOM      8  C   UNL     1      -9.926  46.983  24.194  0.00  0.00    +0.000 C 
ATOM      9  C   UNL     1     -11.102  48.714  24.812  0.00  0.00    +0.000 C 
ATOM     10  C   UNL     1     -11.836  49.758  24.608  0.00  0.00    +0.000 C 
BRANCH   6  12
ATOM     11  C   UNL     1      -7.062  47.002  26.551  0.00  0.00    +0.000 C 
ATOM     12  C   UNL     1      -8.080  47.304  25.989  0.00  0.00    +0.000 C 
BRANCH  11  14
ATOM     13  O   UNL     1      -5.750  45.195  27.385  0.00  0.00    +0.000 OA
ATOM     14  C   UNL     1      -5.833  46.643  27.241  0.00  0.00    +0.000 C 
ATOM     15  C   UNL     1      -4.783  45.776  26.513  0.00  0.00    +0.000 C 
ATOM     16  C   UNL     1      -5.359  47.496  28.468  0.00  0.00    +0.000 C 
ATOM     17  C   UNL     1      -3.467  45.741  27.067  0.00  0.00    +0.000 C 
ATOM     18  C   UNL     1      -3.975  47.107  28.753  0.00  0.00    +0.000 C 
ATOM     19  C   UNL     1      -2.923  46.343  28.214  0.00  0.00    +0.000 C 
ATOM     20  C   UNL     1      -4.923  45.325  25.056  0.00  0.00    +0.000 C 
ATOM     21  C   UNL     1      -5.428  48.975  28.002  0.00  0.00    +0.000 C 
ATOM     22  C   UNL     1      -6.337  47.188  29.623  0.00  0.00    +0.000 C 
BRANCH  19  23
ATOM     23  O   UNL     1      -1.630  46.768  28.278  0.00  0.00    +0.000 OA
ATOM     24  H   UNL     1      -1.070  46.174  28.809  0.00  0.00    +0.000 HD
ENDBRANCH  19  23
ENDBRANCH  11  14
ENDBRANCH   6  12
ENDBRANCH   1   2
BRANCH   1  25
ATOM     25  C   UNL     1     -14.977  50.711  22.811  0.00  0.00    +0.000 C 
ATOM     26  C   UNL     1     -15.971  50.635  22.142  0.00  0.00    +0.000 C 
BRANCH  26  28
ATOM     27  C   UNL     1     -18.232  50.481  20.618  0.00  0.00    +0.000 C 
ATOM     28  C   UNL     1     -17.240  50.546  21.290  0.00  0.00    +0.000 C 
BRANCH  27  29
ATOM     29  C   UNL     1     -19.499  50.404  19.757  0.00  0.00    +0.000 C 
BRANCH  29  30
ATOM     30  C   UNL     1     -20.575  50.338  19.039  0.00  0.00    +0.000 C 
ATOM     31  C   UNL     1     -21.033  51.526  18.250  0.00  0.00    +0.000 C 
BRANCH  30  33
ATOM     32  C   UNL     1     -22.020  48.151  19.044  0.00  0.00    +0.000 C 
ATOM     33  C   UNL     1     -21.356  49.154  19.043  0.00  0.00    +0.000 C 
BRANCH  32  39
ATOM     34  C   UNL     1     -23.988  46.888  18.143  0.00  0.00    +0.000 C 
ATOM     35  C   UNL     1     -22.430  45.897  19.975  0.00  0.00    +0.000 C 
ATOM     36  C   UNL     1     -24.429  45.487  18.098  0.00  0.00    +0.000 C 
ATOM     37  C   UNL     1     -24.121  44.250  18.700  0.00  0.00    +0.000 C 
ATOM     38  C   UNL     1     -23.107  44.664  19.588  0.00  0.00    +0.000 C 
ATOM     39  C   UNL     1     -22.748  47.053  19.040  0.00  0.00    +0.000 C 
ATOM     40  C   UNL     1     -23.630  47.326  16.690  0.00  0.00    +0.000 C 
ATOM     41  C   UNL     1     -25.126  47.783  18.702  0.00  0.00    +0.000 C 
ATOM     42  C   UNL     1     -22.736  46.269  21.429  0.00  0.00    +0.000 C 
BRANCH  35  43
ATOM     43  O   UNL     1     -21.041  45.648  19.948  0.00  0.00    +0.000 OA
ATOM     44  H   UNL     1     -20.775  46.130  19.143  0.00  0.00    +0.000 HD
ENDBRANCH  35  43
BRANCH  37  45
ATOM     45  O   UNL     1     -25.156  43.438  19.145  0.00  0.00    +0.000 OA
BRANCH  45  47
ATOM     46  O   UNL     1     -24.269  41.503  20.129  0.00  0.00    +0.000 OA
ATOM     47  C   UNL     1     -24.738  42.151  19.212  0.00  0.00    +0.000 C 
ATOM     48  C   UNL     1     -24.864  41.402  17.932  0.00  0.00    +0.000 C 
ENDBRANCH  45  47
ENDBRANCH  37  45
ENDBRANCH  32  39
ENDBRANCH  30  33
ENDBRANCH  29  30
ENDBRANCH  27  29
ENDBRANCH  26  28
ENDBRANCH   1  25
TORSDOF 13
ENDMDL
MODEL 2
REMARK VINA RESULT:      -6.4     20.597     23.109
REMARK  Name = 5289155_Peridinin.pdbqt.pdb
REMARK  13 active torsions:
REMARK  status: ('A' for Active; 'I' for Inactive)
REMARK    1  A    between atoms: C_1  and  C_3
REMARK    2  A    between atoms: C_3  and  C_25
REMARK    3  A    between atoms: C_6  and  C_12
REMARK    4  A    between atoms: C_11  and  C_14
REMARK    5  A    between atoms: C_19  and  O_23
REMARK    6  A    between atoms: C_26  and  C_28
REMARK    7  A    between atoms: C_27  and  C_31
REMARK    8  A    between atoms: C_29  and  C_31
REMARK    9  A    between atoms: C_29  and  C_42
REMARK   10  A    between atoms: C_33  and  O_43
REMARK   11  A    between atoms: C_35  and  O_45
REMARK   12  A    between atoms: C_37  and  C_41
REMARK   13  A    between atoms: O_45  and  C_47
REMARK                            x       y       z     vdW  Elec       q    Type
REMARK                         _______ _______ _______ _____ _____    ______ ____
ROOT
ATOM      1  C   UNL     1      -9.291  34.515   3.462  0.00  0.00    +0.000 C 
ENDROOT
BRANCH   1   2
ATOM      2  C   UNL     1      -8.096  34.221   3.057  0.00  0.00    +0.000 C 
ATOM      3  C   UNL     1      -7.726  32.798   2.771  0.00  0.00    +0.000 C 
ATOM      4  O   UNL     1      -6.363  37.365   3.383  0.00  0.00    +0.000 OA
ATOM      5  O   UNL     1      -4.747  38.997   3.694  0.00  0.00    +0.000 OA
ATOM      6  C   UNL     1      -4.279  37.001   2.416  0.00  0.00    +0.000 C 
ATOM      7  C   UNL     1      -5.009  35.990   2.114  0.00  0.00    +0.000 C 
ATOM      8  C   UNL     1      -5.102  37.929   3.227  0.00  0.00    +0.000 C 
ATOM      9  C   UNL     1      -6.279  36.185   2.650  0.00  0.00    +0.000 C 
ATOM     10  C   UNL     1      -7.148  35.248   2.846  0.00  0.00    +0.000 C 
BRANCH   6  12
ATOM     11  C   UNL     1      -1.783  37.284   1.713  0.00  0.00    +0.000 C 
ATOM     12  C   UNL     1      -2.933  37.149   2.034  0.00  0.00    +0.000 C 
BRANCH  11  14
ATOM     13  O   UNL     1      -0.287  38.503   0.314  0.00  0.00    +0.000 OA
ATOM     14  C   UNL     1      -0.393  37.458   1.324  0.00  0.00    +0.000 C 
ATOM     15  C   UNL     1       0.299  38.815   1.576  0.00  0.00    +0.000 C 
ATOM     16  C   UNL     1       0.516  36.196   1.120  0.00  0.00    +0.000 C 
ATOM     17  C   UNL     1       1.725  38.842   1.517  0.00  0.00    +0.000 C 
ATOM     18  C   UNL     1       1.900  36.670   1.045  0.00  0.00    +0.000 C 
ATOM     19  C   UNL     1       2.665  37.838   1.230  0.00  0.00    +0.000 C 
ATOM     20  C   UNL     1      -0.377  39.987   2.294  0.00  0.00    +0.000 C 
ATOM     21  C   UNL     1       0.304  35.320   2.384  0.00  0.00    +0.000 C 
ATOM     22  C   UNL     1       0.029  35.506  -0.173  0.00  0.00    +0.000 C 
BRANCH  19  23
ATOM     23  O   UNL     1       3.898  37.796   1.810  0.00  0.00    +0.000 OA
ATOM     24  H   UNL     1       4.485  38.502   1.485  0.00  0.00    +0.000 HD
ENDBRANCH  19  23
ENDBRANCH  11  14
ENDBRANCH   6  12
ENDBRANCH   1   2
BRANCH   1  25
ATOM     25  C   UNL     1     -10.706  34.862   3.941  0.00  0.00    +0.000 C 
ATOM     26  C   UNL     1     -11.811  35.139   4.317  0.00  0.00    +0.000 C 
BRANCH  26  28
ATOM     27  C   UNL     1     -14.319  35.781   5.186  0.00  0.00    +0.000 C 
ATOM     28  C   UNL     1     -13.219  35.499   4.801  0.00  0.00    +0.000 C 
BRANCH  27  29
ATOM     29  C   UNL     1     -15.725  36.141   5.684  0.00  0.00    +0.000 C 
BRANCH  29  30
ATOM     30  C   UNL     1     -16.914  36.448   6.095  0.00  0.00    +0.000 C 
ATOM     31  C   UNL     1     -17.769  35.422   6.775  0.00  0.00    +0.000 C 
BRANCH  30  33
ATOM     32  C   UNL     1     -17.872  38.844   5.642  0.00  0.00    +0.000 C 
ATOM     33  C   UNL     1     -17.433  37.745   5.851  0.00  0.00    +0.000 C 
BRANCH  32  39
ATOM     34  C   UNL     1     -17.456  41.239   5.027  0.00  0.00    +0.000 C 
ATOM     35  C   UNL     1     -19.839  40.341   5.560  0.00  0.00    +0.000 C 
ATOM     36  C   UNL     1     -18.253  42.367   4.526  0.00  0.00    +0.000 C 
ATOM     37  C   UNL     1     -19.605  42.734   4.370  0.00  0.00    +0.000 C 
ATOM     38  C   UNL     1     -20.226  41.600   4.932  0.00  0.00    +0.000 C 
ATOM     39  C   UNL     1     -18.355  40.048   5.408  0.00  0.00    +0.000 C 
ATOM     40  C   UNL     1     -16.479  40.799   3.895  0.00  0.00    +0.000 C 
ATOM     41  C   UNL     1     -16.653  41.674   6.282  0.00  0.00    +0.000 C 
ATOM     42  C   UNL     1     -20.258  40.300   7.033  0.00  0.00    +0.000 C 
BRANCH  35  43
ATOM     43  O   UNL     1     -20.580  39.311   4.942  0.00  0.00    +0.000 OA
ATOM     44  H   UNL     1     -21.437  39.389   5.401  0.00  0.00    +0.000 HD
ENDBRANCH  35  43
BRANCH  37  45
ATOM     45  O   UNL     1     -20.006  44.011   4.742  0.00  0.00    +0.000 OA
BRANCH  45  47
ATOM     46  O   UNL     1     -22.265  44.597   4.508  0.00  0.00    +0.000 OA
ATOM     47  C   UNL     1     -21.149  44.344   4.094  0.00  0.00    +0.000 C 
ATOM     48  C   UNL     1     -21.016  44.395   2.613  0.00  0.00    +0.000 C 
ENDBRANCH  45  47
ENDBRANCH  37  45
ENDBRANCH  32  39
ENDBRANCH  30  33
ENDBRANCH  29  30
ENDBRANCH  27  29
ENDBRANCH  26  28
ENDBRANCH   1  25
TORSDOF 13
ENDMDL
MODEL 3
REMARK VINA RESULT:      -6.3     19.739     23.385
REMARK  Name = 5289155_Peridinin.pdbqt.pdb
REMARK  13 active torsions:
REMARK  status: ('A' for Active; 'I' for Inactive)
REMARK    1  A    between atoms: C_1  and  C_3
REMARK    2  A    between atoms: C_3  and  C_25
REMARK    3  A    between atoms: C_6  and  C_12
REMARK    4  A    between atoms: C_11  and  C_14
REMARK    5  A    between atoms: C_19  and  O_23
REMARK    6  A    between atoms: C_26  and  C_28
REMARK    7  A    between atoms: C_27  and  C_31
REMARK    8  A    between atoms: C_29  and  C_31
REMARK    9  A    between atoms: C_29  and  C_42
REMARK   10  A    between atoms: C_33  and  O_43
REMARK   11  A    between atoms: C_35  and  O_45
REMARK   12  A    between atoms: C_37  and  C_41
REMARK   13  A    between atoms: O_45  and  C_47
REMARK                            x       y       z     vdW  Elec       q    Type
REMARK                         _______ _______ _______ _____ _____    ______ ____
ROOT
ATOM      1  C   UNL     1     -21.450  33.741   7.605  0.00  0.00    +0.000 C 
ENDROOT
BRANCH   1   2
ATOM      2  C   UNL     1     -21.503  34.807   6.869  0.00  0.00    +0.000 C 
ATOM      3  C   UNL     1     -22.688  35.055   5.988  0.00  0.00    +0.000 C 
ATOM      4  O   UNL     1     -18.218  36.225   7.304  0.00  0.00    +0.000 OA
ATOM      5  O   UNL     1     -16.217  37.352   6.987  0.00  0.00    +0.000 OA
ATOM      6  C   UNL     1     -18.313  38.290   6.238  0.00  0.00    +0.000 C 
ATOM      7  C   UNL     1     -19.518  37.856   6.313  0.00  0.00    +0.000 C 
ATOM      8  C   UNL     1     -17.427  37.284   6.870  0.00  0.00    +0.000 C 
ATOM      9  C   UNL     1     -19.508  36.631   6.975  0.00  0.00    +0.000 C 
ATOM     10  C   UNL     1     -20.459  35.758   6.925  0.00  0.00    +0.000 C 
BRANCH   6  12
ATOM     11  C   UNL     1     -17.630  40.550   5.128  0.00  0.00    +0.000 C 
ATOM     12  C   UNL     1     -17.945  39.507   5.634  0.00  0.00    +0.000 C 
BRANCH  11  14
ATOM     13  O   UNL     1     -16.859  42.763   5.561  0.00  0.00    +0.000 OA
ATOM     14  C   UNL     1     -17.251  41.818   4.525  0.00  0.00    +0.000 C 
ATOM     15  C   UNL     1     -15.808  42.337   4.698  0.00  0.00    +0.000 C 
ATOM     16  C   UNL     1     -18.103  42.393   3.340  0.00  0.00    +0.000 C 
ATOM     17  C   UNL     1     -15.377  43.375   3.818  0.00  0.00    +0.000 C 
ATOM     18  C   UNL     1     -17.328  43.485   2.744  0.00  0.00    +0.000 C 
ATOM     19  C   UNL     1     -16.050  44.073   2.799  0.00  0.00    +0.000 C 
ATOM     20  C   UNL     1     -14.707  41.549   5.414  0.00  0.00    +0.000 C 
ATOM     21  C   UNL     1     -18.265  41.223   2.334  0.00  0.00    +0.000 C 
ATOM     22  C   UNL     1     -19.448  42.851   3.945  0.00  0.00    +0.000 C 
BRANCH  19  23
ATOM     23  O   UNL     1     -15.422  44.518   1.675  0.00  0.00    +0.000 OA
ATOM     24  H   UNL     1     -15.785  44.117   0.865  0.00  0.00    +0.000 HD
ENDBRANCH  19  23
ENDBRANCH  11  14
ENDBRANCH   6  12
ENDBRANCH   1   2
BRANCH   1  25
ATOM     25  C   UNL     1     -21.386  32.481   8.476  0.00  0.00    +0.000 C 
ATOM     26  C   UNL     1     -21.341  31.497   9.161  0.00  0.00    +0.000 C 
BRANCH  26  28
ATOM     27  C   UNL     1     -21.253  29.261  10.727  0.00  0.00    +0.000 C 
ATOM     28  C   UNL     1     -21.288  30.244  10.040  0.00  0.00    +0.000 C 
BRANCH  27  29
ATOM     29  C   UNL     1     -21.215  28.007  11.609  0.00  0.00    +0.000 C 
BRANCH  29  30
ATOM     30  C   UNL     1     -21.185  26.941  12.345  0.00  0.00    +0.000 C 
ATOM     31  C   UNL     1     -21.773  25.657  11.842  0.00  0.00    +0.000 C 
BRANCH  30  33
ATOM     32  C   UNL     1     -20.182  27.055  14.763  0.00  0.00    +0.000 C 
ATOM     33  C   UNL     1     -20.642  27.001  13.653  0.00  0.00    +0.000 C 
BRANCH  32  39
ATOM     34  C   UNL     1     -19.171  25.871  16.727  0.00  0.00    +0.000 C 
ATOM     35  C   UNL     1     -19.638  28.430  16.745  0.00  0.00    +0.000 C 
ATOM     36  C   UNL     1     -18.395  26.245  17.918  0.00  0.00    +0.000 C 
ATOM     37  C   UNL     1     -18.048  27.401  18.646  0.00  0.00    +0.000 C 
ATOM     38  C   UNL     1     -18.753  28.371  17.903  0.00  0.00    +0.000 C 
ATOM     39  C   UNL     1     -19.682  27.116  15.981  0.00  0.00    +0.000 C 
ATOM     40  C   UNL     1     -18.237  25.056  15.781  0.00  0.00    +0.000 C 
ATOM     41  C   UNL     1     -20.391  25.005  17.142  0.00  0.00    +0.000 C 
ATOM     42  C   UNL     1     -21.047  28.880  17.143  0.00  0.00    +0.000 C 
BRANCH  35  43
ATOM     43  O   UNL     1     -19.158  29.446  15.892  0.00  0.00    +0.000 OA
ATOM     44  H   UNL     1     -19.704  29.304  15.097  0.00  0.00    +0.000 HD
ENDBRANCH  35  43
BRANCH  37  45
ATOM     45  O   UNL     1     -18.135  27.378  20.032  0.00  0.00    +0.000 OA
BRANCH  45  47
ATOM     46  O   UNL     1     -15.805  27.151  20.183  0.00  0.00    +0.000 OA
ATOM     47  C   UNL     1     -16.950  26.989  20.563  0.00  0.00    +0.000 C 
ATOM     48  C   UNL     1     -17.073  26.215  21.828  0.00  0.00    +0.000 C 
ENDBRANCH  45  47
ENDBRANCH  37  45
ENDBRANCH  32  39
ENDBRANCH  30  33
ENDBRANCH  29  30
ENDBRANCH  27  29
ENDBRANCH  26  28
ENDBRANCH   1  25
TORSDOF 13
ENDMDL
MODEL 4
REMARK VINA RESULT:      -6.3     19.276     22.998
REMARK  Name = 5289155_Peridinin.pdbqt.pdb
REMARK  13 active torsions:
REMARK  status: ('A' for Active; 'I' for Inactive)
REMARK    1  A    between atoms: C_1  and  C_3
REMARK    2  A    between atoms: C_3  and  C_25
REMARK    3  A    between atoms: C_6  and  C_12
REMARK    4  A    between atoms: C_11  and  C_14
REMARK    5  A    between atoms: C_19  and  O_23
REMARK    6  A    between atoms: C_26  and  C_28
REMARK    7  A    between atoms: C_27  and  C_31
REMARK    8  A    between atoms: C_29  and  C_31
REMARK    9  A    between atoms: C_29  and  C_42
REMARK   10  A    between atoms: C_33  and  O_43
REMARK   11  A    between atoms: C_35  and  O_45
REMARK   12  A    between atoms: C_37  and  C_41
REMARK   13  A    between atoms: O_45  and  C_47
REMARK                            x       y       z     vdW  Elec       q    Type
REMARK                         _______ _______ _______ _____ _____    ______ ____
ROOT
ATOM      1  C   UNL     1     -21.768  33.784   7.442  0.00  0.00    +0.000 C 
ENDROOT
BRANCH   1   2
ATOM      2  C   UNL     1     -21.778  34.780   6.614  0.00  0.00    +0.000 C 
ATOM      3  C   UNL     1     -22.855  34.888   5.578  0.00  0.00    +0.000 C 
ATOM      4  O   UNL     1     -18.638  36.408   7.309  0.00  0.00    +0.000 OA
ATOM      5  O   UNL     1     -16.666  37.613   7.134  0.00  0.00    +0.000 OA
ATOM      6  C   UNL     1     -18.693  38.369   6.059  0.00  0.00    +0.000 C 
ATOM      7  C   UNL     1     -19.877  37.877   6.028  0.00  0.00    +0.000 C 
ATOM      8  C   UNL     1     -17.848  37.470   6.880  0.00  0.00    +0.000 C 
ATOM      9  C   UNL     1     -19.894  36.714   6.793  0.00  0.00    +0.000 C 
ATOM     10  C   UNL     1     -20.792  35.789   6.708  0.00  0.00    +0.000 C 
BRANCH   6  12
ATOM     11  C   UNL     1     -17.971  40.559   4.838  0.00  0.00    +0.000 C 
ATOM     12  C   UNL     1     -18.308  39.550   5.397  0.00  0.00    +0.000 C 
BRANCH  11  14
ATOM     13  O   UNL     1     -17.813  42.929   5.032  0.00  0.00    +0.000 OA
ATOM     14  C   UNL     1     -17.557  41.783   4.171  0.00  0.00    +0.000 C 
ATOM     15  C   UNL     1     -16.437  42.643   4.794  0.00  0.00    +0.000 C 
ATOM     16  C   UNL     1     -17.867  41.972   2.645  0.00  0.00    +0.000 C 
ATOM     17  C   UNL     1     -15.820  43.620   3.955  0.00  0.00    +0.000 C 
ATOM     18  C   UNL     1     -17.079  43.119   2.185  0.00  0.00    +0.000 C 
ATOM     19  C   UNL     1     -16.064  43.991   2.622  0.00  0.00    +0.000 C 
ATOM     20  C   UNL     1     -15.667  42.242   6.056  0.00  0.00    +0.000 C 
ATOM     21  C   UNL     1     -17.387  40.667   1.955  0.00  0.00    +0.000 C 
ATOM     22  C   UNL     1     -19.392  42.183   2.528  0.00  0.00    +0.000 C 
BRANCH  19  23
ATOM     23  O   UNL     1     -15.075  44.408   1.782  0.00  0.00    +0.000 OA
ATOM     24  H   UNL     1     -15.077  45.374   1.657  0.00  0.00    +0.000 HD
ENDBRANCH  19  23
ENDBRANCH  11  14
ENDBRANCH   6  12
ENDBRANCH   1   2
BRANCH   1  25
ATOM     25  C   UNL     1     -21.757  32.605   8.422  0.00  0.00    +0.000 C 
ATOM     26  C   UNL     1     -21.753  31.685   9.192  0.00  0.00    +0.000 C 
BRANCH  26  28
ATOM     27  C   UNL     1     -21.757  29.594  10.950  0.00  0.00    +0.000 C 
ATOM     28  C   UNL     1     -21.752  30.513  10.179  0.00  0.00    +0.000 C 
BRANCH  27  29
ATOM     29  C   UNL     1     -21.771  28.418  11.935  0.00  0.00    +0.000 C 
BRANCH  29  30
ATOM     30  C   UNL     1     -21.783  27.418  12.758  0.00  0.00    +0.000 C 
ATOM     31  C   UNL     1     -21.992  26.023  12.251  0.00  0.00    +0.000 C 
BRANCH  30  33
ATOM     32  C   UNL     1     -21.539  27.844  15.332  0.00  0.00    +0.000 C 
ATOM     33  C   UNL     1     -21.652  27.648  14.151  0.00  0.00    +0.000 C 
BRANCH  32  39
ATOM     34  C   UNL     1     -20.144  28.679  17.240  0.00  0.00    +0.000 C 
ATOM     35  C   UNL     1     -22.513  27.665  17.598  0.00  0.00    +0.000 C 
ATOM     36  C   UNL     1     -20.376  29.100  18.629  0.00  0.00    +0.000 C 
ATOM     37  C   UNL     1     -21.384  29.032  19.612  0.00  0.00    +0.000 C 
ATOM     38  C   UNL     1     -22.355  28.293  18.905  0.00  0.00    +0.000 C 
ATOM     39  C   UNL     1     -21.415  28.065  16.625  0.00  0.00    +0.000 C 
ATOM     40  C   UNL     1     -19.736  29.939  16.416  0.00  0.00    +0.000 C 
ATOM     41  C   UNL     1     -19.009  27.622  17.190  0.00  0.00    +0.000 C 
ATOM     42  C   UNL     1     -22.610  26.142  17.719  0.00  0.00    +0.000 C 
BRANCH  35  43
ATOM     43  O   UNL     1     -23.761  28.070  17.078  0.00  0.00    +0.000 OA
ATOM     44  H   UNL     1     -23.505  28.403  16.198  0.00  0.00    +0.000 HD
ENDBRANCH  35  43
BRANCH  37  45
ATOM     45  O   UNL     1     -21.039  28.678  20.910  0.00  0.00    +0.000 OA
BRANCH  45  47
ATOM     46  O   UNL     1     -22.763  29.930  21.889  0.00  0.00    +0.000 OA
ATOM     47  C   UNL     1     -21.619  29.530  21.790  0.00  0.00    +0.000 C 
ATOM     48  C   UNL     1     -20.684  30.083  22.808  0.00  0.00    +0.000 C 
ENDBRANCH  45  47
ENDBRANCH  37  45
ENDBRANCH  32  39
ENDBRANCH  30  33
ENDBRANCH  29  30
ENDBRANCH  27  29
ENDBRANCH  26  28
ENDBRANCH   1  25
TORSDOF 13
ENDMDL
MODEL 5
REMARK VINA RESULT:      -6.1     10.376     24.487
REMARK  Name = 5289155_Peridinin.pdbqt.pdb
REMARK  13 active torsions:
REMARK  status: ('A' for Active; 'I' for Inactive)
REMARK    1  A    between atoms: C_1  and  C_3
REMARK    2  A    between atoms: C_3  and  C_25
REMARK    3  A    between atoms: C_6  and  C_12
REMARK    4  A    between atoms: C_11  and  C_14
REMARK    5  A    between atoms: C_19  and  O_23
REMARK    6  A    between atoms: C_26  and  C_28
REMARK    7  A    between atoms: C_27  and  C_31
REMARK    8  A    between atoms: C_29  and  C_31
REMARK    9  A    between atoms: C_29  and  C_42
REMARK   10  A    between atoms: C_33  and  O_43
REMARK   11  A    between atoms: C_35  and  O_45
REMARK   12  A    between atoms: C_37  and  C_41
REMARK   13  A    between atoms: O_45  and  C_47
REMARK                            x       y       z     vdW  Elec       q    Type
REMARK                         _______ _______ _______ _____ _____    ______ ____
ROOT
ATOM      1  C   UNL     1       0.814  52.802  28.047  0.00  0.00    +0.000 C 
ENDROOT
BRANCH   1   2
ATOM      2  C   UNL     1      -0.476  52.800  28.167  0.00  0.00    +0.000 C 
ATOM      3  C   UNL     1      -1.174  53.957  28.812  0.00  0.00    +0.000 C 
ATOM      4  O   UNL     1      -1.359  49.473  27.099  0.00  0.00    +0.000 OA
ATOM      5  O   UNL     1      -2.410  47.425  26.826  0.00  0.00    +0.000 OA
ATOM      6  C   UNL     1      -3.684  49.468  27.018  0.00  0.00    +0.000 C 
ATOM      7  C   UNL     1      -3.320  50.690  27.163  0.00  0.00    +0.000 C 
ATOM      8  C   UNL     1      -2.460  48.634  26.960  0.00  0.00    +0.000 C 
ATOM      9  C   UNL     1      -1.929  50.739  27.185  0.00  0.00    +0.000 C 
ATOM     10  C   UNL     1      -1.233  51.722  27.655  0.00  0.00    +0.000 C 
BRANCH   6  12
ATOM     11  C   UNL     1      -6.169  48.687  26.886  0.00  0.00    +0.000 C 
ATOM     12  C   UNL     1      -5.023  49.043  26.949  0.00  0.00    +0.000 C 
BRANCH  11  14
ATOM     13  O   UNL     1      -7.983  47.710  28.084  0.00  0.00    +0.000 OA
ATOM     14  C   UNL     1      -7.559  48.268  26.807  0.00  0.00    +0.000 C 
ATOM     15  C   UNL     1      -8.605  48.940  27.721  0.00  0.00    +0.000 C 
ATOM     16  C   UNL     1      -8.071  47.534  25.518  0.00  0.00    +0.000 C 
ATOM     17  C   UNL     1      -9.981  48.768  27.377  0.00  0.00    +0.000 C 
ATOM     18  C   UNL     1      -9.535  47.516  25.587  0.00  0.00    +0.000 C 
ATOM     19  C   UNL     1     -10.599  48.048  26.340  0.00  0.00    +0.000 C 
ATOM     20  C   UNL     1      -8.279  50.096  28.671  0.00  0.00    +0.000 C 
ATOM     21  C   UNL     1      -7.590  48.399  24.324  0.00  0.00    +0.000 C 
ATOM     22  C   UNL     1      -7.436  46.127  25.531  0.00  0.00    +0.000 C 
BRANCH  19  23
ATOM     23  O   UNL     1     -11.754  48.460  25.746  0.00  0.00    +0.000 OA
ATOM     24  H   UNL     1     -12.532  48.332  26.319  0.00  0.00    +0.000 HD
ENDBRANCH  19  23
ENDBRANCH  11  14
ENDBRANCH   6  12
ENDBRANCH   1   2
BRANCH   1  25
ATOM     25  C   UNL     1       2.340  52.803  27.905  0.00  0.00    +0.000 C 
ATOM     26  C   UNL     1       3.535  52.808  27.791  0.00  0.00    +0.000 C 
BRANCH  26  28
ATOM     27  C   UNL     1       6.253  52.836  27.520  0.00  0.00    +0.000 C 
ATOM     28  C   UNL     1       5.059  52.821  27.641  0.00  0.00    +0.000 C 
BRANCH  27  29
ATOM     29  C   UNL     1       7.778  52.858  27.358  0.00  0.00    +0.000 C 
BRANCH  29  30
ATOM     30  C   UNL     1       9.067  52.881  27.231  0.00  0.00    +0.000 C 
ATOM     31  C   UNL     1       9.809  54.183  27.280  0.00  0.00    +0.000 C 
BRANCH  30  33
ATOM     32  C   UNL     1      10.378  50.657  26.783  0.00  0.00    +0.000 C 
ATOM     33  C   UNL     1       9.775  51.677  26.989  0.00  0.00    +0.000 C 
BRANCH  32  39
ATOM     34  C   UNL     1      10.501  48.425  25.650  0.00  0.00    +0.000 C 
ATOM     35  C   UNL     1      12.372  49.270  27.247  0.00  0.00    +0.000 C 
ATOM     36  C   UNL     1      11.549  47.447  25.327  0.00  0.00    +0.000 C 
ATOM     37  C   UNL     1      12.886  47.161  25.671  0.00  0.00    +0.000 C 
ATOM     38  C   UNL     1      13.109  48.177  26.623  0.00  0.00    +0.000 C 
ATOM     39  C   UNL     1      11.043  49.542  26.561  0.00  0.00    +0.000 C 
ATOM     40  C   UNL     1      10.002  49.054  24.313  0.00  0.00    +0.000 C 
ATOM     41  C   UNL     1       9.324  47.720  26.376  0.00  0.00    +0.000 C 
ATOM     42  C   UNL     1      12.174  49.025  28.746  0.00  0.00    +0.000 C 
BRANCH  35  43
ATOM     43  O   UNL     1      13.177  50.426  27.170  0.00  0.00    +0.000 OA
ATOM     44  H   UNL     1      12.855  50.937  27.936  0.00  0.00    +0.000 HD
ENDBRANCH  35  43
BRANCH  37  45
ATOM     45  O   UNL     1      13.247  45.848  25.946  0.00  0.00    +0.000 OA
BRANCH  45  47
ATOM     46  O   UNL     1      15.120  46.196  24.578  0.00  0.00    +0.000 OA
ATOM     47  C   UNL     1      14.364  45.521  25.251  0.00  0.00    +0.000 C 
ATOM     48  C   UNL     1      14.719  44.077  25.314  0.00  0.00    +0.000 C 
ENDBRANCH  45  47
ENDBRANCH  37  45
ENDBRANCH  32  39
ENDBRANCH  30  33
ENDBRANCH  29  30
ENDBRANCH  27  29
ENDBRANCH  26  28
ENDBRANCH   1  25
TORSDOF 13
ENDMDL
MODEL 6
REMARK VINA RESULT:      -6.1     19.221     21.909
REMARK  Name = 5289155_Peridinin.pdbqt.pdb
REMARK  13 active torsions:
REMARK  status: ('A' for Active; 'I' for Inactive)
REMARK    1  A    between atoms: C_1  and  C_3
REMARK    2  A    between atoms: C_3  and  C_25
REMARK    3  A    between atoms: C_6  and  C_12
REMARK    4  A    between atoms: C_11  and  C_14
REMARK    5  A    between atoms: C_19  and  O_23
REMARK    6  A    between atoms: C_26  and  C_28
REMARK    7  A    between atoms: C_27  and  C_31
REMARK    8  A    between atoms: C_29  and  C_31
REMARK    9  A    between atoms: C_29  and  C_42
REMARK   10  A    between atoms: C_33  and  O_43
REMARK   11  A    between atoms: C_35  and  O_45
REMARK   12  A    between atoms: C_37  and  C_41
REMARK   13  A    between atoms: O_45  and  C_47
REMARK                            x       y       z     vdW  Elec       q    Type
REMARK                         _______ _______ _______ _____ _____    ______ ____
ROOT
ATOM      1  C   UNL     1     -21.823  29.109  12.204  0.00  0.00    +0.000 C 
ENDROOT
BRANCH   1   2
ATOM      2  C   UNL     1     -21.940  28.402  13.284  0.00  0.00    +0.000 C 
ATOM      3  C   UNL     1     -22.974  27.322  13.369  0.00  0.00    +0.000 C 
ATOM      4  O   UNL     1     -19.709  30.079  15.565  0.00  0.00    +0.000 OA
ATOM      5  O   UNL     1     -18.696  30.936  17.465  0.00  0.00    +0.000 OA
ATOM      6  C   UNL     1     -19.643  28.714  17.447  0.00  0.00    +0.000 C 
ATOM      7  C   UNL     1     -20.234  28.045  16.525  0.00  0.00    +0.000 C 
ATOM      8  C   UNL     1     -19.272  30.034  16.885  0.00  0.00    +0.000 C 
ATOM      9  C   UNL     1     -20.266  28.819  15.368  0.00  0.00    +0.000 C 
ATOM     10  C   UNL     1     -21.065  28.622  14.372  0.00  0.00    +0.000 C 
BRANCH   6  12
ATOM     11  C   UNL     1     -19.246  27.828  19.869  0.00  0.00    +0.000 C 
ATOM     12  C   UNL     1     -19.427  28.241  18.755  0.00  0.00    +0.000 C 
BRANCH  11  14
ATOM     13  O   UNL     1     -18.783  25.887  21.172  0.00  0.00    +0.000 OA
ATOM     14  C   UNL     1     -19.036  27.321  21.215  0.00  0.00    +0.000 C 
ATOM     15  C   UNL     1     -17.677  26.688  21.582  0.00  0.00    +0.000 C 
ATOM     16  C   UNL     1     -19.947  27.835  22.384  0.00  0.00    +0.000 C 
ATOM     17  C   UNL     1     -17.382  26.532  22.970  0.00  0.00    +0.000 C 
ATOM     18  C   UNL     1     -19.320  27.407  23.638  0.00  0.00    +0.000 C 
ATOM     19  C   UNL     1     -18.133  26.825  24.121  0.00  0.00    +0.000 C 
ATOM     20  C   UNL     1     -16.486  26.628  20.620  0.00  0.00    +0.000 C 
ATOM     21  C   UNL     1     -19.942  29.383  22.269  0.00  0.00    +0.000 C 
ATOM     22  C   UNL     1     -21.346  27.224  22.154  0.00  0.00    +0.000 C 
BRANCH  19  23
ATOM     23  O   UNL     1     -17.562  27.239  25.287  0.00  0.00    +0.000 OA
ATOM     24  H   UNL     1     -17.294  28.175  25.257  0.00  0.00    +0.000 HD
ENDBRANCH  19  23
ENDBRANCH  11  14
ENDBRANCH   6  12
ENDBRANCH   1   2
BRANCH   1  25
ATOM     25  C   UNL     1     -21.687  29.946  10.927  0.00  0.00    +0.000 C 
ATOM     26  C   UNL     1     -21.574  30.603   9.929  0.00  0.00    +0.000 C 
BRANCH  26  28
ATOM     27  C   UNL     1     -21.308  32.096   7.658  0.00  0.00    +0.000 C 
ATOM     28  C   UNL     1     -21.424  31.443   8.657  0.00  0.00    +0.000 C 
BRANCH  27  29
ATOM     29  C   UNL     1     -21.159  32.925   6.376  0.00  0.00    +0.000 C 
BRANCH  29  30
ATOM     30  C   UNL     1     -21.039  33.618   5.288  0.00  0.00    +0.000 C 
ATOM     31  C   UNL     1     -21.562  33.084   3.989  0.00  0.00    +0.000 C 
BRANCH  30  33
ATOM     32  C   UNL     1     -19.784  35.918   5.336  0.00  0.00    +0.000 C 
ATOM     33  C   UNL     1     -20.361  34.863   5.314  0.00  0.00    +0.000 C 
BRANCH  32  39
ATOM     34  C   UNL     1     -17.925  37.330   6.249  0.00  0.00    +0.000 C 
ATOM     35  C   UNL     1     -19.638  38.248   4.520  0.00  0.00    +0.000 C 
ATOM     36  C   UNL     1     -17.230  38.565   5.860  0.00  0.00    +0.000 C 
ATOM     37  C   UNL     1     -17.392  39.646   4.971  0.00  0.00    +0.000 C 
ATOM     38  C   UNL     1     -18.634  39.300   4.398  0.00  0.00    +0.000 C 
ATOM     39  C   UNL     1     -19.150  37.073   5.353  0.00  0.00    +0.000 C 
ATOM     40  C   UNL     1     -16.923  36.145   6.095  0.00  0.00    +0.000 C 
ATOM     41  C   UNL     1     -18.402  37.432   7.723  0.00  0.00    +0.000 C 
ATOM     42  C   UNL     1     -20.958  38.798   5.068  0.00  0.00    +0.000 C 
BRANCH  35  43
ATOM     43  O   UNL     1     -19.943  37.797   3.218  0.00  0.00    +0.000 OA
ATOM     44  H   UNL     1     -20.910  37.928   3.191  0.00  0.00    +0.000 HD
ENDBRANCH  35  43
BRANCH  37  45
ATOM     45  O   UNL     1     -17.166  40.938   5.429  0.00  0.00    +0.000 OA
BRANCH  45  47
ATOM     46  O   UNL     1     -14.925  40.639   4.805  0.00  0.00    +0.000 OA
ATOM     47  C   UNL     1     -15.870  41.280   5.226  0.00  0.00    +0.000 C 
ATOM     48  C   UNL     1     -15.546  42.684   5.595  0.00  0.00    +0.000 C 
ENDBRANCH  45  47
ENDBRANCH  37  45
ENDBRANCH  32  39
ENDBRANCH  30  33
ENDBRANCH  29  30
ENDBRANCH  27  29
ENDBRANCH  26  28
ENDBRANCH   1  25
TORSDOF 13
ENDMDL
MODEL 7
REMARK VINA RESULT:      -6.1     27.468     32.811
REMARK  Name = 5289155_Peridinin.pdbqt.pdb
REMARK  13 active torsions:
REMARK  status: ('A' for Active; 'I' for Inactive)
REMARK    1  A    between atoms: C_1  and  C_3
REMARK    2  A    between atoms: C_3  and  C_25
REMARK    3  A    between atoms: C_6  and  C_12
REMARK    4  A    between atoms: C_11  and  C_14
REMARK    5  A    between atoms: C_19  and  O_23
REMARK    6  A    between atoms: C_26  and  C_28
REMARK    7  A    between atoms: C_27  and  C_31
REMARK    8  A    between atoms: C_29  and  C_31
REMARK    9  A    between atoms: C_29  and  C_42
REMARK   10  A    between atoms: C_33  and  O_43
REMARK   11  A    between atoms: C_35  and  O_45
REMARK   12  A    between atoms: C_37  and  C_41
REMARK   13  A    between atoms: O_45  and  C_47
REMARK                            x       y       z     vdW  Elec       q    Type
REMARK                         _______ _______ _______ _____ _____    ______ ____
ROOT
ATOM      1  C   UNL     1      11.986  34.539  11.709  0.00  0.00    +0.000 C 
ENDROOT
BRANCH   1   2
ATOM      2  C   UNL     1      11.984  35.040  10.514  0.00  0.00    +0.000 C 
ATOM      3  C   UNL     1      13.018  34.614   9.518  0.00  0.00    +0.000 C 
ATOM      4  O   UNL     1       9.473  37.615  10.748  0.00  0.00    +0.000 OA
ATOM      5  O   UNL     1       8.228  39.547  10.450  0.00  0.00    +0.000 OA
ATOM      6  C   UNL     1       9.205  38.387   8.570  0.00  0.00    +0.000 C 
ATOM      7  C   UNL     1       9.911  37.318   8.500  0.00  0.00    +0.000 C 
ATOM      8  C   UNL     1       8.883  38.626   9.996  0.00  0.00    +0.000 C 
ATOM      9  C   UNL     1      10.068  36.805   9.785  0.00  0.00    +0.000 C 
ATOM     10  C   UNL     1      10.983  35.963  10.135  0.00  0.00    +0.000 C 
BRANCH   6  12
ATOM     11  C   UNL     1       8.523  39.840   6.513  0.00  0.00    +0.000 C 
ATOM     12  C   UNL     1       8.842  39.171   7.459  0.00  0.00    +0.000 C 
BRANCH  11  14
ATOM     13  O   UNL     1       9.245  40.785   4.448  0.00  0.00    +0.000 OA
ATOM     14  C   UNL     1       8.126  40.645   5.370  0.00  0.00    +0.000 C 
ATOM     15  C   UNL     1       8.147  40.019   3.959  0.00  0.00    +0.000 C 
ATOM     16  C   UNL     1       7.242  41.922   5.595  0.00  0.00    +0.000 C 
ATOM     17  C   UNL     1       7.428  40.701   2.931  0.00  0.00    +0.000 C 
ATOM     18  C   UNL     1       6.749  42.340   4.280  0.00  0.00    +0.000 C 
ATOM     19  C   UNL     1       6.698  41.902   2.943  0.00  0.00    +0.000 C 
ATOM     20  C   UNL     1       8.493  38.551   3.692  0.00  0.00    +0.000 C 
ATOM     21  C   UNL     1       6.068  41.464   6.501  0.00  0.00    +0.000 C 
ATOM     22  C   UNL     1       8.148  42.970   6.276  0.00  0.00    +0.000 C 
BRANCH  19  23
ATOM     23  O   UNL     1       5.593  42.099   2.171  0.00  0.00    +0.000 OA
ATOM     24  H   UNL     1       4.909  42.620   2.629  0.00  0.00    +0.000 HD
ENDBRANCH  19  23
ENDBRANCH  11  14
ENDBRANCH   6  12
ENDBRANCH   1   2
BRANCH   1  25
ATOM     25  C   UNL     1      11.987  33.945  13.123  0.00  0.00    +0.000 C 
ATOM     26  C   UNL     1      11.983  33.484  14.231  0.00  0.00    +0.000 C 
BRANCH  26  28
ATOM     27  C   UNL     1      11.960  32.440  16.755  0.00  0.00    +0.000 C 
ATOM     28  C   UNL     1      11.973  32.900  15.647  0.00  0.00    +0.000 C 
BRANCH  27  29
ATOM     29  C   UNL     1      11.937  31.852  18.171  0.00  0.00    +0.000 C 
BRANCH  29  30
ATOM     30  C   UNL     1      11.927  31.356  19.368  0.00  0.00    +0.000 C 
ATOM     31  C   UNL     1      11.887  29.872  19.572  0.00  0.00    +0.000 C 
BRANCH  30  33
ATOM     32  C   UNL     1      11.873  32.957  21.442  0.00  0.00    +0.000 C 
ATOM     33  C   UNL     1      11.899  32.221  20.491  0.00  0.00    +0.000 C 
BRANCH  32  39
ATOM     34  C   UNL     1      10.531  34.384  23.005  0.00  0.00    +0.000 C 
ATOM     35  C   UNL     1      13.116  34.165  23.206  0.00  0.00    +0.000 C 
ATOM     36  C   UNL     1      10.717  34.978  24.336  0.00  0.00    +0.000 C 
ATOM     37  C   UNL     1      11.754  35.236  25.255  0.00  0.00    +0.000 C 
ATOM     38  C   UNL     1      12.853  34.755  24.514  0.00  0.00    +0.000 C 
ATOM     39  C   UNL     1      11.839  33.760  22.485  0.00  0.00    +0.000 C 
ATOM     40  C   UNL     1       9.445  33.271  23.121  0.00  0.00    +0.000 C 
ATOM     41  C   UNL     1      10.068  35.473  22.000  0.00  0.00    +0.000 C 
ATOM     42  C   UNL     1      13.966  35.094  22.335  0.00  0.00    +0.000 C 
BRANCH  35  43
ATOM     43  O   UNL     1      13.916  33.020  23.407  0.00  0.00    +0.000 OA
ATOM     44  H   UNL     1      14.788  33.423  23.578  0.00  0.00    +0.000 HD
ENDBRANCH  35  43
BRANCH  37  45
ATOM     45  O   UNL     1      11.813  36.477  25.876  0.00  0.00    +0.000 OA
BRANCH  45  47
ATOM     46  O   UNL     1      12.315  35.802  28.065  0.00  0.00    +0.000 OA
ATOM     47  C   UNL     1      12.534  36.387  27.021  0.00  0.00    +0.000 C 
ATOM     48  C   UNL     1      13.812  37.149  26.998  0.00  0.00    +0.000 C 
ENDBRANCH  45  47
ENDBRANCH  37  45
ENDBRANCH  32  39
ENDBRANCH  30  33
ENDBRANCH  29  30
ENDBRANCH  27  29
ENDBRANCH  26  28
ENDBRANCH   1  25
TORSDOF 13
ENDMDL
MODEL 8
REMARK VINA RESULT:      -6.1     19.755     21.949
REMARK  Name = 5289155_Peridinin.pdbqt.pdb
REMARK  13 active torsions:
REMARK  status: ('A' for Active; 'I' for Inactive)
REMARK    1  A    between atoms: C_1  and  C_3
REMARK    2  A    between atoms: C_3  and  C_25
REMARK    3  A    between atoms: C_6  and  C_12
REMARK    4  A    between atoms: C_11  and  C_14
REMARK    5  A    between atoms: C_19  and  O_23
REMARK    6  A    between atoms: C_26  and  C_28
REMARK    7  A    between atoms: C_27  and  C_31
REMARK    8  A    between atoms: C_29  and  C_31
REMARK    9  A    between atoms: C_29  and  C_42
REMARK   10  A    between atoms: C_33  and  O_43
REMARK   11  A    between atoms: C_35  and  O_45
REMARK   12  A    between atoms: C_37  and  C_41
REMARK   13  A    between atoms: O_45  and  C_47
REMARK                            x       y       z     vdW  Elec       q    Type
REMARK                         _______ _______ _______ _____ _____    ______ ____
ROOT
ATOM      1  C   UNL     1     -19.499  26.558  14.918  0.00  0.00    +0.000 C 
ENDROOT
BRANCH   1   2
ATOM      2  C   UNL     1     -19.038  25.824  15.881  0.00  0.00    +0.000 C 
ATOM      3  C   UNL     1     -18.776  24.367  15.658  0.00  0.00    +0.000 C 
ATOM      4  O   UNL     1     -19.171  28.060  18.705  0.00  0.00    +0.000 OA
ATOM      5  O   UNL     1     -19.343  28.946  20.840  0.00  0.00    +0.000 OA
ATOM      6  C   UNL     1     -18.102  26.916  20.424  0.00  0.00    +0.000 C 
ATOM      7  C   UNL     1     -17.872  26.262  19.345  0.00  0.00    +0.000 C 
ATOM      8  C   UNL     1     -18.929  28.094  20.074  0.00  0.00    +0.000 C 
ATOM      9  C   UNL     1     -18.472  26.934  18.283  0.00  0.00    +0.000 C 
ATOM     10  C   UNL     1     -18.744  26.405  17.136  0.00  0.00    +0.000 C 
BRANCH   6  12
ATOM     11  C   UNL     1     -17.247  26.211  22.786  0.00  0.00    +0.000 C 
ATOM     12  C   UNL     1     -17.643  26.531  21.698  0.00  0.00    +0.000 C 
BRANCH  11  14
ATOM     13  O   UNL     1     -15.865  24.689  23.992  0.00  0.00    +0.000 OA
ATOM     14  C   UNL     1     -16.760  25.833  24.103  0.00  0.00    +0.000 C 
ATOM     15  C   UNL     1     -15.248  25.907  24.401  0.00  0.00    +0.000 C 
ATOM     16  C   UNL     1     -17.751  25.829  25.320  0.00  0.00    +0.000 C 
ATOM     17  C   UNL     1     -14.850  25.877  25.772  0.00  0.00    +0.000 C 
ATOM     18  C   UNL     1     -16.939  25.719  26.535  0.00  0.00    +0.000 C 
ATOM     19  C   UNL     1     -15.596  25.755  26.957  0.00  0.00    +0.000 C 
ATOM     20  C   UNL     1     -14.215  26.437  23.402  0.00  0.00    +0.000 C 
ATOM     21  C   UNL     1     -18.480  27.199  25.270  0.00  0.00    +0.000 C 
ATOM     22  C   UNL     1     -18.707  24.636  25.106  0.00  0.00    +0.000 C 
BRANCH  19  23
ATOM     23  O   UNL     1     -15.233  26.362  28.121  0.00  0.00    +0.000 OA
ATOM     24  H   UNL     1     -14.727  25.771  28.706  0.00  0.00    +0.000 HD
ENDBRANCH  19  23
ENDBRANCH  11  14
ENDBRANCH   6  12
ENDBRANCH   1   2
BRANCH   1  25
ATOM     25  C   UNL     1     -20.045  27.425  13.778  0.00  0.00    +0.000 C 
ATOM     26  C   UNL     1     -20.468  28.108  12.887  0.00  0.00    +0.000 C 
BRANCH  26  28
ATOM     27  C   UNL     1     -21.417  29.666  10.854  0.00  0.00    +0.000 C 
ATOM     28  C   UNL     1     -21.002  28.984  11.749  0.00  0.00    +0.000 C 
BRANCH  27  29
ATOM     29  C   UNL     1     -21.942  30.537   9.705  0.00  0.00    +0.000 C 
BRANCH  29  30
ATOM     30  C   UNL     1     -22.388  31.280   8.743  0.00  0.00    +0.000 C 
ATOM     31  C   UNL     1     -23.758  31.049   8.180  0.00  0.00    +0.000 C 
BRANCH  30  33
ATOM     32  C   UNL     1     -20.851  33.132   7.706  0.00  0.00    +0.000 C 
ATOM     33  C   UNL     1     -21.557  32.282   8.180  0.00  0.00    +0.000 C 
BRANCH  32  39
ATOM     34  C   UNL     1     -20.632  35.279   6.431  0.00  0.00    +0.000 C 
ATOM     35  C   UNL     1     -18.558  33.942   7.255  0.00  0.00    +0.000 C 
ATOM     36  C   UNL     1     -19.595  36.300   6.227  0.00  0.00    +0.000 C 
ATOM     37  C   UNL     1     -18.210  36.471   6.429  0.00  0.00    +0.000 C 
ATOM     38  C   UNL     1     -17.887  35.201   6.950  0.00  0.00    +0.000 C 
ATOM     39  C   UNL     1     -20.072  34.059   7.186  0.00  0.00    +0.000 C 
ATOM     40  C   UNL     1     -21.778  35.919   7.273  0.00  0.00    +0.000 C 
ATOM     41  C   UNL     1     -21.183  34.803   5.061  0.00  0.00    +0.000 C 
ATOM     42  C   UNL     1     -18.055  32.809   6.356  0.00  0.00    +0.000 C 
BRANCH  35  43
ATOM     43  O   UNL     1     -18.182  33.564   8.562  0.00  0.00    +0.000 OA
ATOM     44  H   UNL     1     -18.535  34.308   9.086  0.00  0.00    +0.000 HD
ENDBRANCH  35  43
BRANCH  37  45
ATOM     45  O   UNL     1     -17.444  37.031   5.415  0.00  0.00    +0.000 OA
BRANCH  45  47
ATOM     46  O   UNL     1     -15.622  37.630   6.766  0.00  0.00    +0.000 OA
ATOM     47  C   UNL     1     -16.496  37.842   5.947  0.00  0.00    +0.000 C 
ATOM     48  C   UNL     1     -16.545  39.243   5.448  0.00  0.00    +0.000 C 
ENDBRANCH  45  47
ENDBRANCH  37  45
ENDBRANCH  32  39
ENDBRANCH  30  33
ENDBRANCH  29  30
ENDBRANCH  27  29
ENDBRANCH  26  28
ENDBRANCH   1  25
TORSDOF 13
ENDMDL
MODEL 9
REMARK VINA RESULT:      -6.1     22.252     28.511
REMARK  Name = 5289155_Peridinin.pdbqt.pdb
REMARK  13 active torsions:
REMARK  status: ('A' for Active; 'I' for Inactive)
REMARK    1  A    between atoms: C_1  and  C_3
REMARK    2  A    between atoms: C_3  and  C_25
REMARK    3  A    between atoms: C_6  and  C_12
REMARK    4  A    between atoms: C_11  and  C_14
REMARK    5  A    between atoms: C_19  and  O_23
REMARK    6  A    between atoms: C_26  and  C_28
REMARK    7  A    between atoms: C_27  and  C_31
REMARK    8  A    between atoms: C_29  and  C_31
REMARK    9  A    between atoms: C_29  and  C_42
REMARK   10  A    between atoms: C_33  and  O_43
REMARK   11  A    between atoms: C_35  and  O_45
REMARK   12  A    between atoms: C_37  and  C_41
REMARK   13  A    between atoms: O_45  and  C_47
REMARK                            x       y       z     vdW  Elec       q    Type
REMARK                         _______ _______ _______ _____ _____    ______ ____
ROOT
ATOM      1  C   UNL     1       9.631  47.415   8.521  0.00  0.00    +0.000 C 
ENDROOT
BRANCH   1   2
ATOM      2  C   UNL     1      10.065  46.229   8.233  0.00  0.00    +0.000 C 
ATOM      3  C   UNL     1      11.490  45.860   8.510  0.00  0.00    +0.000 C 
ATOM      4  O   UNL     1       7.289  44.791   6.440  0.00  0.00    +0.000 OA
ATOM      5  O   UNL     1       5.976  43.544   4.994  0.00  0.00    +0.000 OA
ATOM      6  C   UNL     1       7.873  42.562   6.122  0.00  0.00    +0.000 C 
ATOM      7  C   UNL     1       8.718  43.052   6.954  0.00  0.00    +0.000 C 
ATOM      8  C   UNL     1       6.918  43.636   5.760  0.00  0.00    +0.000 C 
ATOM      9  C   UNL     1       8.383  44.381   7.196  0.00  0.00    +0.000 C 
ATOM     10  C   UNL     1       9.185  45.265   7.690  0.00  0.00    +0.000 C 
BRANCH   6  12
ATOM     11  C   UNL     1       7.925  40.101   5.258  0.00  0.00    +0.000 C 
ATOM     12  C   UNL     1       7.901  41.237   5.651  0.00  0.00    +0.000 C 
BRANCH  11  14
ATOM     13  O   UNL     1       9.330  38.331   4.501  0.00  0.00    +0.000 OA
ATOM     14  C   UNL     1       7.958  38.724   4.792  0.00  0.00    +0.000 C 
ATOM     15  C   UNL     1       8.729  37.667   5.611  0.00  0.00    +0.000 C 
ATOM     16  C   UNL     1       6.860  38.222   3.791  0.00  0.00    +0.000 C 
ATOM     17  C   UNL     1       8.451  36.294   5.333  0.00  0.00    +0.000 C 
ATOM     18  C   UNL     1       6.955  36.760   3.747  0.00  0.00    +0.000 C 
ATOM     19  C   UNL     1       7.597  35.688   4.395  0.00  0.00    +0.000 C 
ATOM     20  C   UNL     1       9.412  37.968   6.949  0.00  0.00    +0.000 C 
ATOM     21  C   UNL     1       5.503  38.665   4.401  0.00  0.00    +0.000 C 
ATOM     22  C   UNL     1       7.155  38.901   2.436  0.00  0.00    +0.000 C 
BRANCH  19  23
ATOM     23  O   UNL     1       6.950  34.515   4.641  0.00  0.00    +0.000 OA
ATOM     24  H   UNL     1       7.558  33.805   4.915  0.00  0.00    +0.000 HD
ENDBRANCH  19  23
ENDBRANCH  11  14
ENDBRANCH   6  12
ENDBRANCH   1   2
BRANCH   1  25
ATOM     25  C   UNL     1       9.117  48.818   8.862  0.00  0.00    +0.000 C 
ATOM     26  C   UNL     1       8.718  49.919   9.124  0.00  0.00    +0.000 C 
BRANCH  26  28
ATOM     27  C   UNL     1       7.822  52.432   9.708  0.00  0.00    +0.000 C 
ATOM     28  C   UNL     1       8.213  51.327   9.454  0.00  0.00    +0.000 C 
BRANCH  27  29
ATOM     29  C   UNL     1       7.327  53.848  10.030  0.00  0.00    +0.000 C 
BRANCH  29  30
ATOM     30  C   UNL     1       6.906  55.040  10.312  0.00  0.00    +0.000 C 
ATOM     31  C   UNL     1       7.310  56.207   9.462  0.00  0.00    +0.000 C 
BRANCH  30  33
ATOM     32  C   UNL     1       5.425  55.437  12.437  0.00  0.00    +0.000 C 
ATOM     33  C   UNL     1       6.104  55.253  11.462  0.00  0.00    +0.000 C 
BRANCH  32  39
ATOM     34  C   UNL     1       4.428  57.048  14.078  0.00  0.00    +0.000 C 
ATOM     35  C   UNL     1       4.060  54.479  14.264  0.00  0.00    +0.000 C 
ATOM     36  C   UNL     1       3.333  57.035  15.058  0.00  0.00    +0.000 C 
ATOM     37  C   UNL     1       2.493  56.109  15.709  0.00  0.00    +0.000 C 
ATOM     38  C   UNL     1       3.006  54.908  15.177  0.00  0.00    +0.000 C 
ATOM     39  C   UNL     1       4.677  55.642  13.502  0.00  0.00    +0.000 C 
ATOM     40  C   UNL     1       4.024  58.010  12.918  0.00  0.00    +0.000 C 
ATOM     41  C   UNL     1       5.734  57.547  14.750  0.00  0.00    +0.000 C 
ATOM     42  C   UNL     1       5.136  53.671  14.995  0.00  0.00    +0.000 C 
BRANCH  35  43
ATOM     43  O   UNL     1       3.487  53.576  13.344  0.00  0.00    +0.000 OA
ATOM     44  H   UNL     1       3.544  54.084  12.514  0.00  0.00    +0.000 HD
ENDBRANCH  35  43
BRANCH  37  45
ATOM     45  O   UNL     1       2.277  56.236  17.075  0.00  0.00    +0.000 OA
BRANCH  45  47
ATOM     46  O   UNL     1       3.895  57.736  17.873  0.00  0.00    +0.000 OA
ATOM     47  C   UNL     1       3.420  56.631  17.688  0.00  0.00    +0.000 C 
ATOM     48  C   UNL     1       4.245  55.511  18.217  0.00  0.00    +0.000 C 
ENDBRANCH  45  47
ENDBRANCH  37  45
ENDBRANCH  32  39
ENDBRANCH  30  33
ENDBRANCH  29  30
ENDBRANCH  27  29
ENDBRANCH  26  28
ENDBRANCH   1  25
TORSDOF 13
ENDMDL
