MODEL 1
REMARK VINA RESULT:      -6.5      0.000      0.000
REMARK  Name = 5318517_Andrographolide.pdbqt.pdb
REMARK  6 active torsions:
REMARK  status: ('A' for Active; 'I' for Inactive)
REMARK    1  A    between atoms: C_3  and  C_16
REMARK    2  A    between atoms: C_4  and  C_19
REMARK    3  A    between atoms: C_6  and  O_14
REMARK    4  A    between atoms: C_16  and  O_17
REMARK    5  A    between atoms: C_22  and  C_23
REMARK    6  A    between atoms: C_24  and  O_27
REMARK                            x       y       z     vdW  Elec       q    Type
REMARK                         _______ _______ _______ _____ _____    ______ ____
ROOT
ATOM      1  C   UNL     1      -3.422  47.743  27.855  0.00  0.00    +0.000 C 
ATOM      2  C   UNL     1      -4.480  48.557  27.051  0.00  0.00    +0.000 C 
ATOM      3  C   UNL     1      -5.728  47.905  26.427  0.00  0.00    +0.000 C 
ATOM      4  C   UNL     1      -1.961  48.274  27.834  0.00  0.00    +0.000 C 
ATOM      5  C   UNL     1      -3.473  46.402  27.279  0.00  0.00    +0.000 C 
ATOM      6  C   UNL     1      -5.645  46.384  26.099  0.00  0.00    +0.000 C 
ATOM      7  C   UNL     1      -4.155  49.936  26.914  0.00  0.00    +0.000 C 
ATOM      8  C   UNL     1      -4.479  45.680  26.449  0.00  0.00    +0.000 C 
ATOM      9  C   UNL     1      -3.893  47.718  29.342  0.00  0.00    +0.000 C 
ATOM     10  C   UNL     1      -2.800  50.482  27.231  0.00  0.00    +0.000 C 
ATOM     11  C   UNL     1      -1.704  49.713  27.676  0.00  0.00    +0.000 C 
ATOM     12  C   UNL     1      -6.006  48.618  25.055  0.00  0.00    +0.000 C 
ATOM     13  C   UNL     1      -0.501  50.289  27.690  0.00  0.00    +0.000 C 
ENDROOT
BRANCH   6  14
ATOM     14  O   UNL     1      -6.762  45.692  25.662  0.00  0.00    +0.000 OA
ATOM     15  H   UNL     1      -6.640  45.322  24.770  0.00  0.00    +0.000 HD
ENDBRANCH   6  14
BRANCH   4  16
ATOM     16  C   UNL     1      -0.864  47.385  28.097  0.00  0.00    +0.000 C 
ATOM     17  C   UNL     1       0.302  46.436  28.387  0.00  0.00    +0.000 C 
BRANCH  17  20
ATOM     18  O   UNL     1       2.615  44.153  29.843  0.00  0.00    +0.000 OA
ATOM     19  O   UNL     1       1.047  45.373  31.064  0.00  0.00    +0.000 OA
ATOM     20  C   UNL     1       1.282  45.625  28.633  0.00  0.00    +0.000 C 
ATOM     21  C   UNL     1       2.182  45.018  27.685  0.00  0.00    +0.000 C 
ATOM     22  C   UNL     1       1.586  45.076  30.013  0.00  0.00    +0.000 C 
ATOM     23  C   UNL     1       2.881  44.169  28.546  0.00  0.00    +0.000 C 
BRANCH  21  24
ATOM     24  O   UNL     1       1.738  44.665  26.442  0.00  0.00    +0.000 OA
ATOM     25  H   UNL     1       0.775  44.777  26.357  0.00  0.00    +0.000 HD
ENDBRANCH  21  24
ENDBRANCH  17  20
ENDBRANCH   4  16
BRANCH   3  26
ATOM     26  C   UNL     1      -6.867  48.126  27.362  0.00  0.00    +0.000 C 
BRANCH  26  27
ATOM     27  O   UNL     1      -7.897  48.322  28.191  0.00  0.00    +0.000 OA
ATOM     28  H   UNL     1      -8.702  47.896  27.845  0.00  0.00    +0.000 HD
ENDBRANCH  26  27
ENDBRANCH   3  26
TORSDOF 6
ENDMDL
MODEL 2
REMARK VINA RESULT:      -6.2      3.548      9.208
REMARK  Name = 5318517_Andrographolide.pdbqt.pdb
REMARK  6 active torsions:
REMARK  status: ('A' for Active; 'I' for Inactive)
REMARK    1  A    between atoms: C_3  and  C_16
REMARK    2  A    between atoms: C_4  and  C_19
REMARK    3  A    between atoms: C_6  and  O_14
REMARK    4  A    between atoms: C_16  and  O_17
REMARK    5  A    between atoms: C_22  and  C_23
REMARK    6  A    between atoms: C_24  and  O_27
REMARK                            x       y       z     vdW  Elec       q    Type
REMARK                         _______ _______ _______ _____ _____    ______ ____
ROOT
ATOM      1  C   UNL     1      -6.128  48.015  27.155  0.00  0.00    +0.000 C 
ATOM      2  C   UNL     1      -5.052  47.187  27.921  0.00  0.00    +0.000 C 
ATOM      3  C   UNL     1      -4.028  46.292  27.201  0.00  0.00    +0.000 C 
ATOM      4  C   UNL     1      -7.463  48.295  27.900  0.00  0.00    +0.000 C 
ATOM      5  C   UNL     1      -6.387  47.248  25.940  0.00  0.00    +0.000 C 
ATOM      6  C   UNL     1      -4.417  45.761  25.788  0.00  0.00    +0.000 C 
ATOM      7  C   UNL     1      -5.144  47.304  29.337  0.00  0.00    +0.000 C 
ATOM      8  C   UNL     1      -5.636  46.178  25.223  0.00  0.00    +0.000 C 
ATOM      9  C   UNL     1      -5.485  49.392  26.806  0.00  0.00    +0.000 C 
ATOM     10  C   UNL     1      -6.331  47.901  30.022  0.00  0.00    +0.000 C 
ATOM     11  C   UNL     1      -7.480  48.390  29.367  0.00  0.00    +0.000 C 
ATOM     12  C   UNL     1      -3.803  45.012  28.085  0.00  0.00    +0.000 C 
ATOM     13  C   UNL     1      -8.552  48.671  30.110  0.00  0.00    +0.000 C 
ENDROOT
BRANCH   6  14
ATOM     14  O   UNL     1      -3.504  45.062  25.018  0.00  0.00    +0.000 OA
ATOM     15  H   UNL     1      -3.869  44.224  24.683  0.00  0.00    +0.000 HD
ENDBRANCH   6  14
BRANCH   4  16
ATOM     16  C   UNL     1      -8.658  48.588  27.159  0.00  0.00    +0.000 C 
ATOM     17  C   UNL     1      -9.933  48.911  26.374  0.00  0.00    +0.000 C 
BRANCH  17  20
ATOM     18  O   UNL     1     -12.325  49.766  23.878  0.00  0.00    +0.000 OA
ATOM     19  O   UNL     1     -10.022  50.037  23.622  0.00  0.00    +0.000 OA
ATOM     20  C   UNL     1     -11.007  49.190  25.706  0.00  0.00    +0.000 C 
ATOM     21  C   UNL     1     -12.375  48.972  26.105  0.00  0.00    +0.000 C 
ATOM     22  C   UNL     1     -10.994  49.717  24.285  0.00  0.00    +0.000 C 
ATOM     23  C   UNL     1     -13.019  49.336  24.921  0.00  0.00    +0.000 C 
BRANCH  21  24
ATOM     24  O   UNL     1     -12.706  47.885  26.864  0.00  0.00    +0.000 OA
ATOM     25  H   UNL     1     -13.443  47.384  26.475  0.00  0.00    +0.000 HD
ENDBRANCH  21  24
ENDBRANCH  17  20
ENDBRANCH   4  16
BRANCH   3  26
ATOM     26  C   UNL     1      -2.759  47.065  27.082  0.00  0.00    +0.000 C 
BRANCH  26  27
ATOM     27  O   UNL     1      -1.626  47.765  26.967  0.00  0.00    +0.000 OA
ATOM     28  H   UNL     1      -1.770  48.694  27.223  0.00  0.00    +0.000 HD
ENDBRANCH  26  27
ENDBRANCH   3  26
TORSDOF 6
ENDMDL
MODEL 3
REMARK VINA RESULT:      -6.1      3.190      8.300
REMARK  Name = 5318517_Andrographolide.pdbqt.pdb
REMARK  6 active torsions:
REMARK  status: ('A' for Active; 'I' for Inactive)
REMARK    1  A    between atoms: C_3  and  C_16
REMARK    2  A    between atoms: C_4  and  C_19
REMARK    3  A    between atoms: C_6  and  O_14
REMARK    4  A    between atoms: C_16  and  O_17
REMARK    5  A    between atoms: C_22  and  C_23
REMARK    6  A    between atoms: C_24  and  O_27
REMARK                            x       y       z     vdW  Elec       q    Type
REMARK                         _______ _______ _______ _____ _____    ______ ____
ROOT
ATOM      1  C   UNL     1      -4.207  48.316  27.549  0.00  0.00    +0.000 C 
ATOM      2  C   UNL     1      -2.661  48.301  27.748  0.00  0.00    +0.000 C 
ATOM      3  C   UNL     1      -1.895  49.480  28.372  0.00  0.00    +0.000 C 
ATOM      4  C   UNL     1      -4.773  47.483  26.363  0.00  0.00    +0.000 C 
ATOM      5  C   UNL     1      -4.542  49.726  27.372  0.00  0.00    +0.000 C 
ATOM      6  C   UNL     1      -2.555  50.889  28.273  0.00  0.00    +0.000 C 
ATOM      7  C   UNL     1      -2.035  47.121  27.256  0.00  0.00    +0.000 C 
ATOM      8  C   UNL     1      -3.831  50.997  27.689  0.00  0.00    +0.000 C 
ATOM      9  C   UNL     1      -4.845  47.762  28.859  0.00  0.00    +0.000 C 
ATOM     10  C   UNL     1      -2.735  46.145  26.365  0.00  0.00    +0.000 C 
ATOM     11  C   UNL     1      -4.061  46.282  25.903  0.00  0.00    +0.000 C 
ATOM     12  C   UNL     1      -0.518  49.607  27.626  0.00  0.00    +0.000 C 
ATOM     13  C   UNL     1      -4.471  45.466  24.931  0.00  0.00    +0.000 C 
ENDROOT
BRANCH   6  14
ATOM     14  O   UNL     1      -2.001  51.978  28.921  0.00  0.00    +0.000 OA
ATOM     15  H   UNL     1      -1.171  52.273  28.505  0.00  0.00    +0.000 HD
ENDBRANCH   6  14
BRANCH   4  16
ATOM     16  C   UNL     1      -6.052  47.807  25.797  0.00  0.00    +0.000 C 
ATOM     17  C   UNL     1      -7.413  48.164  25.193  0.00  0.00    +0.000 C 
BRANCH  17  20
ATOM     18  O   UNL     1     -10.703  48.139  23.828  0.00  0.00    +0.000 OA
ATOM     19  O   UNL     1      -9.403  46.226  24.126  0.00  0.00    +0.000 OA
ATOM     20  C   UNL     1      -8.561  48.466  24.673  0.00  0.00    +0.000 C 
ATOM     21  C   UNL     1      -9.153  49.774  24.547  0.00  0.00    +0.000 C 
ATOM     22  C   UNL     1      -9.559  47.432  24.190  0.00  0.00    +0.000 C 
ATOM     23  C   UNL     1     -10.410  49.410  24.059  0.00  0.00    +0.000 C 
BRANCH  21  24
ATOM     24  O   UNL     1      -8.941  50.722  25.507  0.00  0.00    +0.000 OA
ATOM     25  H   UNL     1      -8.824  50.325  26.388  0.00  0.00    +0.000 HD
ENDBRANCH  21  24
ENDBRANCH  17  20
ENDBRANCH   4  16
BRANCH   3  26
ATOM     26  C   UNL     1      -1.674  49.163  29.812  0.00  0.00    +0.000 C 
BRANCH  26  27
ATOM     27  O   UNL     1      -1.480  48.890  31.105  0.00  0.00    +0.000 OA
ATOM     28  H   UNL     1      -0.827  49.502  31.491  0.00  0.00    +0.000 HD
ENDBRANCH  26  27
ENDBRANCH   3  26
TORSDOF 6
ENDMDL
MODEL 4
REMARK VINA RESULT:      -6.1      4.590      6.791
REMARK  Name = 5318517_Andrographolide.pdbqt.pdb
REMARK  6 active torsions:
REMARK  status: ('A' for Active; 'I' for Inactive)
REMARK    1  A    between atoms: C_3  and  C_16
REMARK    2  A    between atoms: C_4  and  C_19
REMARK    3  A    between atoms: C_6  and  O_14
REMARK    4  A    between atoms: C_16  and  O_17
REMARK    5  A    between atoms: C_22  and  C_23
REMARK    6  A    between atoms: C_24  and  O_27
REMARK                            x       y       z     vdW  Elec       q    Type
REMARK                         _______ _______ _______ _____ _____    ______ ____
ROOT
ATOM      1  C   UNL     1      -7.967  49.074  25.897  0.00  0.00    +0.000 C 
ATOM      2  C   UNL     1      -9.150  48.061  25.837  0.00  0.00    +0.000 C 
ATOM      3  C   UNL     1     -10.590  48.446  26.220  0.00  0.00    +0.000 C 
ATOM      4  C   UNL     1      -6.553  48.489  26.174  0.00  0.00    +0.000 C 
ATOM      5  C   UNL     1      -8.335  50.009  26.956  0.00  0.00    +0.000 C 
ATOM      6  C   UNL     1     -10.768  49.645  27.201  0.00  0.00    +0.000 C 
ATOM      7  C   UNL     1      -8.759  46.750  25.444  0.00  0.00    +0.000 C 
ATOM      8  C   UNL     1      -9.625  50.347  27.624  0.00  0.00    +0.000 C 
ATOM      9  C   UNL     1      -7.914  49.802  24.519  0.00  0.00    +0.000 C 
ATOM     10  C   UNL     1      -7.330  46.313  25.399  0.00  0.00    +0.000 C 
ATOM     11  C   UNL     1      -6.227  47.120  25.748  0.00  0.00    +0.000 C 
ATOM     12  C   UNL     1     -11.242  47.211  26.942  0.00  0.00    +0.000 C 
ATOM     13  C   UNL     1      -5.040  46.530  25.888  0.00  0.00    +0.000 C 
ENDROOT
BRANCH   6  14
ATOM     14  O   UNL     1     -12.027  50.140  27.492  0.00  0.00    +0.000 OA
ATOM     15  H   UNL     1     -12.242  50.933  26.969  0.00  0.00    +0.000 HD
ENDBRANCH   6  14
BRANCH   4  16
ATOM     16  C   UNL     1      -5.522  49.321  26.729  0.00  0.00    +0.000 C 
ATOM     17  C   UNL     1      -4.416  50.207  27.311  0.00  0.00    +0.000 C 
BRANCH  17  20
ATOM     18  O   UNL     1      -1.397  51.977  27.973  0.00  0.00    +0.000 OA
ATOM     19  O   UNL     1      -1.559  50.189  26.482  0.00  0.00    +0.000 OA
ATOM     20  C   UNL     1      -3.483  50.963  27.797  0.00  0.00    +0.000 C 
ATOM     21  C   UNL     1      -3.618  52.003  28.785  0.00  0.00    +0.000 C 
ATOM     22  C   UNL     1      -2.051  50.946  27.301  0.00  0.00    +0.000 C 
ATOM     23  C   UNL     1      -2.319  52.513  28.758  0.00  0.00    +0.000 C 
BRANCH  21  24
ATOM     24  O   UNL     1      -4.749  52.767  28.831  0.00  0.00    +0.000 OA
ATOM     25  H   UNL     1      -4.542  53.715  28.915  0.00  0.00    +0.000 HD
ENDBRANCH  21  24
ENDBRANCH  17  20
ENDBRANCH   4  16
BRANCH   3  26
ATOM     26  C   UNL     1     -11.325  48.753  24.960  0.00  0.00    +0.000 C 
BRANCH  26  27
ATOM     27  O   UNL     1     -11.977  49.039  23.829  0.00  0.00    +0.000 OA
ATOM     28  H   UNL     1     -12.929  48.855  23.926  0.00  0.00    +0.000 HD
ENDBRANCH  26  27
ENDBRANCH   3  26
TORSDOF 6
ENDMDL
MODEL 5
REMARK VINA RESULT:      -6.1      3.363      8.991
REMARK  Name = 5318517_Andrographolide.pdbqt.pdb
REMARK  6 active torsions:
REMARK  status: ('A' for Active; 'I' for Inactive)
REMARK    1  A    between atoms: C_3  and  C_16
REMARK    2  A    between atoms: C_4  and  C_19
REMARK    3  A    between atoms: C_6  and  O_14
REMARK    4  A    between atoms: C_16  and  O_17
REMARK    5  A    between atoms: C_22  and  C_23
REMARK    6  A    between atoms: C_24  and  O_27
REMARK                            x       y       z     vdW  Elec       q    Type
REMARK                         _______ _______ _______ _____ _____    ______ ____
ROOT
ATOM      1  C   UNL     1      -5.292  48.235  27.232  0.00  0.00    +0.000 C 
ATOM      2  C   UNL     1      -4.170  47.191  26.949  0.00  0.00    +0.000 C 
ATOM      3  C   UNL     1      -2.679  47.493  27.184  0.00  0.00    +0.000 C 
ATOM      4  C   UNL     1      -6.582  48.133  26.368  0.00  0.00    +0.000 C 
ATOM      5  C   UNL     1      -4.652  49.530  27.021  0.00  0.00    +0.000 C 
ATOM      6  C   UNL     1      -2.243  48.989  27.146  0.00  0.00    +0.000 C 
ATOM      7  C   UNL     1      -4.654  45.963  26.413  0.00  0.00    +0.000 C 
ATOM      8  C   UNL     1      -3.230  49.976  26.972  0.00  0.00    +0.000 C 
ATOM      9  C   UNL     1      -5.710  48.067  28.724  0.00  0.00    +0.000 C 
ATOM     10  C   UNL     1      -6.044  45.805  25.886  0.00  0.00    +0.000 C 
ATOM     11  C   UNL     1      -7.011  46.830  25.840  0.00  0.00    +0.000 C 
ATOM     12  C   UNL     1      -1.860  46.787  26.043  0.00  0.00    +0.000 C 
ATOM     13  C   UNL     1      -8.119  46.612  25.130  0.00  0.00    +0.000 C 
ENDROOT
BRANCH   6  14
ATOM     14  O   UNL     1      -0.951  49.359  27.477  0.00  0.00    +0.000 OA
ATOM     15  H   UNL     1      -0.285  48.773  27.076  0.00  0.00    +0.000 HD
ENDBRANCH   6  14
BRANCH   4  16
ATOM     16  C   UNL     1      -7.425  49.281  26.191  0.00  0.00    +0.000 C 
ATOM     17  C   UNL     1      -8.331  50.503  26.011  0.00  0.00    +0.000 C 
BRANCH  17  20
ATOM     18  O   UNL     1     -10.960  52.779  25.240  0.00  0.00    +0.000 OA
ATOM     19  O   UNL     1     -10.795  50.630  24.349  0.00  0.00    +0.000 OA
ATOM     20  C   UNL     1      -9.093  51.541  25.865  0.00  0.00    +0.000 C 
ATOM     21  C   UNL     1      -8.962  52.826  26.504  0.00  0.00    +0.000 C 
ATOM     22  C   UNL     1     -10.367  51.534  25.044  0.00  0.00    +0.000 C 
ATOM     23  C   UNL     1     -10.140  53.426  26.055  0.00  0.00    +0.000 C 
BRANCH  21  24
ATOM     24  O   UNL     1      -8.486  52.915  27.782  0.00  0.00    +0.000 OA
ATOM     25  H   UNL     1      -9.085  52.489  28.421  0.00  0.00    +0.000 HD
ENDBRANCH  21  24
ENDBRANCH  17  20
ENDBRANCH   4  16
BRANCH   3  26
ATOM     26  C   UNL     1      -2.307  46.926  28.511  0.00  0.00    +0.000 C 
BRANCH  26  27
ATOM     27  O   UNL     1      -1.982  46.425  29.706  0.00  0.00    +0.000 OA
ATOM     28  H   UNL     1      -2.573  45.688  29.942  0.00  0.00    +0.000 HD
ENDBRANCH  26  27
ENDBRANCH   3  26
TORSDOF 6
ENDMDL
MODEL 6
REMARK VINA RESULT:      -5.9      2.824      4.080
REMARK  Name = 5318517_Andrographolide.pdbqt.pdb
REMARK  6 active torsions:
REMARK  status: ('A' for Active; 'I' for Inactive)
REMARK    1  A    between atoms: C_3  and  C_16
REMARK    2  A    between atoms: C_4  and  C_19
REMARK    3  A    between atoms: C_6  and  O_14
REMARK    4  A    between atoms: C_16  and  O_17
REMARK    5  A    between atoms: C_22  and  C_23
REMARK    6  A    between atoms: C_24  and  O_27
REMARK                            x       y       z     vdW  Elec       q    Type
REMARK                         _______ _______ _______ _____ _____    ______ ____
ROOT
ATOM      1  C   UNL     1      -2.740  46.214  28.338  0.00  0.00    +0.000 C 
ATOM      2  C   UNL     1      -2.969  46.291  26.798  0.00  0.00    +0.000 C 
ATOM      3  C   UNL     1      -4.354  46.095  26.156  0.00  0.00    +0.000 C 
ATOM      4  C   UNL     1      -1.339  45.740  28.819  0.00  0.00    +0.000 C 
ATOM      5  C   UNL     1      -3.768  45.295  28.818  0.00  0.00    +0.000 C 
ATOM      6  C   UNL     1      -5.397  45.261  26.959  0.00  0.00    +0.000 C 
ATOM      7  C   UNL     1      -1.775  46.512  26.055  0.00  0.00    +0.000 C 
ATOM      8  C   UNL     1      -5.050  44.797  28.240  0.00  0.00    +0.000 C 
ATOM      9  C   UNL     1      -2.975  47.645  28.911  0.00  0.00    +0.000 C 
ATOM     10  C   UNL     1      -0.413  46.370  26.654  0.00  0.00    +0.000 C 
ATOM     11  C   UNL     1      -0.153  45.994  27.988  0.00  0.00    +0.000 C 
ATOM     12  C   UNL     1      -4.150  45.324  24.802  0.00  0.00    +0.000 C 
ATOM     13  C   UNL     1       1.101  45.678  28.315  0.00  0.00    +0.000 C 
ENDROOT
BRANCH   6  14
ATOM     14  O   UNL     1      -6.704  45.148  26.517  0.00  0.00    +0.000 OA
ATOM     15  H   UNL     1      -6.882  45.709  25.742  0.00  0.00    +0.000 HD
ENDBRANCH   6  14
BRANCH   4  16
ATOM     16  C   UNL     1      -1.178  45.170  30.127  0.00  0.00    +0.000 C 
ATOM     17  C   UNL     1      -0.995  44.567  31.522  0.00  0.00    +0.000 C 
BRANCH  17  20
ATOM     18  O   UNL     1      -1.119  43.825  35.004  0.00  0.00    +0.000 OA
ATOM     19  O   UNL     1      -1.894  45.816  34.068  0.00  0.00    +0.000 OA
ATOM     20  C   UNL     1      -0.841  44.065  32.707  0.00  0.00    +0.000 C 
ATOM     21  C   UNL     1      -0.266  42.790  33.056  0.00  0.00    +0.000 C 
ATOM     22  C   UNL     1      -1.364  44.723  33.968  0.00  0.00    +0.000 C 
ATOM     23  C   UNL     1      -0.526  42.790  34.428  0.00  0.00    +0.000 C 
BRANCH  21  24
ATOM     24  O   UNL     1      -0.436  41.710  32.236  0.00  0.00    +0.000 OA
ATOM     25  H   UNL     1       0.416  41.340  31.945  0.00  0.00    +0.000 HD
ENDBRANCH  21  24
ENDBRANCH  17  20
ENDBRANCH   4  16
BRANCH   3  26
ATOM     26  C   UNL     1      -4.927  47.446  25.898  0.00  0.00    +0.000 C 
BRANCH  26  27
ATOM     27  O   UNL     1      -5.453  48.653  25.664  0.00  0.00    +0.000 OA
ATOM     28  H   UNL     1      -5.838  49.023  26.479  0.00  0.00    +0.000 HD
ENDBRANCH  26  27
ENDBRANCH   3  26
TORSDOF 6
ENDMDL
MODEL 7
REMARK VINA RESULT:      -5.7      2.151      3.857
REMARK  Name = 5318517_Andrographolide.pdbqt.pdb
REMARK  6 active torsions:
REMARK  status: ('A' for Active; 'I' for Inactive)
REMARK    1  A    between atoms: C_3  and  C_16
REMARK    2  A    between atoms: C_4  and  C_19
REMARK    3  A    between atoms: C_6  and  O_14
REMARK    4  A    between atoms: C_16  and  O_17
REMARK    5  A    between atoms: C_22  and  C_23
REMARK    6  A    between atoms: C_24  and  O_27
REMARK                            x       y       z     vdW  Elec       q    Type
REMARK                         _______ _______ _______ _____ _____    ______ ____
ROOT
ATOM      1  C   UNL     1      -5.216  47.793  27.370  0.00  0.00    +0.000 C 
ATOM      2  C   UNL     1      -6.655  47.837  26.773  0.00  0.00    +0.000 C 
ATOM      3  C   UNL     1      -7.842  48.476  27.517  0.00  0.00    +0.000 C 
ATOM      4  C   UNL     1      -4.310  46.605  26.937  0.00  0.00    +0.000 C 
ATOM      5  C   UNL     1      -5.418  47.764  28.816  0.00  0.00    +0.000 C 
ATOM      6  C   UNL     1      -7.746  48.555  29.071  0.00  0.00    +0.000 C 
ATOM      7  C   UNL     1      -6.768  47.192  25.508  0.00  0.00    +0.000 C 
ATOM      8  C   UNL     1      -6.568  48.111  29.698  0.00  0.00    +0.000 C 
ATOM      9  C   UNL     1      -4.501  49.111  26.944  0.00  0.00    +0.000 C 
ATOM     10  C   UNL     1      -5.702  46.300  24.959  0.00  0.00    +0.000 C 
ATOM     11  C   UNL     1      -4.496  45.983  25.618  0.00  0.00    +0.000 C 
ATOM     12  C   UNL     1      -9.119  47.611  27.218  0.00  0.00    +0.000 C 
ATOM     13  C   UNL     1      -3.753  44.993  25.120  0.00  0.00    +0.000 C 
ENDROOT
BRANCH   6  14
ATOM     14  O   UNL     1      -8.704  49.232  29.806  0.00  0.00    +0.000 OA
ATOM     15  H   UNL     1      -8.377  50.085  30.143  0.00  0.00    +0.000 HD
ENDBRANCH   6  14
BRANCH   4  16
ATOM     16  C   UNL     1      -3.210  46.196  27.763  0.00  0.00    +0.000 C 
ATOM     17  C   UNL     1      -2.042  45.749  28.647  0.00  0.00    +0.000 C 
BRANCH  17  20
ATOM     18  O   UNL     1       1.154  44.944  29.998  0.00  0.00    +0.000 OA
ATOM     19  O   UNL     1       0.772  45.406  27.743  0.00  0.00    +0.000 OA
ATOM     20  C   UNL     1      -1.051  45.365  29.388  0.00  0.00    +0.000 C 
ATOM     21  C   UNL     1      -1.067  45.078  30.800  0.00  0.00    +0.000 C 
ATOM     22  C   UNL     1       0.375  45.255  28.886  0.00  0.00    +0.000 C 
ATOM     23  C   UNL     1       0.299  44.872  31.007  0.00  0.00    +0.000 C 
BRANCH  21  24
ATOM     24  O   UNL     1      -1.878  45.789  31.639  0.00  0.00    +0.000 OA
ATOM     25  H   UNL     1      -2.748  45.962  31.239  0.00  0.00    +0.000 HD
ENDBRANCH  21  24
ENDBRANCH  17  20
ENDBRANCH   4  16
BRANCH   3  26
ATOM     26  C   UNL     1      -8.018  49.856  26.983  0.00  0.00    +0.000 C 
BRANCH  26  27
ATOM     27  O   UNL     1      -8.188  51.091  26.501  0.00  0.00    +0.000 OA
ATOM     28  H   UNL     1      -8.895  51.555  26.987  0.00  0.00    +0.000 HD
ENDBRANCH  26  27
ENDBRANCH   3  26
TORSDOF 6
ENDMDL
MODEL 8
REMARK VINA RESULT:      -5.6      2.810      4.326
REMARK  Name = 5318517_Andrographolide.pdbqt.pdb
REMARK  6 active torsions:
REMARK  status: ('A' for Active; 'I' for Inactive)
REMARK    1  A    between atoms: C_3  and  C_16
REMARK    2  A    between atoms: C_4  and  C_19
REMARK    3  A    between atoms: C_6  and  O_14
REMARK    4  A    between atoms: C_16  and  O_17
REMARK    5  A    between atoms: C_22  and  C_23
REMARK    6  A    between atoms: C_24  and  O_27
REMARK                            x       y       z     vdW  Elec       q    Type
REMARK                         _______ _______ _______ _____ _____    ______ ____
ROOT
ATOM      1  C   UNL     1      -7.614  48.290  27.043  0.00  0.00    +0.000 C 
ATOM      2  C   UNL     1      -8.767  49.056  26.326  0.00  0.00    +0.000 C 
ATOM      3  C   UNL     1      -9.712  48.377  25.320  0.00  0.00    +0.000 C 
ATOM      4  C   UNL     1      -6.364  49.121  27.450  0.00  0.00    +0.000 C 
ATOM      5  C   UNL     1      -7.230  47.240  26.104  0.00  0.00    +0.000 C 
ATOM      6  C   UNL     1      -9.177  47.110  24.586  0.00  0.00    +0.000 C 
ATOM      7  C   UNL     1      -8.825  50.440  26.658  0.00  0.00    +0.000 C 
ATOM      8  C   UNL     1      -7.904  46.619  24.928  0.00  0.00    +0.000 C 
ATOM      9  C   UNL     1      -8.212  47.671  28.343  0.00  0.00    +0.000 C 
ATOM     10  C   UNL     1      -7.715  51.147  27.367  0.00  0.00    +0.000 C 
ATOM     11  C   UNL     1      -6.502  50.550  27.766  0.00  0.00    +0.000 C 
ATOM     12  C   UNL     1     -10.033  49.417  24.185  0.00  0.00    +0.000 C 
ATOM     13  C   UNL     1      -5.514  51.350  28.171  0.00  0.00    +0.000 C 
ENDROOT
BRANCH   6  14
ATOM     14  O   UNL     1     -10.006  46.363  23.766  0.00  0.00    +0.000 OA
ATOM     15  H   UNL     1      -9.534  45.629  23.336  0.00  0.00    +0.000 HD
ENDBRANCH   6  14
BRANCH   4  16
ATOM     16  C   UNL     1      -5.097  48.473  27.643  0.00  0.00    +0.000 C 
ATOM     17  C   UNL     1      -3.741  47.789  27.841  0.00  0.00    +0.000 C 
BRANCH  17  20
ATOM     18  O   UNL     1      -0.895  46.063  29.108  0.00  0.00    +0.000 OA
ATOM     19  O   UNL     1      -2.629  46.870  30.443  0.00  0.00    +0.000 OA
ATOM     20  C   UNL     1      -2.591  47.218  28.012  0.00  0.00    +0.000 C 
ATOM     21  C   UNL     1      -1.631  46.850  27.002  0.00  0.00    +0.000 C 
ATOM     22  C   UNL     1      -2.095  46.724  29.357  0.00  0.00    +0.000 C 
ATOM     23  C   UNL     1      -0.711  46.165  27.800  0.00  0.00    +0.000 C 
BRANCH  21  24
ATOM     24  O   UNL     1      -2.051  46.430  25.772  0.00  0.00    +0.000 OA
ATOM     25  H   UNL     1      -1.525  46.826  25.056  0.00  0.00    +0.000 HD
ENDBRANCH  21  24
ENDBRANCH  17  20
ENDBRANCH   4  16
BRANCH   3  26
ATOM     26  C   UNL     1     -10.959  48.009  26.048  0.00  0.00    +0.000 C 
BRANCH  26  27
ATOM     27  O   UNL     1     -12.083  47.689  26.697  0.00  0.00    +0.000 OA
ATOM     28  H   UNL     1     -12.555  46.974  26.233  0.00  0.00    +0.000 HD
ENDBRANCH  26  27
ENDBRANCH   3  26
TORSDOF 6
ENDMDL
MODEL 9
REMARK VINA RESULT:      -5.6     21.063     23.230
REMARK  Name = 5318517_Andrographolide.pdbqt.pdb
REMARK  6 active torsions:
REMARK  status: ('A' for Active; 'I' for Inactive)
REMARK    1  A    between atoms: C_3  and  C_16
REMARK    2  A    between atoms: C_4  and  C_19
REMARK    3  A    between atoms: C_6  and  O_14
REMARK    4  A    between atoms: C_16  and  O_17
REMARK    5  A    between atoms: C_22  and  C_23
REMARK    6  A    between atoms: C_24  and  O_27
REMARK                            x       y       z     vdW  Elec       q    Type
REMARK                         _______ _______ _______ _____ _____    ______ ____
ROOT
ATOM      1  C   UNL     1      -1.211  26.734  18.024  0.00  0.00    +0.000 C 
ATOM      2  C   UNL     1      -1.975  26.969  19.363  0.00  0.00    +0.000 C 
ATOM      3  C   UNL     1      -3.318  26.288  19.680  0.00  0.00    +0.000 C 
ATOM      4  C   UNL     1      -0.318  27.899  17.510  0.00  0.00    +0.000 C 
ATOM      5  C   UNL     1      -2.257  26.440  17.049  0.00  0.00    +0.000 C 
ATOM      6  C   UNL     1      -4.189  25.835  18.469  0.00  0.00    +0.000 C 
ATOM      7  C   UNL     1      -1.336  27.902  20.228  0.00  0.00    +0.000 C 
ATOM      8  C   UNL     1      -3.678  26.005  17.169  0.00  0.00    +0.000 C 
ATOM      9  C   UNL     1      -0.291  25.493  18.232  0.00  0.00    +0.000 C 
ATOM     10  C   UNL     1      -0.225  28.794  19.775  0.00  0.00    +0.000 C 
ATOM     11  C   UNL     1       0.298  28.831  18.466  0.00  0.00    +0.000 C 
ATOM     12  C   UNL     1      -4.203  27.316  20.473  0.00  0.00    +0.000 C 
ATOM     13  C   UNL     1       1.116  29.835  18.148  0.00  0.00    +0.000 C 
ENDROOT
BRANCH   6  14
ATOM     14  O   UNL     1      -5.344  25.098  18.664  0.00  0.00    +0.000 OA
ATOM     15  H   UNL     1      -5.798  24.896  17.827  0.00  0.00    +0.000 HD
ENDBRANCH   6  14
BRANCH   4  16
ATOM     16  C   UNL     1       0.012  27.996  16.116  0.00  0.00    +0.000 C 
ATOM     17  C   UNL     1       0.364  28.087  14.628  0.00  0.00    +0.000 C 
BRANCH  17  20
ATOM     18  O   UNL     1       1.974  28.220  11.454  0.00  0.00    +0.000 OA
ATOM     19  O   UNL     1       3.086  28.468  13.490  0.00  0.00    +0.000 OA
ATOM     20  C   UNL     1       0.653  28.162  13.367  0.00  0.00    +0.000 C 
ATOM     21  C   UNL     1      -0.245  28.023  12.248  0.00  0.00    +0.000 C 
ATOM     22  C   UNL     1       2.067  28.307  12.841  0.00  0.00    +0.000 C 
ATOM     23  C   UNL     1       0.684  28.057  11.205  0.00  0.00    +0.000 C 
BRANCH  21  24
ATOM     24  O   UNL     1      -1.302  27.161  12.316  0.00  0.00    +0.000 OA
ATOM     25  H   UNL     1      -1.964  27.346  11.627  0.00  0.00    +0.000 HD
ENDBRANCH  21  24
ENDBRANCH  17  20
ENDBRANCH   4  16
BRANCH   3  26
ATOM     26  C   UNL     1      -3.030  25.096  20.527  0.00  0.00    +0.000 C 
BRANCH  26  27
ATOM     27  O   UNL     1      -2.782  24.029  21.293  0.00  0.00    +0.000 OA
ATOM     28  H   UNL     1      -3.087  23.214  20.855  0.00  0.00    +0.000 HD
ENDBRANCH  26  27
ENDBRANCH   3  26
TORSDOF 6
ENDMDL
