MODEL 1
REMARK VINA RESULT:      -7.0      0.000      0.000
REMARK  Name = 5326018_Caulerpin.pdbqt.pdb
REMARK  4 active torsions:
REMARK  status: ('A' for Active; 'I' for Inactive)
REMARK    1  A    between atoms: C_11  and  C_26
REMARK    2  A    between atoms: C_12  and  C_30
REMARK    3  A    between atoms: C_26  and  O_27
REMARK    4  A    between atoms: C_30  and  O_31
REMARK                            x       y       z     vdW  Elec       q    Type
REMARK                         _______ _______ _______ _____ _____    ______ ____
ROOT
ATOM      1  N   UNL     1      -6.782  46.583  25.474  0.00  0.00    +0.000 N 
ATOM      2  N   UNL     1      -1.845  49.908  28.167  0.00  0.00    +0.000 N 
ATOM      3  C   UNL     1      -6.059  48.503  26.311  0.00  0.00    +0.000 C 
ATOM      4  C   UNL     1      -2.728  47.931  27.692  0.00  0.00    +0.000 C 
ATOM      5  C   UNL     1      -5.812  47.132  26.285  0.00  0.00    +0.000 C 
ATOM      6  C   UNL     1      -3.031  49.281  27.845  0.00  0.00    +0.000 C 
ATOM      7  C   UNL     1      -7.229  48.775  25.562  0.00  0.00    +0.000 A 
ATOM      8  C   UNL     1      -1.359  47.728  27.989  0.00  0.00    +0.000 A 
ATOM      9  C   UNL     1      -7.665  47.554  25.051  0.00  0.00    +0.000 A 
ATOM     10  C   UNL     1      -0.829  48.983  28.288  0.00  0.00    +0.000 A 
ATOM     11  C   UNL     1      -4.761  46.331  26.857  0.00  0.00    +0.000 C 
ATOM     12  C   UNL     1      -4.250  50.024  27.655  0.00  0.00    +0.000 C 
ATOM     13  C   UNL     1      -3.695  46.963  27.275  0.00  0.00    +0.000 C 
ATOM     14  C   UNL     1      -5.208  49.430  26.990  0.00  0.00    +0.000 C 
ATOM     15  C   UNL     1      -7.953  49.941  25.249  0.00  0.00    +0.000 A 
ATOM     16  C   UNL     1      -0.508  46.607  28.017  0.00  0.00    +0.000 A 
ATOM     17  C   UNL     1      -8.800  47.434  24.241  0.00  0.00    +0.000 A 
ATOM     18  C   UNL     1       0.516  49.177  28.622  0.00  0.00    +0.000 A 
ATOM     19  C   UNL     1      -9.091  49.838  24.448  0.00  0.00    +0.000 A 
ATOM     20  C   UNL     1       0.835  46.782  28.353  0.00  0.00    +0.000 A 
ATOM     21  C   UNL     1      -9.505  48.605  23.955  0.00  0.00    +0.000 A 
ATOM     22  C   UNL     1       1.334  48.046  28.651  0.00  0.00    +0.000 A 
ATOM     23  H   UNL     1      -6.861  45.613  25.196  0.00  0.00    +0.000 HD
ATOM     24  H   UNL     1      -1.699  50.902  28.294  0.00  0.00    +0.000 HD
ENDROOT
BRANCH  11  26
ATOM     25  O   UNL     1      -4.752  44.388  28.253  0.00  0.00    +0.000 OA
ATOM     26  C   UNL     1      -4.842  44.867  27.129  0.00  0.00    +0.000 C 
BRANCH  26  27
ATOM     27  O   UNL     1      -5.049  44.211  25.950  0.00  0.00    +0.000 OA
ATOM     28  C   UNL     1      -4.046  44.273  24.971  0.00  0.00    +0.000 C 
ENDBRANCH  26  27
ENDBRANCH  11  26
BRANCH  12  30
ATOM     29  O   UNL     1      -3.702  52.203  28.479  0.00  0.00    +0.000 OA
ATOM     30  C   UNL     1      -4.557  51.352  28.261  0.00  0.00    +0.000 C 
BRANCH  30  31
ATOM     31  O   UNL     1      -5.900  51.433  28.486  0.00  0.00    +0.000 OA
ATOM     32  C   UNL     1      -6.355  51.387  29.813  0.00  0.00    +0.000 C 
ENDBRANCH  30  31
ENDBRANCH  12  30
TORSDOF 4
ENDMDL
MODEL 2
REMARK VINA RESULT:      -6.9      2.195      8.254
REMARK  Name = 5326018_Caulerpin.pdbqt.pdb
REMARK  4 active torsions:
REMARK  status: ('A' for Active; 'I' for Inactive)
REMARK    1  A    between atoms: C_11  and  C_26
REMARK    2  A    between atoms: C_12  and  C_30
REMARK    3  A    between atoms: C_26  and  O_27
REMARK    4  A    between atoms: C_30  and  O_31
REMARK                            x       y       z     vdW  Elec       q    Type
REMARK                         _______ _______ _______ _____ _____    ______ ____
ROOT
ATOM      1  N   UNL     1       0.818  50.847  28.209  0.00  0.00    +0.000 N 
ATOM      2  N   UNL     1      -3.257  45.831  27.243  0.00  0.00    +0.000 N 
ATOM      3  C   UNL     1       0.398  48.693  28.520  0.00  0.00    +0.000 C 
ATOM      4  C   UNL     1      -2.979  48.030  27.303  0.00  0.00    +0.000 C 
ATOM      5  C   UNL     1      -0.200  49.915  28.220  0.00  0.00    +0.000 C 
ATOM      6  C   UNL     1      -2.432  46.824  27.732  0.00  0.00    +0.000 C 
ATOM      7  C   UNL     1       1.778  48.900  28.756  0.00  0.00    +0.000 A 
ATOM      8  C   UNL     1      -4.182  47.768  26.603  0.00  0.00    +0.000 A 
ATOM      9  C   UNL     1       2.015  50.260  28.559  0.00  0.00    +0.000 A 
ATOM     10  C   UNL     1      -4.335  46.382  26.584  0.00  0.00    +0.000 A 
ATOM     11  C   UNL     1      -1.554  50.270  27.885  0.00  0.00    +0.000 C 
ATOM     12  C   UNL     1      -1.228  46.515  28.458  0.00  0.00    +0.000 C 
ATOM     13  C   UNL     1      -2.356  49.293  27.547  0.00  0.00    +0.000 C 
ATOM     14  C   UNL     1      -0.329  47.462  28.543  0.00  0.00    +0.000 C 
ATOM     15  C   UNL     1       2.857  48.065  29.100  0.00  0.00    +0.000 A 
ATOM     16  C   UNL     1      -5.150  48.568  25.967  0.00  0.00    +0.000 A 
ATOM     17  C   UNL     1       3.283  50.835  28.694  0.00  0.00    +0.000 A 
ATOM     18  C   UNL     1      -5.416  45.749  25.961  0.00  0.00    +0.000 A 
ATOM     19  C   UNL     1       4.129  48.624  29.245  0.00  0.00    +0.000 A 
ATOM     20  C   UNL     1      -6.238  47.952  25.346  0.00  0.00    +0.000 A 
ATOM     21  C   UNL     1       4.334  49.985  29.045  0.00  0.00    +0.000 A 
ATOM     22  C   UNL     1      -6.366  46.567  25.346  0.00  0.00    +0.000 A 
ATOM     23  H   UNL     1       0.737  51.827  27.971  0.00  0.00    +0.000 HD
ATOM     24  H   UNL     1      -3.117  44.832  27.326  0.00  0.00    +0.000 HD
ENDROOT
BRANCH  11  26
ATOM     25  O   UNL     1      -1.476  52.654  28.068  0.00  0.00    +0.000 OA
ATOM     26  C   UNL     1      -2.148  51.632  28.017  0.00  0.00    +0.000 C 
BRANCH  26  27
ATOM     27  O   UNL     1      -3.508  51.518  28.041  0.00  0.00    +0.000 OA
ATOM     28  C   UNL     1      -4.224  52.300  28.959  0.00  0.00    +0.000 C 
ENDBRANCH  26  27
ENDBRANCH  11  26
BRANCH  12  30
ATOM     29  O   UNL     1      -1.842  44.695  29.886  0.00  0.00    +0.000 OA
ATOM     30  C   UNL     1      -0.978  45.260  29.226  0.00  0.00    +0.000 C 
BRANCH  30  31
ATOM     31  O   UNL     1       0.318  44.879  29.035  0.00  0.00    +0.000 OA
ATOM     32  C   UNL     1       0.925  44.077  30.014  0.00  0.00    +0.000 C 
ENDBRANCH  30  31
ENDBRANCH  12  30
TORSDOF 4
ENDMDL
MODEL 3
REMARK VINA RESULT:      -6.8     25.272     27.871
REMARK  Name = 5326018_Caulerpin.pdbqt.pdb
REMARK  4 active torsions:
REMARK  status: ('A' for Active; 'I' for Inactive)
REMARK    1  A    between atoms: C_11  and  C_26
REMARK    2  A    between atoms: C_12  and  C_30
REMARK    3  A    between atoms: C_26  and  O_27
REMARK    4  A    between atoms: C_30  and  O_31
REMARK                            x       y       z     vdW  Elec       q    Type
REMARK                         _______ _______ _______ _____ _____    ______ ____
ROOT
ATOM      1  N   UNL     1     -21.115  35.761   6.814  0.00  0.00    +0.000 N 
ATOM      2  N   UNL     1     -15.895  39.606   6.006  0.00  0.00    +0.000 N 
ATOM      3  C   UNL     1     -18.908  35.914   6.687  0.00  0.00    +0.000 C 
ATOM      4  C   UNL     1     -18.081  39.344   5.749  0.00  0.00    +0.000 C 
ATOM      5  C   UNL     1     -20.093  36.568   6.359  0.00  0.00    +0.000 C 
ATOM      6  C   UNL     1     -16.888  38.651   5.943  0.00  0.00    +0.000 C 
ATOM      7  C   UNL     1     -19.218  34.670   7.286  0.00  0.00    +0.000 A 
ATOM      8  C   UNL     1     -17.798  40.726   5.629  0.00  0.00    +0.000 A 
ATOM      9  C   UNL     1     -20.609  34.597   7.350  0.00  0.00    +0.000 A 
ATOM     10  C   UNL     1     -16.419  40.863   5.789  0.00  0.00    +0.000 A 
ATOM     11  C   UNL     1     -20.352  37.850   5.757  0.00  0.00    +0.000 C 
ATOM     12  C   UNL     1     -16.606  37.253   6.141  0.00  0.00    +0.000 C 
ATOM     13  C   UNL     1     -19.355  38.696   5.712  0.00  0.00    +0.000 C 
ATOM     14  C   UNL     1     -17.618  36.483   6.446  0.00  0.00    +0.000 C 
ATOM     15  C   UNL     1     -18.457  33.603   7.800  0.00  0.00    +0.000 A 
ATOM     16  C   UNL     1     -18.575  41.880   5.417  0.00  0.00    +0.000 A 
ATOM     17  C   UNL     1     -21.285  33.502   7.900  0.00  0.00    +0.000 A 
ATOM     18  C   UNL     1     -15.771  42.103   5.744  0.00  0.00    +0.000 A 
ATOM     19  C   UNL     1     -19.116  32.500   8.346  0.00  0.00    +0.000 A 
ATOM     20  C   UNL     1     -17.944  43.123   5.364  0.00  0.00    +0.000 A 
ATOM     21  C   UNL     1     -20.506  32.454   8.393  0.00  0.00    +0.000 A 
ATOM     22  C   UNL     1     -16.567  43.229   5.524  0.00  0.00    +0.000 A 
ATOM     23  H   UNL     1     -22.106  35.967   6.786  0.00  0.00    +0.000 HD
ATOM     24  H   UNL     1     -14.912  39.448   6.194  0.00  0.00    +0.000 HD
ENDROOT
BRANCH  11  26
ATOM     25  O   UNL     1     -22.512  37.448   4.810  0.00  0.00    +0.000 OA
ATOM     26  C   UNL     1     -21.616  38.242   5.068  0.00  0.00    +0.000 C 
BRANCH  26  27
ATOM     27  O   UNL     1     -21.585  39.584   4.822  0.00  0.00    +0.000 OA
ATOM     28  C   UNL     1     -22.797  40.289   4.837  0.00  0.00    +0.000 C 
ENDBRANCH  26  27
ENDBRANCH  11  26
BRANCH  12  30
ATOM     29  O   UNL     1     -14.221  37.082   6.250  0.00  0.00    +0.000 OA
ATOM     30  C   UNL     1     -15.289  36.594   5.899  0.00  0.00    +0.000 C 
BRANCH  30  31
ATOM     31  O   UNL     1     -15.503  35.402   5.271  0.00  0.00    +0.000 OA
ATOM     32  C   UNL     1     -14.401  34.742   4.706  0.00  0.00    +0.000 C 
ENDBRANCH  30  31
ENDBRANCH  12  30
TORSDOF 4
ENDMDL
MODEL 4
REMARK VINA RESULT:      -6.8      1.995      7.467
REMARK  Name = 5326018_Caulerpin.pdbqt.pdb
REMARK  4 active torsions:
REMARK  status: ('A' for Active; 'I' for Inactive)
REMARK    1  A    between atoms: C_11  and  C_26
REMARK    2  A    between atoms: C_12  and  C_30
REMARK    3  A    between atoms: C_26  and  O_27
REMARK    4  A    between atoms: C_30  and  O_31
REMARK                            x       y       z     vdW  Elec       q    Type
REMARK                         _______ _______ _______ _____ _____    ______ ____
ROOT
ATOM      1  N   UNL     1      -3.521  52.194  28.373  0.00  0.00    +0.000 N 
ATOM      2  N   UNL     1      -6.224  47.018  25.441  0.00  0.00    +0.000 N 
ATOM      3  C   UNL     1      -3.223  50.201  27.451  0.00  0.00    +0.000 C 
ATOM      4  C   UNL     1      -6.517  48.812  26.710  0.00  0.00    +0.000 C 
ATOM      5  C   UNL     1      -4.180  51.032  28.028  0.00  0.00    +0.000 C 
ATOM      6  C   UNL     1      -5.558  47.911  26.255  0.00  0.00    +0.000 C 
ATOM      7  C   UNL     1      -1.961  50.840  27.509  0.00  0.00    +0.000 A 
ATOM      8  C   UNL     1      -7.786  48.423  26.219  0.00  0.00    +0.000 A 
ATOM      9  C   UNL     1      -2.175  52.087  28.096  0.00  0.00    +0.000 A 
ATOM     10  C   UNL     1      -7.576  47.292  25.430  0.00  0.00    +0.000 A 
ATOM     11  C   UNL     1      -5.600  50.885  28.211  0.00  0.00    +0.000 C 
ATOM     12  C   UNL     1      -4.131  47.848  26.436  0.00  0.00    +0.000 C 
ATOM     13  C   UNL     1      -6.192  49.944  27.522  0.00  0.00    +0.000 C 
ATOM     14  C   UNL     1      -3.543  48.925  26.889  0.00  0.00    +0.000 C 
ATOM     15  C   UNL     1      -0.659  50.493  27.105  0.00  0.00    +0.000 A 
ATOM     16  C   UNL     1      -9.094  48.925  26.350  0.00  0.00    +0.000 A 
ATOM     17  C   UNL     1      -1.146  53.011  28.307  0.00  0.00    +0.000 A 
ATOM     18  C   UNL     1      -8.612  46.630  24.763  0.00  0.00    +0.000 A 
ATOM     19  C   UNL     1       0.381  51.402  27.314  0.00  0.00    +0.000 A 
ATOM     20  C   UNL     1     -10.141  48.274  25.697  0.00  0.00    +0.000 A 
ATOM     21  C   UNL     1       0.138  52.637  27.905  0.00  0.00    +0.000 A 
ATOM     22  C   UNL     1      -9.901  47.146  24.919  0.00  0.00    +0.000 A 
ATOM     23  H   UNL     1      -3.935  53.030  28.766  0.00  0.00    +0.000 HD
ATOM     24  H   UNL     1      -5.813  46.265  24.904  0.00  0.00    +0.000 HD
ENDROOT
BRANCH  11  26
ATOM     25  O   UNL     1      -7.519  52.109  28.950  0.00  0.00    +0.000 OA
ATOM     26  C   UNL     1      -6.424  51.626  29.210  0.00  0.00    +0.000 C 
BRANCH  26  27
ATOM     27  O   UNL     1      -5.764  51.634  30.405  0.00  0.00    +0.000 OA
ATOM     28  C   UNL     1      -5.930  50.536  31.262  0.00  0.00    +0.000 C 
ENDBRANCH  26  27
ENDBRANCH  11  26
BRANCH  12  30
ATOM     29  O   UNL     1      -2.144  46.650  25.850  0.00  0.00    +0.000 OA
ATOM     30  C   UNL     1      -3.292  46.624  26.277  0.00  0.00    +0.000 C 
BRANCH  30  31
ATOM     31  O   UNL     1      -4.009  45.542  26.699  0.00  0.00    +0.000 OA
ATOM     32  C   UNL     1      -3.827  45.101  28.019  0.00  0.00    +0.000 C 
ENDBRANCH  30  31
ENDBRANCH  12  30
TORSDOF 4
ENDMDL
MODEL 5
REMARK VINA RESULT:      -6.7      2.351      3.965
REMARK  Name = 5326018_Caulerpin.pdbqt.pdb
REMARK  4 active torsions:
REMARK  status: ('A' for Active; 'I' for Inactive)
REMARK    1  A    between atoms: C_11  and  C_26
REMARK    2  A    between atoms: C_12  and  C_30
REMARK    3  A    between atoms: C_26  and  O_27
REMARK    4  A    between atoms: C_30  and  O_31
REMARK                            x       y       z     vdW  Elec       q    Type
REMARK                         _______ _______ _______ _____ _____    ______ ____
ROOT
ATOM      1  N   UNL     1      -3.038  45.372  27.629  0.00  0.00    +0.000 N 
ATOM      2  N   UNL     1       0.681  50.723  28.103  0.00  0.00    +0.000 N 
ATOM      3  C   UNL     1      -2.916  47.581  27.496  0.00  0.00    +0.000 C 
ATOM      4  C   UNL     1       0.416  48.580  28.604  0.00  0.00    +0.000 C 
ATOM      5  C   UNL     1      -2.281  46.457  28.020  0.00  0.00    +0.000 C 
ATOM      6  C   UNL     1      -0.268  49.727  28.209  0.00  0.00    +0.000 C 
ATOM      7  C   UNL     1      -4.102  47.177  26.839  0.00  0.00    +0.000 A 
ATOM      8  C   UNL     1       1.781  48.901  28.802  0.00  0.00    +0.000 A 
ATOM      9  C   UNL     1      -4.158  45.787  26.941  0.00  0.00    +0.000 A 
ATOM     10  C   UNL     1       1.919  50.252  28.485  0.00  0.00    +0.000 A 
ATOM     11  C   UNL     1      -1.052  46.297  28.753  0.00  0.00    +0.000 C 
ATOM     12  C   UNL     1      -1.646  49.957  27.864  0.00  0.00    +0.000 C 
ATOM     13  C   UNL     1      -0.222  47.308  28.744  0.00  0.00    +0.000 C 
ATOM     14  C   UNL     1      -2.380  48.901  27.622  0.00  0.00    +0.000 C 
ATOM     15  C   UNL     1      -5.128  47.849  26.150  0.00  0.00    +0.000 A 
ATOM     16  C   UNL     1       2.919  48.177  29.202  0.00  0.00    +0.000 A 
ATOM     17  C   UNL     1      -5.197  45.028  26.390  0.00  0.00    +0.000 A 
ATOM     18  C   UNL     1       3.145  50.924  28.552  0.00  0.00    +0.000 A 
ATOM     19  C   UNL     1      -6.176  47.108  25.599  0.00  0.00    +0.000 A 
ATOM     20  C   UNL     1       4.149  48.833  29.279  0.00  0.00    +0.000 A 
ATOM     21  C   UNL     1      -6.207  45.723  25.720  0.00  0.00    +0.000 A 
ATOM     22  C   UNL     1       4.256  50.183  28.961  0.00  0.00    +0.000 A 
ATOM     23  H   UNL     1      -2.828  44.396  27.796  0.00  0.00    +0.000 HD
ATOM     24  H   UNL     1       0.530  51.672  27.783  0.00  0.00    +0.000 HD
ENDROOT
BRANCH  11  26
ATOM     25  O   UNL     1      -1.552  44.447  30.185  0.00  0.00    +0.000 OA
ATOM     26  C   UNL     1      -0.709  45.134  29.621  0.00  0.00    +0.000 C 
BRANCH  26  27
ATOM     27  O   UNL     1       0.647  44.984  29.639  0.00  0.00    +0.000 OA
ATOM     28  C   UNL     1       1.234  44.389  30.766  0.00  0.00    +0.000 C 
ENDBRANCH  26  27
ENDBRANCH  11  26
BRANCH  12  30
ATOM     29  O   UNL     1      -1.747  52.338  28.078  0.00  0.00    +0.000 OA
ATOM     30  C   UNL     1      -2.334  51.280  27.886  0.00  0.00    +0.000 C 
BRANCH  30  31
ATOM     31  O   UNL     1      -3.663  51.089  27.640  0.00  0.00    +0.000 OA
ATOM     32  C   UNL     1      -4.588  51.590  28.569  0.00  0.00    +0.000 C 
ENDBRANCH  30  31
ENDBRANCH  12  30
TORSDOF 4
ENDMDL
MODEL 6
REMARK VINA RESULT:      -6.7      0.823      7.592
REMARK  Name = 5326018_Caulerpin.pdbqt.pdb
REMARK  4 active torsions:
REMARK  status: ('A' for Active; 'I' for Inactive)
REMARK    1  A    between atoms: C_11  and  C_26
REMARK    2  A    between atoms: C_12  and  C_30
REMARK    3  A    between atoms: C_26  and  O_27
REMARK    4  A    between atoms: C_30  and  O_31
REMARK                            x       y       z     vdW  Elec       q    Type
REMARK                         _______ _______ _______ _____ _____    ______ ____
ROOT
ATOM      1  N   UNL     1      -1.783  49.765  28.639  0.00  0.00    +0.000 N 
ATOM      2  N   UNL     1      -6.525  46.988  25.105  0.00  0.00    +0.000 N 
ATOM      3  C   UNL     1      -2.574  47.924  27.691  0.00  0.00    +0.000 C 
ATOM      4  C   UNL     1      -5.899  48.683  26.388  0.00  0.00    +0.000 C 
ATOM      5  C   UNL     1      -2.936  49.190  28.146  0.00  0.00    +0.000 C 
ATOM      6  C   UNL     1      -5.594  47.368  26.050  0.00  0.00    +0.000 C 
ATOM      7  C   UNL     1      -1.204  47.707  27.971  0.00  0.00    +0.000 A 
ATOM      8  C   UNL     1      -7.064  49.082  25.689  0.00  0.00    +0.000 A 
ATOM      9  C   UNL     1      -0.732  48.875  28.570  0.00  0.00    +0.000 A 
ATOM     10  C   UNL     1      -7.440  47.999  24.896  0.00  0.00    +0.000 A 
ATOM     11  C   UNL     1      -4.181  49.912  28.100  0.00  0.00    +0.000 C 
ATOM     12  C   UNL     1      -4.523  46.493  26.448  0.00  0.00    +0.000 C 
ATOM     13  C   UNL     1      -5.100  49.456  27.288  0.00  0.00    +0.000 C 
ATOM     14  C   UNL     1      -3.492  47.047  27.032  0.00  0.00    +0.000 C 
ATOM     15  C   UNL     1      -0.309  46.642  27.761  0.00  0.00    +0.000 A 
ATOM     16  C   UNL     1      -7.831  50.261  25.637  0.00  0.00    +0.000 A 
ATOM     17  C   UNL     1       0.597  49.034  28.977  0.00  0.00    +0.000 A 
ATOM     18  C   UNL     1      -8.553  48.031  24.048  0.00  0.00    +0.000 A 
ATOM     19  C   UNL     1       1.020  46.782  28.167  0.00  0.00    +0.000 A 
ATOM     20  C   UNL     1      -8.948  50.308  24.801  0.00  0.00    +0.000 A 
ATOM     21  C   UNL     1       1.461  47.957  28.765  0.00  0.00    +0.000 A 
ATOM     22  C   UNL     1      -9.300  49.210  24.023  0.00  0.00    +0.000 A 
ATOM     23  H   UNL     1      -1.682  50.706  28.997  0.00  0.00    +0.000 HD
ATOM     24  H   UNL     1      -6.559  46.107  24.607  0.00  0.00    +0.000 HD
ENDROOT
BRANCH  11  26
ATOM     25  O   UNL     1      -5.104  52.066  28.582  0.00  0.00    +0.000 OA
ATOM     26  C   UNL     1      -4.554  51.050  28.989  0.00  0.00    +0.000 C 
BRANCH  26  27
ATOM     27  O   UNL     1      -4.203  50.739  30.271  0.00  0.00    +0.000 OA
ATOM     28  C   UNL     1      -5.181  50.188  31.112  0.00  0.00    +0.000 C 
ENDBRANCH  26  27
ENDBRANCH  11  26
BRANCH  12  30
ATOM     29  O   UNL     1      -4.386  44.384  25.324  0.00  0.00    +0.000 OA
ATOM     30  C   UNL     1      -4.548  45.003  26.369  0.00  0.00    +0.000 C 
BRANCH  30  31
ATOM     31  O   UNL     1      -4.749  44.500  27.622  0.00  0.00    +0.000 OA
ATOM     32  C   UNL     1      -5.981  44.748  28.246  0.00  0.00    +0.000 C 
ENDBRANCH  30  31
ENDBRANCH  12  30
TORSDOF 4
ENDMDL
MODEL 7
REMARK VINA RESULT:      -6.5     23.297     23.965
REMARK  Name = 5326018_Caulerpin.pdbqt.pdb
REMARK  4 active torsions:
REMARK  status: ('A' for Active; 'I' for Inactive)
REMARK    1  A    between atoms: C_11  and  C_26
REMARK    2  A    between atoms: C_12  and  C_30
REMARK    3  A    between atoms: C_26  and  O_27
REMARK    4  A    between atoms: C_30  and  O_31
REMARK                            x       y       z     vdW  Elec       q    Type
REMARK                         _______ _______ _______ _____ _____    ______ ____
ROOT
ATOM      1  N   UNL     1       7.825  39.415   7.782  0.00  0.00    +0.000 N 
ATOM      2  N   UNL     1      12.232  43.634  10.119  0.00  0.00    +0.000 N 
ATOM      3  C   UNL     1       8.529  41.514   7.890  0.00  0.00    +0.000 C 
ATOM      4  C   UNL     1      11.270  41.645  10.297  0.00  0.00    +0.000 C 
ATOM      5  C   UNL     1       8.602  40.277   8.527  0.00  0.00    +0.000 C 
ATOM      6  C   UNL     1      11.107  42.920   9.761  0.00  0.00    +0.000 C 
ATOM      7  C   UNL     1       7.647  41.414   6.788  0.00  0.00    +0.000 A 
ATOM      8  C   UNL     1      12.474  41.608  11.042  0.00  0.00    +0.000 A 
ATOM      9  C   UNL     1       7.215  40.089   6.745  0.00  0.00    +0.000 A 
ATOM     10  C   UNL     1      13.056  42.869  10.918  0.00  0.00    +0.000 A 
ATOM     11  C   UNL     1       9.354  39.823   9.668  0.00  0.00    +0.000 C 
ATOM     12  C   UNL     1      10.086  43.489   8.921  0.00  0.00    +0.000 C 
ATOM     13  C   UNL     1      10.338  40.585  10.069  0.00  0.00    +0.000 C 
ATOM     14  C   UNL     1       9.276  42.654   8.324  0.00  0.00    +0.000 C 
ATOM     15  C   UNL     1       7.183  42.312   5.809  0.00  0.00    +0.000 A 
ATOM     16  C   UNL     1      13.140  40.624  11.796  0.00  0.00    +0.000 A 
ATOM     17  C   UNL     1       6.333  39.611   5.769  0.00  0.00    +0.000 A 
ATOM     18  C   UNL     1      14.276  43.203  11.516  0.00  0.00    +0.000 A 
ATOM     19  C   UNL     1       6.297  41.853   4.831  0.00  0.00    +0.000 A 
ATOM     20  C   UNL     1      14.355  40.942  12.405  0.00  0.00    +0.000 A 
ATOM     21  C   UNL     1       5.881  40.526   4.816  0.00  0.00    +0.000 A 
ATOM     22  C   UNL     1      14.909  42.210  12.266  0.00  0.00    +0.000 A 
ATOM     23  H   UNL     1       7.704  38.423   7.936  0.00  0.00    +0.000 HD
ATOM     24  H   UNL     1      12.461  44.582   9.845  0.00  0.00    +0.000 HD
ENDROOT
BRANCH  11  26
ATOM     25  O   UNL     1       7.876  38.327  10.809  0.00  0.00    +0.000 OA
ATOM     26  C   UNL     1       9.022  38.632  10.502  0.00  0.00    +0.000 C 
BRANCH  26  27
ATOM     27  O   UNL     1      10.178  37.978  10.815  0.00  0.00    +0.000 OA
ATOM     28  C   UNL     1      10.503  36.821  10.091  0.00  0.00    +0.000 C 
ENDBRANCH  26  27
ENDBRANCH  11  26
BRANCH  12  30
ATOM     29  O   UNL     1      10.376  45.811   9.426  0.00  0.00    +0.000 OA
ATOM     30  C   UNL     1       9.795  44.946   8.780  0.00  0.00    +0.000 C 
BRANCH  30  31
ATOM     31  O   UNL     1       8.831  45.112   7.829  0.00  0.00    +0.000 OA
ATOM     32  C   UNL     1       8.287  46.393   7.652  0.00  0.00    +0.000 C 
ENDBRANCH  30  31
ENDBRANCH  12  30
TORSDOF 4
ENDMDL
MODEL 8
REMARK VINA RESULT:      -6.3      6.055      9.215
REMARK  Name = 5326018_Caulerpin.pdbqt.pdb
REMARK  4 active torsions:
REMARK  status: ('A' for Active; 'I' for Inactive)
REMARK    1  A    between atoms: C_11  and  C_26
REMARK    2  A    between atoms: C_12  and  C_30
REMARK    3  A    between atoms: C_26  and  O_27
REMARK    4  A    between atoms: C_30  and  O_31
REMARK                            x       y       z     vdW  Elec       q    Type
REMARK                         _______ _______ _______ _____ _____    ______ ____
ROOT
ATOM      1  N   UNL     1     -15.707  48.321  27.183  0.00  0.00    +0.000 N 
ATOM      2  N   UNL     1     -10.359  50.102  23.879  0.00  0.00    +0.000 N 
ATOM      3  C   UNL     1     -14.788  49.716  25.727  0.00  0.00    +0.000 C 
ATOM      4  C   UNL     1     -11.211  48.997  25.602  0.00  0.00    +0.000 C 
ATOM      5  C   UNL     1     -14.495  48.811  26.745  0.00  0.00    +0.000 C 
ATOM      6  C   UNL     1     -11.480  50.003  24.678  0.00  0.00    +0.000 C 
ATOM      7  C   UNL     1     -16.193  49.821  25.594  0.00  0.00    +0.000 A 
ATOM      8  C   UNL     1      -9.890  48.528  25.403  0.00  0.00    +0.000 A 
ATOM      9  C   UNL     1     -16.746  48.939  26.522  0.00  0.00    +0.000 A 
ATOM     10  C   UNL     1      -9.376  49.240  24.320  0.00  0.00    +0.000 A 
ATOM     11  C   UNL     1     -13.247  48.326  27.274  0.00  0.00    +0.000 C 
ATOM     12  C   UNL     1     -12.657  50.794  24.429  0.00  0.00    +0.000 C 
ATOM     13  C   UNL     1     -12.175  48.546  26.558  0.00  0.00    +0.000 C 
ATOM     14  C   UNL     1     -13.775  50.377  24.964  0.00  0.00    +0.000 C 
ATOM     15  C   UNL     1     -17.054  50.564  24.765  0.00  0.00    +0.000 A 
ATOM     16  C   UNL     1      -9.081  47.557  26.022  0.00  0.00    +0.000 A 
ATOM     17  C   UNL     1     -18.126  48.763  26.670  0.00  0.00    +0.000 A 
ATOM     18  C   UNL     1      -8.085  49.034  23.822  0.00  0.00    +0.000 A 
ATOM     19  C   UNL     1     -18.435  50.405  24.903  0.00  0.00    +0.000 A 
ATOM     20  C   UNL     1      -7.789  47.343  25.542  0.00  0.00    +0.000 A 
ATOM     21  C   UNL     1     -18.958  49.520  25.841  0.00  0.00    +0.000 A 
ATOM     22  C   UNL     1      -7.302  48.071  24.461  0.00  0.00    +0.000 A 
ATOM     23  H   UNL     1     -15.852  47.601  27.880  0.00  0.00    +0.000 HD
ATOM     24  H   UNL     1     -10.241  50.700  23.071  0.00  0.00    +0.000 HD
ENDROOT
BRANCH  11  26
ATOM     25  O   UNL     1     -13.585  46.661  28.958  0.00  0.00    +0.000 OA
ATOM     26  C   UNL     1     -13.059  47.715  28.621  0.00  0.00    +0.000 C 
BRANCH  26  27
ATOM     27  O   UNL     1     -12.215  48.504  29.348  0.00  0.00    +0.000 OA
ATOM     28  C   UNL     1     -12.770  49.537  30.118  0.00  0.00    +0.000 C 
ENDBRANCH  26  27
ENDBRANCH  11  26
BRANCH  12  30
ATOM     29  O   UNL     1     -13.492  52.387  22.850  0.00  0.00    +0.000 OA
ATOM     30  C   UNL     1     -12.681  52.110  23.726  0.00  0.00    +0.000 C 
BRANCH  30  31
ATOM     31  O   UNL     1     -11.696  52.902  24.241  0.00  0.00    +0.000 OA
ATOM     32  C   UNL     1     -11.968  53.617  25.418  0.00  0.00    +0.000 C 
ENDBRANCH  30  31
ENDBRANCH  12  30
TORSDOF 4
ENDMDL
MODEL 9
REMARK VINA RESULT:      -6.0      3.663      6.180
REMARK  Name = 5326018_Caulerpin.pdbqt.pdb
REMARK  4 active torsions:
REMARK  status: ('A' for Active; 'I' for Inactive)
REMARK    1  A    between atoms: C_11  and  C_26
REMARK    2  A    between atoms: C_12  and  C_30
REMARK    3  A    between atoms: C_26  and  O_27
REMARK    4  A    between atoms: C_30  and  O_31
REMARK                            x       y       z     vdW  Elec       q    Type
REMARK                         _______ _______ _______ _____ _____    ______ ____
ROOT
ATOM      1  N   UNL     1      -9.247  49.702  30.533  0.00  0.00    +0.000 N 
ATOM      2  N   UNL     1      -6.852  46.349  25.463  0.00  0.00    +0.000 N 
ATOM      3  C   UNL     1      -9.641  48.734  28.578  0.00  0.00    +0.000 C 
ATOM      4  C   UNL     1      -6.435  47.655  27.205  0.00  0.00    +0.000 C 
ATOM      5  C   UNL     1      -8.630  49.256  29.383  0.00  0.00    +0.000 C 
ATOM      6  C   UNL     1      -7.437  47.251  26.327  0.00  0.00    +0.000 C 
ATOM      7  C   UNL     1     -10.887  48.926  29.221  0.00  0.00    +0.000 A 
ATOM      8  C   UNL     1      -5.216  47.040  26.829  0.00  0.00    +0.000 A 
ATOM      9  C   UNL     1     -10.613  49.540  30.443  0.00  0.00    +0.000 A 
ATOM     10  C   UNL     1      -5.504  46.230  25.731  0.00  0.00    +0.000 A 
ATOM     11  C   UNL     1      -7.200  49.309  29.222  0.00  0.00    +0.000 C 
ATOM     12  C   UNL     1      -8.843  47.554  26.263  0.00  0.00    +0.000 C 
ATOM     13  C   UNL     1      -6.679  48.536  28.305  0.00  0.00    +0.000 C 
ATOM     14  C   UNL     1      -9.381  48.098  27.324  0.00  0.00    +0.000 C 
ATOM     15  C   UNL     1     -12.223  48.625  28.896  0.00  0.00    +0.000 A 
ATOM     16  C   UNL     1      -3.898  47.076  27.320  0.00  0.00    +0.000 A 
ATOM     17  C   UNL     1     -11.612  49.875  31.363  0.00  0.00    +0.000 A 
ATOM     18  C   UNL     1      -4.534  45.451  25.090  0.00  0.00    +0.000 A 
ATOM     19  C   UNL     1     -13.233  48.958  29.801  0.00  0.00    +0.000 A 
ATOM     20  C   UNL     1      -2.917  46.309  26.689  0.00  0.00    +0.000 A 
ATOM     21  C   UNL     1     -12.929  49.573  31.011  0.00  0.00    +0.000 A 
ATOM     22  C   UNL     1      -3.233  45.513  25.593  0.00  0.00    +0.000 A 
ATOM     23  H   UNL     1      -8.794  50.089  31.351  0.00  0.00    +0.000 HD
ATOM     24  H   UNL     1      -7.314  45.821  24.733  0.00  0.00    +0.000 HD
ENDROOT
BRANCH  11  26
ATOM     25  O   UNL     1      -5.686  51.157  29.341  0.00  0.00    +0.000 OA
ATOM     26  C   UNL     1      -6.287  50.260  29.919  0.00  0.00    +0.000 C 
BRANCH  26  27
ATOM     27  O   UNL     1      -6.276  49.963  31.251  0.00  0.00    +0.000 OA
ATOM     28  C   UNL     1      -5.249  49.141  31.739  0.00  0.00    +0.000 C 
ENDBRANCH  26  27
ENDBRANCH  11  26
BRANCH  12  30
ATOM     29  O   UNL     1     -10.832  46.946  25.077  0.00  0.00    +0.000 OA
ATOM     30  C   UNL     1      -9.703  47.422  25.050  0.00  0.00    +0.000 C 
BRANCH  30  31
ATOM     31  O   UNL     1      -9.029  47.928  23.977  0.00  0.00    +0.000 OA
ATOM     32  C   UNL     1      -8.989  49.321  23.815  0.00  0.00    +0.000 C 
ENDBRANCH  30  31
ENDBRANCH  12  30
TORSDOF 4
ENDMDL
