MODEL 1
REMARK VINA RESULT:      -3.5      0.000      0.000
REMARK  Name = 5350_Sulforaphane.pdbqt.pdb
REMARK  3 active torsions:
REMARK  status: ('A' for Active; 'I' for Inactive)
REMARK    1  A    between atoms: C_1  and  C_2
REMARK    2  A    between atoms: C_3  and  N_5
REMARK    3  A    between atoms: C_7  and  S_8
REMARK                            x       y       z     vdW  Elec       q    Type
REMARK                         _______ _______ _______ _____ _____    ______ ____
ROOT
ATOM      1  C   UNL     1      -6.723  46.258  25.996  0.00  0.00    +0.000 C 
ATOM      2  C   UNL     1      -5.394  45.839  26.635  0.00  0.00    +0.000 C 
ENDROOT
BRANCH   2   3
ATOM      3  S   UNL     1      -3.870  45.357  27.375  0.00  0.00    +0.000 S 
ATOM      4  O   UNL     1      -3.932  46.481  28.366  0.00  0.00    +0.000 OA
ATOM      5  C   UNL     1      -2.905  46.313  26.254  0.00  0.00    +0.000 C 
ENDBRANCH   2   3
BRANCH   1   6
ATOM      6  C   UNL     1      -8.049  46.680  25.357  0.00  0.00    +0.000 C 
ATOM      7  C   UNL     1      -9.377  47.102  24.717  0.00  0.00    +0.000 C 
BRANCH   7   9
ATOM      8  S   UNL     1     -10.967  50.196  24.413  0.00  0.00    +0.000 S 
ATOM      9  N   UNL     1     -10.542  47.472  24.170  0.00  0.00    +0.000 NA
ATOM     10  C   UNL     1     -10.703  48.629  24.283  0.00  0.00    +0.000 C 
ENDBRANCH   7   9
ENDBRANCH   1   6
TORSDOF 3
ENDMDL
MODEL 2
REMARK VINA RESULT:      -3.2      3.735      6.910
REMARK  Name = 5350_Sulforaphane.pdbqt.pdb
REMARK  3 active torsions:
REMARK  status: ('A' for Active; 'I' for Inactive)
REMARK    1  A    between atoms: C_1  and  C_2
REMARK    2  A    between atoms: C_3  and  N_5
REMARK    3  A    between atoms: C_7  and  S_8
REMARK                            x       y       z     vdW  Elec       q    Type
REMARK                         _______ _______ _______ _____ _____    ______ ____
ROOT
ATOM      1  C   UNL     1      -7.439  47.398  25.022  0.00  0.00    +0.000 C 
ATOM      2  C   UNL     1      -8.808  48.006  24.696  0.00  0.00    +0.000 C 
ENDROOT
BRANCH   2   3
ATOM      3  S   UNL     1     -10.380  48.705  24.317  0.00  0.00    +0.000 S 
ATOM      4  O   UNL     1      -9.753  49.872  23.614  0.00  0.00    +0.000 OA
ATOM      5  C   UNL     1     -10.471  49.586  25.839  0.00  0.00    +0.000 C 
ENDBRANCH   2   3
BRANCH   1   6
ATOM      6  C   UNL     1      -6.071  46.794  25.349  0.00  0.00    +0.000 C 
ATOM      7  C   UNL     1      -4.701  46.189  25.677  0.00  0.00    +0.000 C 
BRANCH   7   9
ATOM      8  S   UNL     1      -2.592  46.469  28.446  0.00  0.00    +0.000 S 
ATOM      9  N   UNL     1      -3.497  45.670  25.956  0.00  0.00    +0.000 NA
ATOM     10  C   UNL     1      -3.131  46.020  27.015  0.00  0.00    +0.000 C 
ENDBRANCH   7   9
ENDBRANCH   1   6
TORSDOF 3
ENDMDL
MODEL 3
REMARK VINA RESULT:      -3.1     22.969     24.046
REMARK  Name = 5350_Sulforaphane.pdbqt.pdb
REMARK  3 active torsions:
REMARK  status: ('A' for Active; 'I' for Inactive)
REMARK    1  A    between atoms: C_1  and  C_2
REMARK    2  A    between atoms: C_3  and  N_5
REMARK    3  A    between atoms: C_7  and  S_8
REMARK                            x       y       z     vdW  Elec       q    Type
REMARK                         _______ _______ _______ _____ _____    ______ ____
ROOT
ATOM      1  C   UNL     1     -16.806  38.983   5.960  0.00  0.00    +0.000 C 
ATOM      2  C   UNL     1     -16.250  40.225   5.254  0.00  0.00    +0.000 C 
ENDROOT
BRANCH   2   3
ATOM      3  S   UNL     1     -15.616  41.653   4.440  0.00  0.00    +0.000 S 
ATOM      4  O   UNL     1     -14.231  41.400   4.958  0.00  0.00    +0.000 OA
ATOM      5  C   UNL     1     -15.998  42.718   5.789  0.00  0.00    +0.000 C 
ENDBRANCH   2   3
BRANCH   1   6
ATOM      6  C   UNL     1     -17.359  37.741   6.664  0.00  0.00    +0.000 C 
ATOM      7  C   UNL     1     -17.913  36.497   7.369  0.00  0.00    +0.000 C 
BRANCH   7   9
ATOM      8  S   UNL     1     -20.819  34.616   6.906  0.00  0.00    +0.000 S 
ATOM      9  N   UNL     1     -18.391  35.402   7.976  0.00  0.00    +0.000 NA
ATOM     10  C   UNL     1     -19.419  35.085   7.508  0.00  0.00    +0.000 C 
ENDBRANCH   7   9
ENDBRANCH   1   6
TORSDOF 3
ENDMDL
MODEL 4
REMARK VINA RESULT:      -3.0     20.918     21.098
REMARK  Name = 5350_Sulforaphane.pdbqt.pdb
REMARK  3 active torsions:
REMARK  status: ('A' for Active; 'I' for Inactive)
REMARK    1  A    between atoms: C_1  and  C_2
REMARK    2  A    between atoms: C_3  and  N_5
REMARK    3  A    between atoms: C_7  and  S_8
REMARK                            x       y       z     vdW  Elec       q    Type
REMARK                         _______ _______ _______ _____ _____    ______ ____
ROOT
ATOM      1  C   UNL     1      -3.085  27.623  20.052  0.00  0.00    +0.000 C 
ATOM      2  C   UNL     1      -1.748  28.092  19.468  0.00  0.00    +0.000 C 
ENDROOT
BRANCH   2   3
ATOM      3  S   UNL     1      -0.210  28.632  18.800  0.00  0.00    +0.000 S 
ATOM      4  O   UNL     1      -0.885  29.295  17.636  0.00  0.00    +0.000 OA
ATOM      5  C   UNL     1       0.037  27.143  17.893  0.00  0.00    +0.000 C 
ENDBRANCH   2   3
BRANCH   1   6
ATOM      6  C   UNL     1      -4.422  27.157  20.635  0.00  0.00    +0.000 C 
ATOM      7  C   UNL     1      -5.761  26.690  21.219  0.00  0.00    +0.000 C 
BRANCH   7   9
ATOM      8  S   UNL     1      -6.807  26.099  24.498  0.00  0.00    +0.000 S 
ATOM      9  N   UNL     1      -6.929  26.290  21.740  0.00  0.00    +0.000 NA
ATOM     10  C   UNL     1      -6.857  26.216  22.909  0.00  0.00    +0.000 C 
ENDBRANCH   7   9
ENDBRANCH   1   6
TORSDOF 3
ENDMDL
MODEL 5
REMARK VINA RESULT:      -2.9     23.510     25.268
REMARK  Name = 5350_Sulforaphane.pdbqt.pdb
REMARK  3 active torsions:
REMARK  status: ('A' for Active; 'I' for Inactive)
REMARK    1  A    between atoms: C_1  and  C_2
REMARK    2  A    between atoms: C_3  and  N_5
REMARK    3  A    between atoms: C_7  and  S_8
REMARK                            x       y       z     vdW  Elec       q    Type
REMARK                         _______ _______ _______ _____ _____    ______ ____
ROOT
ATOM      1  C   UNL     1     -15.358  44.119   2.295  0.00  0.00    +0.000 C 
ATOM      2  C   UNL     1     -15.096  44.756   0.926  0.00  0.00    +0.000 C 
ENDROOT
BRANCH   2   3
ATOM      3  S   UNL     1     -14.794  45.484  -0.650  0.00  0.00    +0.000 S 
ATOM      4  O   UNL     1     -14.209  46.718  -0.029  0.00  0.00    +0.000 OA
ATOM      5  C   UNL     1     -16.397  46.208  -0.738  0.00  0.00    +0.000 C 
ENDBRANCH   2   3
BRANCH   1   6
ATOM      6  C   UNL     1     -15.616  43.484   3.664  0.00  0.00    +0.000 C 
ATOM      7  C   UNL     1     -15.876  42.848   5.035  0.00  0.00    +0.000 C 
BRANCH   7   9
ATOM      8  S   UNL     1     -16.316  39.536   6.052  0.00  0.00    +0.000 S 
ATOM      9  N   UNL     1     -16.089  42.288   6.234  0.00  0.00    +0.000 NA
ATOM     10  C   UNL     1     -16.182  41.122   6.135  0.00  0.00    +0.000 C 
ENDBRANCH   7   9
ENDBRANCH   1   6
TORSDOF 3
ENDMDL
MODEL 6
REMARK VINA RESULT:      -2.9     23.089     24.185
REMARK  Name = 5350_Sulforaphane.pdbqt.pdb
REMARK  3 active torsions:
REMARK  status: ('A' for Active; 'I' for Inactive)
REMARK    1  A    between atoms: C_1  and  C_2
REMARK    2  A    between atoms: C_3  and  N_5
REMARK    3  A    between atoms: C_7  and  S_8
REMARK                            x       y       z     vdW  Elec       q    Type
REMARK                         _______ _______ _______ _____ _____    ______ ____
ROOT
ATOM      1  C   UNL     1     -15.351  39.011   5.694  0.00  0.00    +0.000 C 
ATOM      2  C   UNL     1     -15.777  40.458   5.962  0.00  0.00    +0.000 C 
ENDROOT
BRANCH   2   3
ATOM      3  S   UNL     1     -16.267  42.123   6.266  0.00  0.00    +0.000 S 
ATOM      4  O   UNL     1     -17.612  41.900   5.642  0.00  0.00    +0.000 OA
ATOM      5  C   UNL     1     -15.588  42.709   4.751  0.00  0.00    +0.000 C 
ENDBRANCH   2   3
BRANCH   1   6
ATOM      6  C   UNL     1     -14.922  37.565   5.427  0.00  0.00    +0.000 C 
ATOM      7  C   UNL     1     -14.493  36.118   5.160  0.00  0.00    +0.000 C 
BRANCH   7   9
ATOM      8  S   UNL     1     -11.393  34.518   5.318  0.00  0.00    +0.000 S 
ATOM      9  N   UNL     1     -14.114  34.852   4.938  0.00  0.00    +0.000 NA
ATOM     10  C   UNL     1     -12.959  34.731   5.105  0.00  0.00    +0.000 C 
ENDBRANCH   7   9
ENDBRANCH   1   6
TORSDOF 3
ENDMDL
MODEL 7
REMARK VINA RESULT:      -2.8     17.433     19.091
REMARK  Name = 5350_Sulforaphane.pdbqt.pdb
REMARK  3 active torsions:
REMARK  status: ('A' for Active; 'I' for Inactive)
REMARK    1  A    between atoms: C_1  and  C_2
REMARK    2  A    between atoms: C_3  and  N_5
REMARK    3  A    between atoms: C_7  and  S_8
REMARK                            x       y       z     vdW  Elec       q    Type
REMARK                         _______ _______ _______ _____ _____    ______ ____
ROOT
ATOM      1  C   UNL     1     -24.123  43.052  19.753  0.00  0.00    +0.000 C 
ATOM      2  C   UNL     1     -23.956  44.551  19.480  0.00  0.00    +0.000 C 
ENDROOT
BRANCH   2   3
ATOM      3  S   UNL     1     -23.765  46.275  19.171  0.00  0.00    +0.000 S 
ATOM      4  O   UNL     1     -22.700  46.029  18.144  0.00  0.00    +0.000 OA
ATOM      5  C   UNL     1     -22.575  46.479  20.452  0.00  0.00    +0.000 C 
ENDBRANCH   2   3
BRANCH   1   6
ATOM      6  C   UNL     1     -24.293  41.555  20.024  0.00  0.00    +0.000 C 
ATOM      7  C   UNL     1     -24.463  40.055  20.295  0.00  0.00    +0.000 C 
BRANCH   7   9
ATOM      8  S   UNL     1     -23.044  37.208  18.854  0.00  0.00    +0.000 S 
ATOM      9  N   UNL     1     -24.606  38.746  20.544  0.00  0.00    +0.000 NA
ATOM     10  C   UNL     1     -23.936  38.112  19.818  0.00  0.00    +0.000 C 
ENDBRANCH   7   9
ENDBRANCH   1   6
TORSDOF 3
ENDMDL
MODEL 8
REMARK VINA RESULT:      -2.8     23.832     25.009
REMARK  Name = 5350_Sulforaphane.pdbqt.pdb
REMARK  3 active torsions:
REMARK  status: ('A' for Active; 'I' for Inactive)
REMARK    1  A    between atoms: C_1  and  C_2
REMARK    2  A    between atoms: C_3  and  N_5
REMARK    3  A    between atoms: C_7  and  S_8
REMARK                            x       y       z     vdW  Elec       q    Type
REMARK                         _______ _______ _______ _____ _____    ______ ____
ROOT
ATOM      1  C   UNL     1     -17.492  35.545   6.852  0.00  0.00    +0.000 C 
ATOM      2  C   UNL     1     -16.599  36.597   6.187  0.00  0.00    +0.000 C 
ENDROOT
BRANCH   2   3
ATOM      3  S   UNL     1     -15.571  37.809   5.426  0.00  0.00    +0.000 S 
ATOM      4  O   UNL     1     -14.505  37.639   6.467  0.00  0.00    +0.000 OA
ATOM      5  C   UNL     1     -16.312  39.141   6.308  0.00  0.00    +0.000 C 
ENDBRANCH   2   3
BRANCH   1   6
ATOM      6  C   UNL     1     -18.388  34.495   7.515  0.00  0.00    +0.000 C 
ATOM      7  C   UNL     1     -19.284  33.443   8.180  0.00  0.00    +0.000 C 
BRANCH   7   9
ATOM      8  S   UNL     1     -19.292  29.952   8.116  0.00  0.00    +0.000 S 
ATOM      9  N   UNL     1     -20.063  32.527   8.772  0.00  0.00    +0.000 NA
ATOM     10  C   UNL     1     -19.720  31.443   8.482  0.00  0.00    +0.000 C 
ENDBRANCH   7   9
ENDBRANCH   1   6
TORSDOF 3
ENDMDL
MODEL 9
REMARK VINA RESULT:      -2.8     23.971     25.542
REMARK  Name = 5350_Sulforaphane.pdbqt.pdb
REMARK  3 active torsions:
REMARK  status: ('A' for Active; 'I' for Inactive)
REMARK    1  A    between atoms: C_1  and  C_2
REMARK    2  A    between atoms: C_3  and  N_5
REMARK    3  A    between atoms: C_7  and  S_8
REMARK                            x       y       z     vdW  Elec       q    Type
REMARK                         _______ _______ _______ _____ _____    ______ ____
ROOT
ATOM      1  C   UNL     1     -15.644  44.003   2.447  0.00  0.00    +0.000 C 
ATOM      2  C   UNL     1     -16.287  43.158   3.553  0.00  0.00    +0.000 C 
ENDROOT
BRANCH   2   3
ATOM      3  S   UNL     1     -17.022  42.184   4.823  0.00  0.00    +0.000 S 
ATOM      4  O   UNL     1     -17.756  43.367   5.381  0.00  0.00    +0.000 OA
ATOM      5  C   UNL     1     -15.671  42.418   5.928  0.00  0.00    +0.000 C 
ENDBRANCH   2   3
BRANCH   1   6
ATOM      6  C   UNL     1     -15.004  44.846   1.340  0.00  0.00    +0.000 C 
ATOM      7  C   UNL     1     -14.363  45.689   0.232  0.00  0.00    +0.000 C 
BRANCH   7   9
ATOM      8  S   UNL     1     -15.250  48.741  -1.215  0.00  0.00    +0.000 S 
ATOM      9  N   UNL     1     -13.799  46.435  -0.727  0.00  0.00    +0.000 NA
ATOM     10  C   UNL     1     -14.428  47.408  -0.919  0.00  0.00    +0.000 C 
ENDBRANCH   7   9
ENDBRANCH   1   6
TORSDOF 3
ENDMDL
