MODEL 1
REMARK VINA RESULT:      -5.3      0.000      0.000
REMARK  Name = 5357283_Methylferulate.pdbqt.pdb
REMARK  5 active torsions:
REMARK  status: ('A' for Active; 'I' for Inactive)
REMARK    1  A    between atoms: C_1  and  C_11
REMARK    2  A    between atoms: C_2  and  O_7
REMARK    3  A    between atoms: C_5  and  O_9
REMARK    4  A    between atoms: C_12  and  C_14
REMARK    5  A    between atoms: C_14  and  O_15
REMARK                            x       y       z     vdW  Elec       q    Type
REMARK                         _______ _______ _______ _____ _____    ______ ____
ROOT
ATOM      1  C   UNL     1      -6.913  47.567  24.926  0.00  0.00    +0.000 A 
ATOM      2  C   UNL     1      -9.337  47.591  24.877  0.00  0.00    +0.000 A 
ATOM      3  C   UNL     1      -8.137  47.014  25.300  0.00  0.00    +0.000 A 
ATOM      4  C   UNL     1      -6.877  48.705  24.123  0.00  0.00    +0.000 A 
ATOM      5  C   UNL     1      -9.286  48.732  24.072  0.00  0.00    +0.000 A 
ATOM      6  C   UNL     1      -8.065  49.289  23.695  0.00  0.00    +0.000 A 
ENDROOT
BRANCH   2   7
ATOM      7  O   UNL     1     -10.583  47.109  25.200  0.00  0.00    +0.000 OA
ATOM      8  C   UNL     1     -10.940  47.222  26.553  0.00  0.00    +0.000 C 
ENDBRANCH   2   7
BRANCH   5   9
ATOM      9  O   UNL     1     -10.451  49.312  23.648  0.00  0.00    +0.000 OA
ATOM     10  H   UNL     1     -10.682  48.947  22.774  0.00  0.00    +0.000 HD
ENDBRANCH   5   9
BRANCH   1  11
ATOM     11  C   UNL     1      -5.698  46.965  25.366  0.00  0.00    +0.000 C 
ATOM     12  C   UNL     1      -4.674  46.456  25.739  0.00  0.00    +0.000 C 
BRANCH  12  14
ATOM     13  O   UNL     1      -2.414  46.014  25.553  0.00  0.00    +0.000 OA
ATOM     14  C   UNL     1      -3.445  45.847  26.191  0.00  0.00    +0.000 C 
BRANCH  14  15
ATOM     15  O   UNL     1      -3.640  45.132  27.338  0.00  0.00    +0.000 OA
ATOM     16  C   UNL     1      -3.661  45.834  28.555  0.00  0.00    +0.000 C 
ENDBRANCH  14  15
ENDBRANCH  12  14
ENDBRANCH   1  11
TORSDOF 5
ENDMDL
MODEL 2
REMARK VINA RESULT:      -5.0      1.736      6.301
REMARK  Name = 5357283_Methylferulate.pdbqt.pdb
REMARK  5 active torsions:
REMARK  status: ('A' for Active; 'I' for Inactive)
REMARK    1  A    between atoms: C_1  and  C_11
REMARK    2  A    between atoms: C_2  and  O_7
REMARK    3  A    between atoms: C_5  and  O_9
REMARK    4  A    between atoms: C_12  and  C_14
REMARK    5  A    between atoms: C_14  and  O_15
REMARK                            x       y       z     vdW  Elec       q    Type
REMARK                         _______ _______ _______ _____ _____    ______ ____
ROOT
ATOM      1  C   UNL     1      -5.944  46.750  25.662  0.00  0.00    +0.000 A 
ATOM      2  C   UNL     1      -4.096  47.796  26.832  0.00  0.00    +0.000 A 
ATOM      3  C   UNL     1      -5.431  47.803  26.417  0.00  0.00    +0.000 A 
ATOM      4  C   UNL     1      -5.128  45.676  25.314  0.00  0.00    +0.000 A 
ATOM      5  C   UNL     1      -3.288  46.713  26.476  0.00  0.00    +0.000 A 
ATOM      6  C   UNL     1      -3.797  45.657  25.721  0.00  0.00    +0.000 A 
ENDROOT
BRANCH   2   7
ATOM      7  O   UNL     1      -3.512  48.793  27.577  0.00  0.00    +0.000 OA
ATOM      8  C   UNL     1      -3.327  50.013  26.910  0.00  0.00    +0.000 C 
ENDBRANCH   2   7
BRANCH   5   9
ATOM      9  O   UNL     1      -1.979  46.687  26.874  0.00  0.00    +0.000 OA
ATOM     10  H   UNL     1      -1.583  45.843  26.589  0.00  0.00    +0.000 HD
ENDBRANCH   5   9
BRANCH   1  11
ATOM     11  C   UNL     1      -7.308  46.774  25.246  0.00  0.00    +0.000 C 
ATOM     12  C   UNL     1      -8.457  46.795  24.894  0.00  0.00    +0.000 C 
BRANCH  12  14
ATOM     13  O   UNL     1     -10.194  46.147  23.513  0.00  0.00    +0.000 OA
ATOM     14  C   UNL     1      -9.837  46.824  24.469  0.00  0.00    +0.000 C 
BRANCH  14  15
ATOM     15  O   UNL     1     -10.578  47.660  25.254  0.00  0.00    +0.000 OA
ATOM     16  C   UNL     1     -10.893  47.234  26.556  0.00  0.00    +0.000 C 
ENDBRANCH  14  15
ENDBRANCH  12  14
ENDBRANCH   1  11
TORSDOF 5
ENDMDL
MODEL 3
REMARK VINA RESULT:      -4.6     14.009     15.975
REMARK  Name = 5357283_Methylferulate.pdbqt.pdb
REMARK  5 active torsions:
REMARK  status: ('A' for Active; 'I' for Inactive)
REMARK    1  A    between atoms: C_1  and  C_11
REMARK    2  A    between atoms: C_2  and  O_7
REMARK    3  A    between atoms: C_5  and  O_9
REMARK    4  A    between atoms: C_12  and  C_14
REMARK    5  A    between atoms: C_14  and  O_15
REMARK                            x       y       z     vdW  Elec       q    Type
REMARK                         _______ _______ _______ _____ _____    ______ ____
ROOT
ATOM      1  C   UNL     1       3.710  54.956  17.500  0.00  0.00    +0.000 A 
ATOM      2  C   UNL     1       3.908  54.017  15.273  0.00  0.00    +0.000 A 
ATOM      3  C   UNL     1       3.137  54.612  16.277  0.00  0.00    +0.000 A 
ATOM      4  C   UNL     1       5.061  54.709  17.734  0.00  0.00    +0.000 A 
ATOM      5  C   UNL     1       5.261  53.776  15.521  0.00  0.00    +0.000 A 
ATOM      6  C   UNL     1       5.839  54.118  16.743  0.00  0.00    +0.000 A 
ENDROOT
BRANCH   2   7
ATOM      7  O   UNL     1       3.423  53.647  14.042  0.00  0.00    +0.000 OA
ATOM      8  C   UNL     1       3.286  54.689  13.111  0.00  0.00    +0.000 C 
ENDBRANCH   2   7
BRANCH   5   9
ATOM      9  O   UNL     1       6.033  53.195  14.551  0.00  0.00    +0.000 OA
ATOM     10  H   UNL     1       5.446  52.791  13.886  0.00  0.00    +0.000 HD
ENDBRANCH   5   9
BRANCH   1  11
ATOM     11  C   UNL     1       2.909  55.561  18.513  0.00  0.00    +0.000 C 
ATOM     12  C   UNL     1       2.232  56.070  19.366  0.00  0.00    +0.000 C 
BRANCH  12  14
ATOM     13  O   UNL     1       1.761  57.752  20.879  0.00  0.00    +0.000 OA
ATOM     14  C   UNL     1       1.416  56.685  20.388  0.00  0.00    +0.000 C 
BRANCH  14  15
ATOM     15  O   UNL     1       0.315  55.927  20.663  0.00  0.00    +0.000 OA
ATOM     16  C   UNL     1      -0.267  56.051  21.937  0.00  0.00    +0.000 C 
ENDBRANCH  14  15
ENDBRANCH  12  14
ENDBRANCH   1  11
TORSDOF 5
ENDMDL
MODEL 4
REMARK VINA RESULT:      -4.5     20.654     21.155
REMARK  Name = 5357283_Methylferulate.pdbqt.pdb
REMARK  5 active torsions:
REMARK  status: ('A' for Active; 'I' for Inactive)
REMARK    1  A    between atoms: C_1  and  C_11
REMARK    2  A    between atoms: C_2  and  O_7
REMARK    3  A    between atoms: C_5  and  O_9
REMARK    4  A    between atoms: C_12  and  C_14
REMARK    5  A    between atoms: C_14  and  O_15
REMARK                            x       y       z     vdW  Elec       q    Type
REMARK                         _______ _______ _______ _____ _____    ______ ____
ROOT
ATOM      1  C   UNL     1      -3.597  27.340  19.570  0.00  0.00    +0.000 A 
ATOM      2  C   UNL     1      -5.626  26.746  20.757  0.00  0.00    +0.000 A 
ATOM      3  C   UNL     1      -4.322  27.249  20.757  0.00  0.00    +0.000 A 
ATOM      4  C   UNL     1      -4.169  26.928  18.369  0.00  0.00    +0.000 A 
ATOM      5  C   UNL     1      -6.187  26.337  19.545  0.00  0.00    +0.000 A 
ATOM      6  C   UNL     1      -5.466  26.426  18.354  0.00  0.00    +0.000 A 
ENDROOT
BRANCH   2   7
ATOM      7  O   UNL     1      -6.408  26.623  21.880  0.00  0.00    +0.000 OA
ATOM      8  C   UNL     1      -5.953  25.698  22.833  0.00  0.00    +0.000 C 
ENDBRANCH   2   7
BRANCH   5   9
ATOM      9  O   UNL     1      -7.463  25.843  19.523  0.00  0.00    +0.000 OA
ATOM     10  H   UNL     1      -8.048  26.467  19.991  0.00  0.00    +0.000 HD
ENDBRANCH   5   9
BRANCH   1  11
ATOM     11  C   UNL     1      -2.267  27.854  19.589  0.00  0.00    +0.000 C 
ATOM     12  C   UNL     1      -1.145  28.286  19.605  0.00  0.00    +0.000 C 
BRANCH  12  14
ATOM     13  O   UNL     1       0.961  28.485  20.536  0.00  0.00    +0.000 OA
ATOM     14  C   UNL     1       0.204  28.803  19.629  0.00  0.00    +0.000 C 
BRANCH  14  15
ATOM     15  O   UNL     1       0.437  29.622  18.561  0.00  0.00    +0.000 OA
ATOM     16  C   UNL     1       0.478  29.040  17.282  0.00  0.00    +0.000 C 
ENDBRANCH  14  15
ENDBRANCH  12  14
ENDBRANCH   1  11
TORSDOF 5
ENDMDL
MODEL 5
REMARK VINA RESULT:      -4.3      4.997      6.521
REMARK  Name = 5357283_Methylferulate.pdbqt.pdb
REMARK  5 active torsions:
REMARK  status: ('A' for Active; 'I' for Inactive)
REMARK    1  A    between atoms: C_1  and  C_11
REMARK    2  A    between atoms: C_2  and  O_7
REMARK    3  A    between atoms: C_5  and  O_9
REMARK    4  A    between atoms: C_12  and  C_14
REMARK    5  A    between atoms: C_14  and  O_15
REMARK                            x       y       z     vdW  Elec       q    Type
REMARK                         _______ _______ _______ _____ _____    ______ ____
ROOT
ATOM      1  C   UNL     1      -2.413  49.199  26.647  0.00  0.00    +0.000 A 
ATOM      2  C   UNL     1      -4.711  48.430  26.542  0.00  0.00    +0.000 A 
ATOM      3  C   UNL     1      -3.780  49.471  26.602  0.00  0.00    +0.000 A 
ATOM      4  C   UNL     1      -1.963  47.881  26.631  0.00  0.00    +0.000 A 
ATOM      5  C   UNL     1      -4.244  47.114  26.526  0.00  0.00    +0.000 A 
ATOM      6  C   UNL     1      -2.879  46.836  26.571  0.00  0.00    +0.000 A 
ENDROOT
BRANCH   2   7
ATOM      7  O   UNL     1      -6.072  48.611  26.495  0.00  0.00    +0.000 OA
ATOM      8  C   UNL     1      -6.605  48.848  25.217  0.00  0.00    +0.000 C 
ENDBRANCH   2   7
BRANCH   5   9
ATOM      9  O   UNL     1      -5.140  46.080  26.465  0.00  0.00    +0.000 OA
ATOM     10  H   UNL     1      -5.727  46.220  25.700  0.00  0.00    +0.000 HD
ENDBRANCH   5   9
BRANCH   1  11
ATOM     11  C   UNL     1      -1.478  50.274  26.710  0.00  0.00    +0.000 C 
ATOM     12  C   UNL     1      -0.691  51.180  26.765  0.00  0.00    +0.000 C 
BRANCH  12  14
ATOM     13  O   UNL     1       0.602  52.712  27.915  0.00  0.00    +0.000 OA
ATOM     14  C   UNL     1       0.253  52.273  26.828  0.00  0.00    +0.000 C 
BRANCH  14  15
ATOM     15  O   UNL     1       0.632  52.670  25.578  0.00  0.00    +0.000 OA
ATOM     16  C   UNL     1       0.692  54.050  25.316  0.00  0.00    +0.000 C 
ENDBRANCH  14  15
ENDBRANCH  12  14
ENDBRANCH   1  11
TORSDOF 5
ENDMDL
MODEL 6
REMARK VINA RESULT:      -4.3      1.984      6.615
REMARK  Name = 5357283_Methylferulate.pdbqt.pdb
REMARK  5 active torsions:
REMARK  status: ('A' for Active; 'I' for Inactive)
REMARK    1  A    between atoms: C_1  and  C_11
REMARK    2  A    between atoms: C_2  and  O_7
REMARK    3  A    between atoms: C_5  and  O_9
REMARK    4  A    between atoms: C_12  and  C_14
REMARK    5  A    between atoms: C_14  and  O_15
REMARK                            x       y       z     vdW  Elec       q    Type
REMARK                         _______ _______ _______ _____ _____    ______ ____
ROOT
ATOM      1  C   UNL     1      -5.717  48.035  25.644  0.00  0.00    +0.000 A 
ATOM      2  C   UNL     1      -3.593  48.087  26.812  0.00  0.00    +0.000 A 
ATOM      3  C   UNL     1      -4.764  48.724  26.392  0.00  0.00    +0.000 A 
ATOM      4  C   UNL     1      -5.509  46.699  25.309  0.00  0.00    +0.000 A 
ATOM      5  C   UNL     1      -3.398  46.747  26.468  0.00  0.00    +0.000 A 
ATOM      6  C   UNL     1      -4.348  46.053  25.721  0.00  0.00    +0.000 A 
ENDROOT
BRANCH   2   7
ATOM      7  O   UNL     1      -2.605  48.693  27.551  0.00  0.00    +0.000 OA
ATOM      8  C   UNL     1      -2.953  49.018  28.871  0.00  0.00    +0.000 C 
ENDBRANCH   2   7
BRANCH   5   9
ATOM      9  O   UNL     1      -2.258  46.106  26.871  0.00  0.00    +0.000 OA
ATOM     10  H   UNL     1      -1.662  46.017  26.105  0.00  0.00    +0.000 HD
ENDBRANCH   5   9
BRANCH   1  11
ATOM     11  C   UNL     1      -6.906  48.700  25.223  0.00  0.00    +0.000 C 
ATOM     12  C   UNL     1      -7.908  49.263  24.870  0.00  0.00    +0.000 C 
BRANCH  12  14
ATOM     13  O   UNL     1      -9.854  49.404  23.632  0.00  0.00    +0.000 OA
ATOM     14  C   UNL     1      -9.114  49.937  24.448  0.00  0.00    +0.000 C 
BRANCH  14  15
ATOM     15  O   UNL     1      -9.247  51.145  25.070  0.00  0.00    +0.000 OA
ATOM     16  C   UNL     1      -9.808  51.164  26.359  0.00  0.00    +0.000 C 
ENDBRANCH  14  15
ENDBRANCH  12  14
ENDBRANCH   1  11
TORSDOF 5
ENDMDL
MODEL 7
REMARK VINA RESULT:      -4.1     20.108     22.641
REMARK  Name = 5357283_Methylferulate.pdbqt.pdb
REMARK  5 active torsions:
REMARK  status: ('A' for Active; 'I' for Inactive)
REMARK    1  A    between atoms: C_1  and  C_11
REMARK    2  A    between atoms: C_2  and  O_7
REMARK    3  A    between atoms: C_5  and  O_9
REMARK    4  A    between atoms: C_12  and  C_14
REMARK    5  A    between atoms: C_14  and  O_15
REMARK                            x       y       z     vdW  Elec       q    Type
REMARK                         _______ _______ _______ _____ _____    ______ ____
ROOT
ATOM      1  C   UNL     1     -24.736  35.615  19.507  0.00  0.00    +0.000 A 
ATOM      2  C   UNL     1     -25.400  37.789  20.350  0.00  0.00    +0.000 A 
ATOM      3  C   UNL     1     -25.663  36.430  20.154  0.00  0.00    +0.000 A 
ATOM      4  C   UNL     1     -23.534  36.150  19.048  0.00  0.00    +0.000 A 
ATOM      5  C   UNL     1     -24.191  38.312  19.885  0.00  0.00    +0.000 A 
ATOM      6  C   UNL     1     -23.260  37.501  19.237  0.00  0.00    +0.000 A 
ENDROOT
BRANCH   2   7
ATOM      7  O   UNL     1     -26.258  38.661  20.977  0.00  0.00    +0.000 OA
ATOM      8  C   UNL     1     -26.366  38.503  22.368  0.00  0.00    +0.000 C 
ENDBRANCH   2   7
BRANCH   5   9
ATOM      9  O   UNL     1     -23.915  39.640  20.069  0.00  0.00    +0.000 OA
ATOM     10  H   UNL     1     -23.505  39.990  19.256  0.00  0.00    +0.000 HD
ENDBRANCH   5   9
BRANCH   1  11
ATOM     11  C   UNL     1     -25.021  34.231  19.314  0.00  0.00    +0.000 C 
ATOM     12  C   UNL     1     -25.261  33.064  19.150  0.00  0.00    +0.000 C 
BRANCH  12  14
ATOM     13  O   UNL     1     -26.164  31.307  17.950  0.00  0.00    +0.000 OA
ATOM     14  C   UNL     1     -25.553  31.664  18.949  0.00  0.00    +0.000 C 
BRANCH  14  15
ATOM     15  O   UNL     1     -25.068  30.907  19.977  0.00  0.00    +0.000 OA
ATOM     16  C   UNL     1     -23.716  30.523  19.931  0.00  0.00    +0.000 C 
ENDBRANCH  14  15
ENDBRANCH  12  14
ENDBRANCH   1  11
TORSDOF 5
ENDMDL
MODEL 8
REMARK VINA RESULT:      -4.0      5.313      8.476
REMARK  Name = 5357283_Methylferulate.pdbqt.pdb
REMARK  5 active torsions:
REMARK  status: ('A' for Active; 'I' for Inactive)
REMARK    1  A    between atoms: C_1  and  C_11
REMARK    2  A    between atoms: C_2  and  O_7
REMARK    3  A    between atoms: C_5  and  O_9
REMARK    4  A    between atoms: C_12  and  C_14
REMARK    5  A    between atoms: C_14  and  O_15
REMARK                            x       y       z     vdW  Elec       q    Type
REMARK                         _______ _______ _______ _____ _____    ______ ____
ROOT
ATOM      1  C   UNL     1      -0.501  44.758  29.664  0.00  0.00    +0.000 A 
ATOM      2  C   UNL     1      -2.313  45.862  28.489  0.00  0.00    +0.000 A 
ATOM      3  C   UNL     1      -1.863  45.008  29.500  0.00  0.00    +0.000 A 
ATOM      4  C   UNL     1       0.427  45.361  28.817  0.00  0.00    +0.000 A 
ATOM      5  C   UNL     1      -1.371  46.459  27.647  0.00  0.00    +0.000 A 
ATOM      6  C   UNL     1      -0.008  46.213  27.806  0.00  0.00    +0.000 A 
ENDROOT
BRANCH   2   7
ATOM      7  O   UNL     1      -3.634  46.161  28.260  0.00  0.00    +0.000 OA
ATOM      8  C   UNL     1      -4.404  45.115  27.726  0.00  0.00    +0.000 C 
ENDBRANCH   2   7
BRANCH   5   9
ATOM      9  O   UNL     1      -1.792  47.299  26.652  0.00  0.00    +0.000 OA
ATOM     10  H   UNL     1      -2.023  48.160  27.046  0.00  0.00    +0.000 HD
ENDBRANCH   5   9
BRANCH   1  11
ATOM     11  C   UNL     1      -0.060  43.884  30.700  0.00  0.00    +0.000 C 
ATOM     12  C   UNL     1       0.311  43.145  31.573  0.00  0.00    +0.000 C 
BRANCH  12  14
ATOM     13  O   UNL     1       1.863  42.404  33.117  0.00  0.00    +0.000 OA
ATOM     14  C   UNL     1       0.753  42.256  32.622  0.00  0.00    +0.000 C 
BRANCH  14  15
ATOM     15  O   UNL     1      -0.204  41.328  32.918  0.00  0.00    +0.000 OA
ATOM     16  C   UNL     1       0.192  39.982  33.010  0.00  0.00    +0.000 C 
ENDBRANCH  14  15
ENDBRANCH  12  14
ENDBRANCH   1  11
TORSDOF 5
ENDMDL
MODEL 9
REMARK VINA RESULT:      -4.0     19.195     21.411
REMARK  Name = 5357283_Methylferulate.pdbqt.pdb
REMARK  5 active torsions:
REMARK  status: ('A' for Active; 'I' for Inactive)
REMARK    1  A    between atoms: C_1  and  C_11
REMARK    2  A    between atoms: C_2  and  O_7
REMARK    3  A    between atoms: C_5  and  O_9
REMARK    4  A    between atoms: C_12  and  C_14
REMARK    5  A    between atoms: C_14  and  O_15
REMARK                            x       y       z     vdW  Elec       q    Type
REMARK                         _______ _______ _______ _____ _____    ______ ____
ROOT
ATOM      1  C   UNL     1     -24.561  38.083  19.752  0.00  0.00    +0.000 A 
ATOM      2  C   UNL     1     -25.683  35.933  19.771  0.00  0.00    +0.000 A 
ATOM      3  C   UNL     1     -25.700  37.314  19.988  0.00  0.00    +0.000 A 
ATOM      4  C   UNL     1     -23.391  37.478  19.297  0.00  0.00    +0.000 A 
ATOM      5  C   UNL     1     -24.503  35.340  19.315  0.00  0.00    +0.000 A 
ATOM      6  C   UNL     1     -23.361  36.105  19.077  0.00  0.00    +0.000 A 
ENDROOT
BRANCH   2   7
ATOM      7  O   UNL     1     -26.759  35.104  19.978  0.00  0.00    +0.000 OA
ATOM      8  C   UNL     1     -27.762  35.618  20.815  0.00  0.00    +0.000 C 
ENDBRANCH   2   7
BRANCH   5   9
ATOM      9  O   UNL     1     -24.467  33.990  19.096  0.00  0.00    +0.000 OA
ATOM     10  H   UNL     1     -25.001  33.787  18.306  0.00  0.00    +0.000 HD
ENDBRANCH   5   9
BRANCH   1  11
ATOM     11  C   UNL     1     -24.596  39.490  19.979  0.00  0.00    +0.000 C 
ATOM     12  C   UNL     1     -24.623  40.677  20.171  0.00  0.00    +0.000 C 
BRANCH  12  14
ATOM     13  O   UNL     1     -25.249  42.545  21.379  0.00  0.00    +0.000 OA
ATOM     14  C   UNL     1     -24.655  42.102  20.405  0.00  0.00    +0.000 C 
BRANCH  14  15
ATOM     15  O   UNL     1     -23.969  42.777  19.436  0.00  0.00    +0.000 OA
ATOM     16  C   UNL     1     -24.567  43.922  18.884  0.00  0.00    +0.000 C 
ENDBRANCH  14  15
ENDBRANCH  12  14
ENDBRANCH   1  11
TORSDOF 5
ENDMDL
