MODEL 1
REMARK VINA RESULT:      -7.1      0.000      0.000
REMARK  Name = 5358691_Yuanhuacine.pdbqt.pdb
REMARK  12 active torsions:
REMARK  status: ('A' for Active; 'I' for Inactive)
REMARK    1  A    between atoms: C_9  and  C_48
REMARK    2  A    between atoms: C_13  and  C_23
REMARK    3  A    between atoms: C_14  and  O_26
REMARK    4  A    between atoms: C_15  and  O_28
REMARK    5  A    between atoms: C_16  and  O_39
REMARK    6  A    between atoms: C_17  and  C_30
REMARK    7  A    between atoms: C_31  and  C_32
REMARK    8  A    between atoms: C_33  and  C_34
REMARK    9  A    between atoms: C_35  and  C_36
REMARK   10  A    between atoms: O_39  and  C_41
REMARK   11  A    between atoms: C_41  and  C_42
REMARK   12  A    between atoms: C_48  and  O_49
REMARK                            x       y       z     vdW  Elec       q    Type
REMARK                         _______ _______ _______ _____ _____    ______ ____
ROOT
ATOM      1  O   UNL     1      -0.509  49.656  28.247  0.00  0.00    +0.000 OA
ATOM      2  O   UNL     1      -2.607  47.305  29.774  0.00  0.00    +0.000 OA
ATOM      3  O   UNL     1      -1.449  46.446  27.889  0.00  0.00    +0.000 OA
ATOM      4  O   UNL     1      -3.473  45.531  28.458  0.00  0.00    +0.000 OA
ATOM      5  O   UNL     1      -3.745  53.033  30.536  0.00  0.00    +0.000 OA
ATOM      6  C   UNL     1      -2.447  48.477  27.651  0.00  0.00    +0.000 C 
ATOM      7  C   UNL     1      -3.177  48.405  29.000  0.00  0.00    +0.000 C 
ATOM      8  C   UNL     1      -1.451  49.440  27.274  0.00  0.00    +0.000 C 
ATOM      9  C   UNL     1      -1.123  50.812  27.663  0.00  0.00    +0.000 C 
ATOM     10  C   UNL     1      -2.416  47.105  27.131  0.00  0.00    +0.000 C 
ATOM     11  C   UNL     1      -2.997  49.653  29.809  0.00  0.00    +0.000 C 
ATOM     12  C   UNL     1      -4.681  48.095  28.736  0.00  0.00    +0.000 C 
ATOM     13  C   UNL     1      -3.729  46.292  27.244  0.00  0.00    +0.000 C 
ATOM     14  C   UNL     1      -3.248  51.019  29.210  0.00  0.00    +0.000 C 
ATOM     15  C   UNL     1      -2.109  51.615  28.436  0.00  0.00    +0.000 C 
ATOM     16  C   UNL     1      -4.902  47.176  27.631  0.00  0.00    +0.000 C 
ATOM     17  C   UNL     1      -2.293  46.122  28.999  0.00  0.00    +0.000 C 
ATOM     18  C   UNL     1      -3.040  49.766  31.222  0.00  0.00    +0.000 C 
ATOM     19  C   UNL     1      -5.853  48.469  29.643  0.00  0.00    +0.000 C 
ATOM     20  C   UNL     1      -3.489  51.832  30.525  0.00  0.00    +0.000 C 
ATOM     21  C   UNL     1      -3.337  50.924  31.709  0.00  0.00    +0.000 C 
ATOM     22  C   UNL     1      -3.020  51.344  33.107  0.00  0.00    +0.000 C 
ENDROOT
BRANCH  13  23
ATOM     23  C   UNL     1      -3.903  45.398  25.994  0.00  0.00    +0.000 C 
ATOM     24  C   UNL     1      -4.892  44.237  25.902  0.00  0.00    +0.000 C 
ATOM     25  C   UNL     1      -3.020  45.362  24.975  0.00  0.00    +0.000 C 
ENDBRANCH  13  23
BRANCH  14  26
ATOM     26  O   UNL     1      -4.384  51.008  28.372  0.00  0.00    +0.000 OA
ATOM     27  H   UNL     1      -4.161  51.527  27.574  0.00  0.00    +0.000 HD
ENDBRANCH  14  26
BRANCH  15  28
ATOM     28  O   UNL     1      -2.101  53.006  28.298  0.00  0.00    +0.000 OA
ATOM     29  H   UNL     1      -1.313  53.455  28.673  0.00  0.00    +0.000 HD
ENDBRANCH  15  28
BRANCH  17  30
ATOM     30  C   UNL     1      -1.621  45.158  29.864  0.00  0.00    +0.000 C 
ATOM     31  C   UNL     1      -1.070  44.363  30.575  0.00  0.00    +0.000 C 
BRANCH  31  32
ATOM     32  C   UNL     1      -0.367  43.348  31.480  0.00  0.00    +0.000 C 
ATOM     33  C   UNL     1       0.185  42.552  32.190  0.00  0.00    +0.000 C 
BRANCH  33  34
ATOM     34  C   UNL     1       0.889  41.535  33.093  0.00  0.00    +0.000 C 
ATOM     35  C   UNL     1       1.592  40.518  33.996  0.00  0.00    +0.000 C 
BRANCH  35  36
ATOM     36  C   UNL     1       2.295  39.499  34.899  0.00  0.00    +0.000 C 
ATOM     37  C   UNL     1       2.997  38.481  35.802  0.00  0.00    +0.000 C 
ATOM     38  C   UNL     1       3.698  37.463  36.707  0.00  0.00    +0.000 C 
ENDBRANCH  35  36
ENDBRANCH  33  34
ENDBRANCH  31  32
ENDBRANCH  17  30
BRANCH  16  39
ATOM     39  O   UNL     1      -6.178  47.141  27.044  0.00  0.00    +0.000 OA
BRANCH  39  41
ATOM     40  O   UNL     1      -5.446  48.669  25.490  0.00  0.00    +0.000 OA
ATOM     41  C   UNL     1      -6.325  47.973  25.971  0.00  0.00    +0.000 C 
BRANCH  41  42
ATOM     42  C   UNL     1      -7.719  47.950  25.493  0.00  0.00    +0.000 A 
ATOM     43  C   UNL     1      -8.709  47.233  26.164  0.00  0.00    +0.000 A 
ATOM     44  C   UNL     1      -8.034  48.671  24.342  0.00  0.00    +0.000 A 
ATOM     45  C   UNL     1     -10.016  47.237  25.681  0.00  0.00    +0.000 A 
ATOM     46  C   UNL     1      -9.341  48.674  23.862  0.00  0.00    +0.000 A 
ATOM     47  C   UNL     1     -10.331  47.957  24.532  0.00  0.00    +0.000 A 
ENDBRANCH  41  42
ENDBRANCH  39  41
ENDBRANCH  16  39
BRANCH   9  48
ATOM     48  C   UNL     1      -0.145  51.535  26.862  0.00  0.00    +0.000 C 
BRANCH  48  49
ATOM     49  O   UNL     1       0.747  52.191  26.125  0.00  0.00    +0.000 OA
ATOM     50  H   UNL     1       1.064  51.630  25.396  0.00  0.00    +0.000 HD
ENDBRANCH  48  49
ENDBRANCH   9  48
TORSDOF 12
ENDMDL
MODEL 2
REMARK VINA RESULT:      -6.8      3.334      8.986
REMARK  Name = 5358691_Yuanhuacine.pdbqt.pdb
REMARK  12 active torsions:
REMARK  status: ('A' for Active; 'I' for Inactive)
REMARK    1  A    between atoms: C_9  and  C_48
REMARK    2  A    between atoms: C_13  and  C_23
REMARK    3  A    between atoms: C_14  and  O_26
REMARK    4  A    between atoms: C_15  and  O_28
REMARK    5  A    between atoms: C_16  and  O_39
REMARK    6  A    between atoms: C_17  and  C_30
REMARK    7  A    between atoms: C_31  and  C_32
REMARK    8  A    between atoms: C_33  and  C_34
REMARK    9  A    between atoms: C_35  and  C_36
REMARK   10  A    between atoms: O_39  and  C_41
REMARK   11  A    between atoms: C_41  and  C_42
REMARK   12  A    between atoms: C_48  and  O_49
REMARK                            x       y       z     vdW  Elec       q    Type
REMARK                         _______ _______ _______ _____ _____    ______ ____
ROOT
ATOM      1  O   UNL     1      -0.304  48.406  31.481  0.00  0.00    +0.000 OA
ATOM      2  O   UNL     1      -1.039  48.807  28.081  0.00  0.00    +0.000 OA
ATOM      3  O   UNL     1      -2.042  50.458  29.460  0.00  0.00    +0.000 OA
ATOM      4  O   UNL     1      -3.052  49.909  27.476  0.00  0.00    +0.000 OA
ATOM      5  O   UNL     1       0.508  43.470  30.034  0.00  0.00    +0.000 OA
ATOM      6  C   UNL     1      -2.226  48.295  30.140  0.00  0.00    +0.000 C 
ATOM      7  C   UNL     1      -1.647  47.717  28.840  0.00  0.00    +0.000 C 
ATOM      8  C   UNL     1      -1.656  48.173  31.452  0.00  0.00    +0.000 C 
ATOM      9  C   UNL     1      -0.777  47.216  32.126  0.00  0.00    +0.000 C 
ATOM     10  C   UNL     1      -2.994  49.483  29.751  0.00  0.00    +0.000 C 
ATOM     11  C   UNL     1      -0.572  46.707  29.100  0.00  0.00    +0.000 C 
ATOM     12  C   UNL     1      -2.815  47.119  27.999  0.00  0.00    +0.000 C 
ATOM     13  C   UNL     1      -3.907  49.341  28.508  0.00  0.00    +0.000 C 
ATOM     14  C   UNL     1      -0.784  45.565  30.070  0.00  0.00    +0.000 C 
ATOM     15  C   UNL     1      -0.537  45.880  31.516  0.00  0.00    +0.000 C 
ATOM     16  C   UNL     1      -4.046  47.890  28.080  0.00  0.00    +0.000 C 
ATOM     17  C   UNL     1      -1.783  50.050  28.112  0.00  0.00    +0.000 C 
ATOM     18  C   UNL     1       0.509  46.374  28.244  0.00  0.00    +0.000 C 
ATOM     19  C   UNL     1      -2.704  45.994  26.970  0.00  0.00    +0.000 C 
ATOM     20  C   UNL     1       0.306  44.576  29.540  0.00  0.00    +0.000 C 
ATOM     21  C   UNL     1       1.036  45.205  28.391  0.00  0.00    +0.000 C 
ATOM     22  C   UNL     1       2.403  44.844  27.910  0.00  0.00    +0.000 C 
ENDROOT
BRANCH  13  23
ATOM     23  C   UNL     1      -5.213  50.140  28.720  0.00  0.00    +0.000 C 
ATOM     24  C   UNL     1      -6.144  49.960  29.918  0.00  0.00    +0.000 C 
ATOM     25  C   UNL     1      -5.810  50.863  27.750  0.00  0.00    +0.000 C 
ENDBRANCH  13  23
BRANCH  14  26
ATOM     26  O   UNL     1      -2.088  45.036  29.957  0.00  0.00    +0.000 OA
ATOM     27  H   UNL     1      -2.364  45.141  29.025  0.00  0.00    +0.000 HD
ENDBRANCH  14  26
BRANCH  15  28
ATOM     28  O   UNL     1      -0.241  44.801  32.354  0.00  0.00    +0.000 OA
ATOM     29  H   UNL     1      -0.521  44.912  33.287  0.00  0.00    +0.000 HD
ENDBRANCH  15  28
BRANCH  17  30
ATOM     30  C   UNL     1      -1.008  51.078  27.425  0.00  0.00    +0.000 C 
ATOM     31  C   UNL     1      -0.370  51.923  26.859  0.00  0.00    +0.000 C 
BRANCH  31  32
ATOM     32  C   UNL     1       0.442  52.999  26.136  0.00  0.00    +0.000 C 
ATOM     33  C   UNL     1       1.079  53.844  25.567  0.00  0.00    +0.000 C 
BRANCH  33  34
ATOM     34  C   UNL     1       1.890  54.921  24.840  0.00  0.00    +0.000 C 
ATOM     35  C   UNL     1       2.702  55.996  24.113  0.00  0.00    +0.000 C 
BRANCH  35  36
ATOM     36  C   UNL     1       3.513  57.072  23.383  0.00  0.00    +0.000 C 
ATOM     37  C   UNL     1       4.323  58.149  22.656  0.00  0.00    +0.000 C 
ATOM     38  C   UNL     1       5.134  59.226  21.928  0.00  0.00    +0.000 C 
ENDBRANCH  35  36
ENDBRANCH  33  34
ENDBRANCH  31  32
ENDBRANCH  17  30
BRANCH  16  39
ATOM     39  O   UNL     1      -5.247  47.258  27.718  0.00  0.00    +0.000 OA
BRANCH  39  41
ATOM     40  O   UNL     1      -4.981  47.899  25.528  0.00  0.00    +0.000 OA
ATOM     41  C   UNL     1      -5.688  47.567  26.463  0.00  0.00    +0.000 C 
BRANCH  41  42
ATOM     42  C   UNL     1      -7.159  47.486  26.403  0.00  0.00    +0.000 A 
ATOM     43  C   UNL     1      -7.952  47.791  27.509  0.00  0.00    +0.000 A 
ATOM     44  C   UNL     1      -7.750  47.095  25.203  0.00  0.00    +0.000 A 
ATOM     45  C   UNL     1      -9.339  47.704  27.412  0.00  0.00    +0.000 A 
ATOM     46  C   UNL     1      -9.136  47.010  25.109  0.00  0.00    +0.000 A 
ATOM     47  C   UNL     1      -9.930  47.314  26.213  0.00  0.00    +0.000 A 
ENDBRANCH  41  42
ENDBRANCH  39  41
ENDBRANCH  16  39
BRANCH   9  48
ATOM     48  C   UNL     1      -0.609  47.339  33.567  0.00  0.00    +0.000 C 
BRANCH  48  49
ATOM     49  O   UNL     1      -0.462  47.452  34.884  0.00  0.00    +0.000 OA
ATOM     50  H   UNL     1       0.479  47.550  35.114  0.00  0.00    +0.000 HD
ENDBRANCH  48  49
ENDBRANCH   9  48
TORSDOF 12
ENDMDL
MODEL 3
REMARK VINA RESULT:      -6.8      4.088      9.524
REMARK  Name = 5358691_Yuanhuacine.pdbqt.pdb
REMARK  12 active torsions:
REMARK  status: ('A' for Active; 'I' for Inactive)
REMARK    1  A    between atoms: C_9  and  C_48
REMARK    2  A    between atoms: C_13  and  C_23
REMARK    3  A    between atoms: C_14  and  O_26
REMARK    4  A    between atoms: C_15  and  O_28
REMARK    5  A    between atoms: C_16  and  O_39
REMARK    6  A    between atoms: C_17  and  C_30
REMARK    7  A    between atoms: C_31  and  C_32
REMARK    8  A    between atoms: C_33  and  C_34
REMARK    9  A    between atoms: C_35  and  C_36
REMARK   10  A    between atoms: O_39  and  C_41
REMARK   11  A    between atoms: C_41  and  C_42
REMARK   12  A    between atoms: C_48  and  O_49
REMARK                            x       y       z     vdW  Elec       q    Type
REMARK                         _______ _______ _______ _____ _____    ______ ____
ROOT
ATOM      1  O   UNL     1       0.898  49.455  31.840  0.00  0.00    +0.000 OA
ATOM      2  O   UNL     1       0.546  49.118  28.373  0.00  0.00    +0.000 OA
ATOM      3  O   UNL     1      -1.129  50.480  29.360  0.00  0.00    +0.000 OA
ATOM      4  O   UNL     1      -1.616  49.354  27.423  0.00  0.00    +0.000 OA
ATOM      5  O   UNL     1       3.500  44.973  31.334  0.00  0.00    +0.000 OA
ATOM      6  C   UNL     1      -0.673  48.500  30.383  0.00  0.00    +0.000 C 
ATOM      7  C   UNL     1       0.238  47.995  29.255  0.00  0.00    +0.000 C 
ATOM      8  C   UNL     1      -0.281  48.761  31.740  0.00  0.00    +0.000 C 
ATOM      9  C   UNL     1       0.765  48.271  32.638  0.00  0.00    +0.000 C 
ATOM     10  C   UNL     1      -1.732  49.280  29.733  0.00  0.00    +0.000 C 
ATOM     11  C   UNL     1       1.542  47.471  29.773  0.00  0.00    +0.000 C 
ATOM     12  C   UNL     1      -0.537  46.920  28.434  0.00  0.00    +0.000 C 
ATOM     13  C   UNL     1      -2.365  48.664  28.462  0.00  0.00    +0.000 C 
ATOM     14  C   UNL     1       1.591  46.467  30.902  0.00  0.00    +0.000 C 
ATOM     15  C   UNL     1       1.519  47.036  32.289  0.00  0.00    +0.000 C 
ATOM     16  C   UNL     1      -1.953  47.213  28.280  0.00  0.00    +0.000 C 
ATOM     17  C   UNL     1      -0.567  50.014  28.128  0.00  0.00    +0.000 C 
ATOM     18  C   UNL     1       2.779  47.428  29.079  0.00  0.00    +0.000 C 
ATOM     19  C   UNL     1       0.084  45.780  27.626  0.00  0.00    +0.000 C 
ATOM     20  C   UNL     1       3.011  45.862  30.643  0.00  0.00    +0.000 C 
ATOM     21  C   UNL     1       3.640  46.549  29.468  0.00  0.00    +0.000 C 
ATOM     22  C   UNL     1       5.102  46.630  29.171  0.00  0.00    +0.000 C 
ENDROOT
BRANCH  13  23
ATOM     23  C   UNL     1      -3.880  48.975  28.424  0.00  0.00    +0.000 C 
ATOM     24  C   UNL     1      -4.545  49.872  27.382  0.00  0.00    +0.000 C 
ATOM     25  C   UNL     1      -4.717  48.726  29.452  0.00  0.00    +0.000 C 
ENDBRANCH  13  23
BRANCH  14  26
ATOM     26  O   UNL     1       0.568  45.503  30.774  0.00  0.00    +0.000 OA
ATOM     27  H   UNL     1       0.814  44.741  31.335  0.00  0.00    +0.000 HD
ENDBRANCH  14  26
BRANCH  15  28
ATOM     28  O   UNL     1       2.040  46.251  33.321  0.00  0.00    +0.000 OA
ATOM     29  H   UNL     1       1.380  45.938  33.976  0.00  0.00    +0.000 HD
ENDBRANCH  15  28
BRANCH  17  30
ATOM     30  C   UNL     1      -0.093  51.148  27.342  0.00  0.00    +0.000 C 
ATOM     31  C   UNL     1       0.295  52.082  26.695  0.00  0.00    +0.000 C 
BRANCH  31  32
ATOM     32  C   UNL     1       0.789  53.273  25.870  0.00  0.00    +0.000 C 
ATOM     33  C   UNL     1       1.177  54.207  25.223  0.00  0.00    +0.000 C 
BRANCH  33  34
ATOM     34  C   UNL     1       1.673  55.398  24.397  0.00  0.00    +0.000 C 
ATOM     35  C   UNL     1       2.170  56.587  23.571  0.00  0.00    +0.000 C 
BRANCH  35  36
ATOM     36  C   UNL     1       2.669  57.777  22.745  0.00  0.00    +0.000 C 
ATOM     37  C   UNL     1       3.168  58.966  21.919  0.00  0.00    +0.000 C 
ATOM     38  C   UNL     1       3.668  60.156  21.093  0.00  0.00    +0.000 C 
ENDBRANCH  35  36
ENDBRANCH  33  34
ENDBRANCH  31  32
ENDBRANCH  17  30
BRANCH  16  39
ATOM     39  O   UNL     1      -2.813  46.158  27.933  0.00  0.00    +0.000 OA
BRANCH  39  41
ATOM     40  O   UNL     1      -2.498  46.159  25.656  0.00  0.00    +0.000 OA
ATOM     41  C   UNL     1      -3.229  46.177  26.632  0.00  0.00    +0.000 C 
BRANCH  41  42
ATOM     42  C   UNL     1      -4.699  46.267  26.567  0.00  0.00    +0.000 A 
ATOM     43  C   UNL     1      -5.346  46.855  25.480  0.00  0.00    +0.000 A 
ATOM     44  C   UNL     1      -5.440  45.743  27.625  0.00  0.00    +0.000 A 
ATOM     45  C   UNL     1      -6.737  46.920  25.454  0.00  0.00    +0.000 A 
ATOM     46  C   UNL     1      -6.831  45.809  27.596  0.00  0.00    +0.000 A 
ATOM     47  C   UNL     1      -7.478  46.397  26.511  0.00  0.00    +0.000 A 
ENDBRANCH  41  42
ENDBRANCH  39  41
ENDBRANCH  16  39
BRANCH   9  48
ATOM     48  C   UNL     1       0.683  48.635  34.046  0.00  0.00    +0.000 C 
BRANCH  48  49
ATOM     49  O   UNL     1       0.611  48.974  35.330  0.00  0.00    +0.000 OA
ATOM     50  H   UNL     1       0.360  49.909  35.422  0.00  0.00    +0.000 HD
ENDBRANCH  48  49
ENDBRANCH   9  48
TORSDOF 12
ENDMDL
MODEL 4
REMARK VINA RESULT:      -6.5      2.091      6.492
REMARK  Name = 5358691_Yuanhuacine.pdbqt.pdb
REMARK  12 active torsions:
REMARK  status: ('A' for Active; 'I' for Inactive)
REMARK    1  A    between atoms: C_9  and  C_48
REMARK    2  A    between atoms: C_13  and  C_23
REMARK    3  A    between atoms: C_14  and  O_26
REMARK    4  A    between atoms: C_15  and  O_28
REMARK    5  A    between atoms: C_16  and  O_39
REMARK    6  A    between atoms: C_17  and  C_30
REMARK    7  A    between atoms: C_31  and  C_32
REMARK    8  A    between atoms: C_33  and  C_34
REMARK    9  A    between atoms: C_35  and  C_36
REMARK   10  A    between atoms: O_39  and  C_41
REMARK   11  A    between atoms: C_41  and  C_42
REMARK   12  A    between atoms: C_48  and  O_49
REMARK                            x       y       z     vdW  Elec       q    Type
REMARK                         _______ _______ _______ _____ _____    ______ ____
ROOT
ATOM      1  O   UNL     1      -5.815  46.934  30.153  0.00  0.00    +0.000 OA
ATOM      2  O   UNL     1      -2.403  46.418  29.556  0.00  0.00    +0.000 OA
ATOM      3  O   UNL     1      -2.878  47.074  31.787  0.00  0.00    +0.000 OA
ATOM      4  O   UNL     1      -0.827  47.581  30.895  0.00  0.00    +0.000 OA
ATOM      5  O   UNL     1      -5.916  47.675  24.999  0.00  0.00    +0.000 OA
ATOM      6  C   UNL     1      -3.881  48.262  30.125  0.00  0.00    +0.000 C 
ATOM      7  C   UNL     1      -3.076  47.591  29.003  0.00  0.00    +0.000 C 
ATOM      8  C   UNL     1      -5.304  48.197  30.307  0.00  0.00    +0.000 C 
ATOM      9  C   UNL     1      -6.461  47.993  29.433  0.00  0.00    +0.000 C 
ATOM     10  C   UNL     1      -2.971  48.366  31.272  0.00  0.00    +0.000 C 
ATOM     11  C   UNL     1      -3.953  47.111  27.887  0.00  0.00    +0.000 C 
ATOM     12  C   UNL     1      -1.993  48.592  28.501  0.00  0.00    +0.000 C 
ATOM     13  C   UNL     1      -1.532  48.852  30.972  0.00  0.00    +0.000 C 
ATOM     14  C   UNL     1      -4.982  48.019  27.251  0.00  0.00    +0.000 C 
ATOM     15  C   UNL     1      -6.302  48.111  27.958  0.00  0.00    +0.000 C 
ATOM     16  C   UNL     1      -1.410  49.400  29.561  0.00  0.00    +0.000 C 
ATOM     17  C   UNL     1      -1.867  46.604  30.888  0.00  0.00    +0.000 C 
ATOM     18  C   UNL     1      -3.690  46.037  26.998  0.00  0.00    +0.000 C 
ATOM     19  C   UNL     1      -1.363  48.618  27.108  0.00  0.00    +0.000 C 
ATOM     20  C   UNL     1      -5.156  47.284  25.881  0.00  0.00    +0.000 C 
ATOM     21  C   UNL     1      -4.284  46.064  25.853  0.00  0.00    +0.000 C 
ATOM     22  C   UNL     1      -4.475  44.863  24.986  0.00  0.00    +0.000 C 
ENDROOT
BRANCH  13  23
ATOM     23  C   UNL     1      -1.030  49.754  32.124  0.00  0.00    +0.000 C 
ATOM     24  C   UNL     1       0.433  49.865  32.550  0.00  0.00    +0.000 C 
ATOM     25  C   UNL     1      -1.845  50.308  33.045  0.00  0.00    +0.000 C 
ENDBRANCH  13  23
BRANCH  14  26
ATOM     26  O   UNL     1      -4.479  49.329  27.096  0.00  0.00    +0.000 OA
ATOM     27  H   UNL     1      -3.524  49.252  26.901  0.00  0.00    +0.000 HD
ENDBRANCH  14  26
BRANCH  15  28
ATOM     28  O   UNL     1      -7.401  48.510  27.193  0.00  0.00    +0.000 OA
ATOM     29  H   UNL     1      -7.398  49.455  26.927  0.00  0.00    +0.000 HD
ENDBRANCH  15  28
BRANCH  17  30
ATOM     30  C   UNL     1      -1.338  45.330  31.365  0.00  0.00    +0.000 C 
ATOM     31  C   UNL     1      -0.902  44.282  31.755  0.00  0.00    +0.000 C 
BRANCH  31  32
ATOM     32  C   UNL     1      -0.344  42.945  32.251  0.00  0.00    +0.000 C 
ATOM     33  C   UNL     1       0.092  41.897  32.640  0.00  0.00    +0.000 C 
BRANCH  33  34
ATOM     34  C   UNL     1       0.648  40.557  33.134  0.00  0.00    +0.000 C 
ATOM     35  C   UNL     1       1.204  39.220  33.629  0.00  0.00    +0.000 C 
BRANCH  35  36
ATOM     36  C   UNL     1       1.759  37.881  34.126  0.00  0.00    +0.000 C 
ATOM     37  C   UNL     1       2.314  36.543  34.623  0.00  0.00    +0.000 C 
ATOM     38  C   UNL     1       2.867  35.203  35.119  0.00  0.00    +0.000 C 
ENDBRANCH  35  36
ENDBRANCH  33  34
ENDBRANCH  31  32
ENDBRANCH  17  30
BRANCH  16  39
ATOM     39  O   UNL     1      -0.749  50.586  29.201  0.00  0.00    +0.000 OA
BRANCH  39  41
ATOM     40  O   UNL     1      -2.714  51.762  29.378  0.00  0.00    +0.000 OA
ATOM     41  C   UNL     1      -1.580  51.639  28.948  0.00  0.00    +0.000 C 
BRANCH  41  42
ATOM     42  C   UNL     1      -0.930  52.597  28.036  0.00  0.00    +0.000 A 
ATOM     43  C   UNL     1      -0.998  53.973  28.254  0.00  0.00    +0.000 A 
ATOM     44  C   UNL     1      -0.235  52.095  26.937  0.00  0.00    +0.000 A 
ATOM     45  C   UNL     1      -0.368  54.847  27.371  0.00  0.00    +0.000 A 
ATOM     46  C   UNL     1       0.393  52.971  26.055  0.00  0.00    +0.000 A 
ATOM     47  C   UNL     1       0.326  54.345  26.273  0.00  0.00    +0.000 A 
ENDBRANCH  41  42
ENDBRANCH  39  41
ENDBRANCH  16  39
BRANCH   9  48
ATOM     48  C   UNL     1      -7.787  48.225  29.989  0.00  0.00    +0.000 C 
BRANCH  48  49
ATOM     49  O   UNL     1      -8.996  48.444  30.498  0.00  0.00    +0.000 OA
ATOM     50  H   UNL     1      -9.098  47.979  31.346  0.00  0.00    +0.000 HD
ENDBRANCH  48  49
ENDBRANCH   9  48
TORSDOF 12
ENDMDL
MODEL 5
REMARK VINA RESULT:      -6.5     21.619     26.941
REMARK  Name = 5358691_Yuanhuacine.pdbqt.pdb
REMARK  12 active torsions:
REMARK  status: ('A' for Active; 'I' for Inactive)
REMARK    1  A    between atoms: C_9  and  C_48
REMARK    2  A    between atoms: C_13  and  C_23
REMARK    3  A    between atoms: C_14  and  O_26
REMARK    4  A    between atoms: C_15  and  O_28
REMARK    5  A    between atoms: C_16  and  O_39
REMARK    6  A    between atoms: C_17  and  C_30
REMARK    7  A    between atoms: C_31  and  C_32
REMARK    8  A    between atoms: C_33  and  C_34
REMARK    9  A    between atoms: C_35  and  C_36
REMARK   10  A    between atoms: O_39  and  C_41
REMARK   11  A    between atoms: C_41  and  C_42
REMARK   12  A    between atoms: C_48  and  O_49
REMARK                            x       y       z     vdW  Elec       q    Type
REMARK                         _______ _______ _______ _____ _____    ______ ____
ROOT
ATOM      1  O   UNL     1     -24.148  44.230  20.308  0.00  0.00    +0.000 OA
ATOM      2  O   UNL     1     -27.469  43.180  19.956  0.00  0.00    +0.000 OA
ATOM      3  O   UNL     1     -26.312  42.066  21.703  0.00  0.00    +0.000 OA
ATOM      4  O   UNL     1     -28.050  40.991  20.663  0.00  0.00    +0.000 OA
ATOM      5  O   UNL     1     -24.765  45.616  15.326  0.00  0.00    +0.000 OA
ATOM      6  C   UNL     1     -25.240  42.244  19.704  0.00  0.00    +0.000 C 
ATOM      7  C   UNL     1     -26.469  42.794  18.964  0.00  0.00    +0.000 C 
ATOM      8  C   UNL     1     -23.994  42.926  19.908  0.00  0.00    +0.000 C 
ATOM      9  C   UNL     1     -23.255  43.982  19.213  0.00  0.00    +0.000 C 
ATOM     10  C   UNL     1     -25.755  41.287  20.691  0.00  0.00    +0.000 C 
ATOM     11  C   UNL     1     -26.145  44.019  18.164  0.00  0.00    +0.000 C 
ATOM     12  C   UNL     1     -27.064  41.660  18.076  0.00  0.00    +0.000 C 
ATOM     13  C   UNL     1     -26.850  40.309  20.201  0.00  0.00    +0.000 C 
ATOM     14  C   UNL     1     -24.970  44.047  17.212  0.00  0.00    +0.000 C 
ATOM     15  C   UNL     1     -23.638  44.361  17.826  0.00  0.00    +0.000 C 
ATOM     16  C   UNL     1     -26.995  40.343  18.689  0.00  0.00    +0.000 C 
ATOM     17  C   UNL     1     -27.585  42.273  21.079  0.00  0.00    +0.000 C 
ATOM     18  C   UNL     1     -27.036  45.065  17.811  0.00  0.00    +0.000 C 
ATOM     19  C   UNL     1     -27.881  41.848  16.798  0.00  0.00    +0.000 C 
ATOM     20  C   UNL     1     -25.425  45.221  16.284  0.00  0.00    +0.000 C 
ATOM     21  C   UNL     1     -26.737  45.762  16.767  0.00  0.00    +0.000 C 
ATOM     22  C   UNL     1     -27.285  47.125  16.493  0.00  0.00    +0.000 C 
ENDROOT
BRANCH  13  23
ATOM     23  C   UNL     1     -26.650  38.923  20.857  0.00  0.00    +0.000 C 
ATOM     24  C   UNL     1     -27.768  37.900  21.058  0.00  0.00    +0.000 C 
ATOM     25  C   UNL     1     -25.555  38.587  21.569  0.00  0.00    +0.000 C 
ENDBRANCH  13  23
BRANCH  14  26
ATOM     26  O   UNL     1     -24.851  42.827  16.513  0.00  0.00    +0.000 OA
ATOM     27  H   UNL     1     -24.067  42.364  16.869  0.00  0.00    +0.000 HD
ENDBRANCH  14  26
BRANCH  15  28
ATOM     28  O   UNL     1     -22.656  44.871  16.973  0.00  0.00    +0.000 OA
ATOM     29  H   UNL     1     -22.965  45.567  16.354  0.00  0.00    +0.000 HD
ENDBRANCH  15  28
BRANCH  17  30
ATOM     30  C   UNL     1     -28.521  42.838  22.046  0.00  0.00    +0.000 C 
ATOM     31  C   UNL     1     -29.290  43.301  22.842  0.00  0.00    +0.000 C 
BRANCH  31  32
ATOM     32  C   UNL     1     -30.270  43.893  23.859  0.00  0.00    +0.000 C 
ATOM     33  C   UNL     1     -31.038  44.358  24.655  0.00  0.00    +0.000 C 
BRANCH  33  34
ATOM     34  C   UNL     1     -32.018  44.954  25.671  0.00  0.00    +0.000 C 
ATOM     35  C   UNL     1     -32.998  45.549  26.685  0.00  0.00    +0.000 C 
BRANCH  35  36
ATOM     36  C   UNL     1     -33.981  46.144  27.699  0.00  0.00    +0.000 C 
ATOM     37  C   UNL     1     -34.963  46.739  28.713  0.00  0.00    +0.000 C 
ATOM     38  C   UNL     1     -35.946  47.335  29.726  0.00  0.00    +0.000 C 
ENDBRANCH  35  36
ENDBRANCH  33  34
ENDBRANCH  31  32
ENDBRANCH  17  30
BRANCH  16  39
ATOM     39  O   UNL     1     -27.111  39.218  17.855  0.00  0.00    +0.000 OA
BRANCH  39  41
ATOM     40  O   UNL     1     -25.605  39.386  16.128  0.00  0.00    +0.000 OA
ATOM     41  C   UNL     1     -25.966  38.896  17.184  0.00  0.00    +0.000 C 
BRANCH  41  42
ATOM     42  C   UNL     1     -25.239  37.829  17.895  0.00  0.00    +0.000 A 
ATOM     43  C   UNL     1     -25.833  36.596  18.165  0.00  0.00    +0.000 A 
ATOM     44  C   UNL     1     -23.927  38.078  18.296  0.00  0.00    +0.000 A 
ATOM     45  C   UNL     1     -25.112  35.612  18.838  0.00  0.00    +0.000 A 
ATOM     46  C   UNL     1     -23.209  37.092  18.968  0.00  0.00    +0.000 A 
ATOM     47  C   UNL     1     -23.802  35.861  19.239  0.00  0.00    +0.000 A 
ENDBRANCH  41  42
ENDBRANCH  39  41
ENDBRANCH  16  39
BRANCH   9  48
ATOM     48  C   UNL     1     -21.884  44.244  19.630  0.00  0.00    +0.000 C 
BRANCH  48  49
ATOM     49  O   UNL     1     -20.631  44.487  20.005  0.00  0.00    +0.000 OA
ATOM     50  H   UNL     1     -20.607  45.193  20.674  0.00  0.00    +0.000 HD
ENDBRANCH  48  49
ENDBRANCH   9  48
TORSDOF 12
ENDMDL
MODEL 6
REMARK VINA RESULT:      -6.2      3.889      8.942
REMARK  Name = 5358691_Yuanhuacine.pdbqt.pdb
REMARK  12 active torsions:
REMARK  status: ('A' for Active; 'I' for Inactive)
REMARK    1  A    between atoms: C_9  and  C_48
REMARK    2  A    between atoms: C_13  and  C_23
REMARK    3  A    between atoms: C_14  and  O_26
REMARK    4  A    between atoms: C_15  and  O_28
REMARK    5  A    between atoms: C_16  and  O_39
REMARK    6  A    between atoms: C_17  and  C_30
REMARK    7  A    between atoms: C_31  and  C_32
REMARK    8  A    between atoms: C_33  and  C_34
REMARK    9  A    between atoms: C_35  and  C_36
REMARK   10  A    between atoms: O_39  and  C_41
REMARK   11  A    between atoms: C_41  and  C_42
REMARK   12  A    between atoms: C_48  and  O_49
REMARK                            x       y       z     vdW  Elec       q    Type
REMARK                         _______ _______ _______ _____ _____    ______ ____
ROOT
ATOM      1  O   UNL     1       0.289  48.383  31.706  0.00  0.00    +0.000 OA
ATOM      2  O   UNL     1       0.436  49.120  28.286  0.00  0.00    +0.000 OA
ATOM      3  O   UNL     1      -0.473  50.883  29.589  0.00  0.00    +0.000 OA
ATOM      4  O   UNL     1      -1.107  50.686  27.394  0.00  0.00    +0.000 OA
ATOM      5  O   UNL     1       0.333  43.476  29.965  0.00  0.00    +0.000 OA
ATOM      6  C   UNL     1      -1.262  48.788  29.993  0.00  0.00    +0.000 C 
ATOM      7  C   UNL     1      -0.544  48.161  28.789  0.00  0.00    +0.000 C 
ATOM      8  C   UNL     1      -1.040  48.470  31.376  0.00  0.00    +0.000 C 
ATOM      9  C   UNL     1      -0.559  47.302  32.115  0.00  0.00    +0.000 C 
ATOM     10  C   UNL     1      -1.652  50.140  29.576  0.00  0.00    +0.000 C 
ATOM     11  C   UNL     1       0.205  46.918  29.162  0.00  0.00    +0.000 C 
ATOM     12  C   UNL     1      -1.594  47.893  27.669  0.00  0.00    +0.000 C 
ATOM     13  C   UNL     1      -2.272  50.276  28.164  0.00  0.00    +0.000 C 
ATOM     14  C   UNL     1      -0.457  45.808  29.946  0.00  0.00    +0.000 C 
ATOM     15  C   UNL     1      -0.479  45.980  31.436  0.00  0.00    +0.000 C 
ATOM     16  C   UNL     1      -2.618  48.921  27.572  0.00  0.00    +0.000 C 
ATOM     17  C   UNL     1      -0.013  50.497  28.289  0.00  0.00    +0.000 C 
ATOM     18  C   UNL     1       1.354  46.391  28.518  0.00  0.00    +0.000 C 
ATOM     19  C   UNL     1      -1.497  46.828  26.576  0.00  0.00    +0.000 C 
ATOM     20  C   UNL     1       0.488  44.623  29.555  0.00  0.00    +0.000 C 
ATOM     21  C   UNL     1       1.573  45.126  28.651  0.00  0.00    +0.000 C 
ATOM     22  C   UNL     1       2.904  44.485  28.428  0.00  0.00    +0.000 C 
ENDROOT
BRANCH  13  23
ATOM     23  C   UNL     1      -3.392  51.343  28.182  0.00  0.00    +0.000 C 
ATOM     24  C   UNL     1      -3.208  52.770  28.696  0.00  0.00    +0.000 C 
ATOM     25  C   UNL     1      -4.699  51.054  28.017  0.00  0.00    +0.000 C 
ENDBRANCH  13  23
BRANCH  14  26
ATOM     26  O   UNL     1      -1.785  45.599  29.513  0.00  0.00    +0.000 OA
ATOM     27  H   UNL     1      -2.334  46.303  29.911  0.00  0.00    +0.000 HD
ENDBRANCH  14  26
BRANCH  15  28
ATOM     28  O   UNL     1      -0.614  44.820  32.203  0.00  0.00    +0.000 OA
ATOM     29  H   UNL     1       0.230  44.419  32.501  0.00  0.00    +0.000 HD
ENDBRANCH  15  28
BRANCH  17  30
ATOM     30  C   UNL     1       1.097  51.354  27.884  0.00  0.00    +0.000 C 
ATOM     31  C   UNL     1       2.011  52.058  27.554  0.00  0.00    +0.000 C 
BRANCH  31  32
ATOM     32  C   UNL     1       3.178  52.956  27.132  0.00  0.00    +0.000 C 
ATOM     33  C   UNL     1       4.092  53.660  26.802  0.00  0.00    +0.000 C 
BRANCH  33  34
ATOM     34  C   UNL     1       5.257  54.560  26.379  0.00  0.00    +0.000 C 
ATOM     35  C   UNL     1       6.422  55.459  25.958  0.00  0.00    +0.000 C 
BRANCH  35  36
ATOM     36  C   UNL     1       7.589  56.359  25.535  0.00  0.00    +0.000 C 
ATOM     37  C   UNL     1       8.754  57.258  25.112  0.00  0.00    +0.000 C 
ATOM     38  C   UNL     1       9.920  58.158  24.690  0.00  0.00    +0.000 C 
ENDBRANCH  35  36
ENDBRANCH  33  34
ENDBRANCH  31  32
ENDBRANCH  17  30
BRANCH  16  39
ATOM     39  O   UNL     1      -3.814  48.602  26.908  0.00  0.00    +0.000 OA
BRANCH  39  41
ATOM     40  O   UNL     1      -4.411  47.309  28.711  0.00  0.00    +0.000 OA
ATOM     41  C   UNL     1      -4.656  47.797  27.621  0.00  0.00    +0.000 C 
BRANCH  41  42
ATOM     42  C   UNL     1      -5.898  47.558  26.865  0.00  0.00    +0.000 A 
ATOM     43  C   UNL     1      -6.073  48.052  25.572  0.00  0.00    +0.000 A 
ATOM     44  C   UNL     1      -6.910  46.817  27.475  0.00  0.00    +0.000 A 
ATOM     45  C   UNL     1      -7.261  47.803  24.890  0.00  0.00    +0.000 A 
ATOM     46  C   UNL     1      -8.096  46.570  26.790  0.00  0.00    +0.000 A 
ATOM     47  C   UNL     1      -8.272  47.063  25.499  0.00  0.00    +0.000 A 
ENDBRANCH  41  42
ENDBRANCH  39  41
ENDBRANCH  16  39
BRANCH   9  48
ATOM     48  C   UNL     1      -0.695  47.307  33.565  0.00  0.00    +0.000 C 
BRANCH  48  49
ATOM     49  O   UNL     1      -0.824  47.318  34.889  0.00  0.00    +0.000 OA
ATOM     50  H   UNL     1      -1.592  46.786  35.161  0.00  0.00    +0.000 HD
ENDBRANCH  48  49
ENDBRANCH   9  48
TORSDOF 12
ENDMDL
MODEL 7
REMARK VINA RESULT:      -5.9     27.359     30.264
REMARK  Name = 5358691_Yuanhuacine.pdbqt.pdb
REMARK  12 active torsions:
REMARK  status: ('A' for Active; 'I' for Inactive)
REMARK    1  A    between atoms: C_9  and  C_48
REMARK    2  A    between atoms: C_13  and  C_23
REMARK    3  A    between atoms: C_14  and  O_26
REMARK    4  A    between atoms: C_15  and  O_28
REMARK    5  A    between atoms: C_16  and  O_39
REMARK    6  A    between atoms: C_17  and  C_30
REMARK    7  A    between atoms: C_31  and  C_32
REMARK    8  A    between atoms: C_33  and  C_34
REMARK    9  A    between atoms: C_35  and  C_36
REMARK   10  A    between atoms: O_39  and  C_41
REMARK   11  A    between atoms: C_41  and  C_42
REMARK   12  A    between atoms: C_48  and  O_49
REMARK                            x       y       z     vdW  Elec       q    Type
REMARK                         _______ _______ _______ _____ _____    ______ ____
ROOT
ATOM      1  O   UNL     1     -17.577  38.522   2.221  0.00  0.00    +0.000 OA
ATOM      2  O   UNL     1     -15.876  37.124   4.944  0.00  0.00    +0.000 OA
ATOM      3  O   UNL     1     -16.462  35.532   3.284  0.00  0.00    +0.000 OA
ATOM      4  O   UNL     1     -16.240  34.836   5.457  0.00  0.00    +0.000 OA
ATOM      5  O   UNL     1     -18.755  42.204   5.711  0.00  0.00    +0.000 OA
ATOM      6  C   UNL     1     -18.081  36.995   3.929  0.00  0.00    +0.000 C 
ATOM      7  C   UNL     1     -17.259  37.569   5.092  0.00  0.00    +0.000 C 
ATOM      8  C   UNL     1     -18.538  37.715   2.775  0.00  0.00    +0.000 C 
ATOM      9  C   UNL     1     -18.860  39.111   2.473  0.00  0.00    +0.000 C 
ATOM     10  C   UNL     1     -17.735  35.570   3.850  0.00  0.00    +0.000 C 
ATOM     11  C   UNL     1     -17.243  39.067   5.089  0.00  0.00    +0.000 C 
ATOM     12  C   UNL     1     -17.822  36.996   6.428  0.00  0.00    +0.000 C 
ATOM     13  C   UNL     1     -17.670  34.799   5.191  0.00  0.00    +0.000 C 
ATOM     14  C   UNL     1     -18.523  39.865   4.977  0.00  0.00    +0.000 C 
ATOM     15  C   UNL     1     -19.040  40.083   3.585  0.00  0.00    +0.000 C 
ATOM     16  C   UNL     1     -18.256  35.612   6.332  0.00  0.00    +0.000 C 
ATOM     17  C   UNL     1     -15.729  35.754   4.494  0.00  0.00    +0.000 C 
ATOM     18  C   UNL     1     -16.232  39.909   5.618  0.00  0.00    +0.000 C 
ATOM     19  C   UNL     1     -17.733  37.659   7.803  0.00  0.00    +0.000 C 
ATOM     20  C   UNL     1     -18.031  41.219   5.587  0.00  0.00    +0.000 C 
ATOM     21  C   UNL     1     -16.581  41.106   5.953  0.00  0.00    +0.000 C 
ATOM     22  C   UNL     1     -15.620  42.238   6.112  0.00  0.00    +0.000 C 
ENDROOT
BRANCH  13  23
ATOM     23  C   UNL     1     -18.213  33.363   4.999  0.00  0.00    +0.000 C 
ATOM     24  C   UNL     1     -17.887  32.192   5.924  0.00  0.00    +0.000 C 
ATOM     25  C   UNL     1     -18.788  32.931   3.857  0.00  0.00    +0.000 C 
ENDBRANCH  13  23
BRANCH  14  26
ATOM     26  O   UNL     1     -19.558  39.279   5.738  0.00  0.00    +0.000 OA
ATOM     27  H   UNL     1     -20.200  39.986   5.948  0.00  0.00    +0.000 HD
ENDBRANCH  14  26
BRANCH  15  28
ATOM     28  O   UNL     1     -19.888  41.177   3.392  0.00  0.00    +0.000 OA
ATOM     29  H   UNL     1     -19.696  41.955   3.958  0.00  0.00    +0.000 HD
ENDBRANCH  15  28
BRANCH  17  30
ATOM     30  C   UNL     1     -14.313  35.483   4.269  0.00  0.00    +0.000 C 
ATOM     31  C   UNL     1     -13.148  35.260   4.082  0.00  0.00    +0.000 C 
BRANCH  31  32
ATOM     32  C   UNL     1     -11.663  34.977   3.843  0.00  0.00    +0.000 C 
ATOM     33  C   UNL     1     -10.498  34.756   3.656  0.00  0.00    +0.000 C 
BRANCH  33  34
ATOM     34  C   UNL     1      -9.010  34.477   3.417  0.00  0.00    +0.000 C 
ATOM     35  C   UNL     1      -7.524  34.199   3.179  0.00  0.00    +0.000 C 
BRANCH  35  36
ATOM     36  C   UNL     1      -6.036  33.920   2.941  0.00  0.00    +0.000 C 
ATOM     37  C   UNL     1      -4.549  33.641   2.704  0.00  0.00    +0.000 C 
ATOM     38  C   UNL     1      -3.062  33.361   2.465  0.00  0.00    +0.000 C 
ENDBRANCH  35  36
ENDBRANCH  33  34
ENDBRANCH  31  32
ENDBRANCH  17  30
BRANCH  16  39
ATOM     39  O   UNL     1     -19.134  35.124   7.315  0.00  0.00    +0.000 OA
BRANCH  39  41
ATOM     40  O   UNL     1     -20.929  36.535   7.577  0.00  0.00    +0.000 OA
ATOM     41  C   UNL     1     -20.434  35.508   7.146  0.00  0.00    +0.000 C 
BRANCH  41  42
ATOM     42  C   UNL     1     -21.179  34.477   6.400  0.00  0.00    +0.000 A 
ATOM     43  C   UNL     1     -21.731  34.740   5.147  0.00  0.00    +0.000 A 
ATOM     44  C   UNL     1     -21.321  33.217   6.978  0.00  0.00    +0.000 A 
ATOM     45  C   UNL     1     -22.427  33.739   4.472  0.00  0.00    +0.000 A 
ATOM     46  C   UNL     1     -22.016  32.218   6.302  0.00  0.00    +0.000 A 
ATOM     47  C   UNL     1     -22.569  32.480   5.050  0.00  0.00    +0.000 A 
ENDBRANCH  41  42
ENDBRANCH  39  41
ENDBRANCH  16  39
BRANCH   9  48
ATOM     48  C   UNL     1     -19.522  39.402   1.209  0.00  0.00    +0.000 C 
BRANCH  48  49
ATOM     49  O   UNL     1     -20.122  39.673   0.053  0.00  0.00    +0.000 OA
ATOM     50  H   UNL     1     -19.767  39.108  -0.655  0.00  0.00    +0.000 HD
ENDBRANCH  48  49
ENDBRANCH   9  48
TORSDOF 12
ENDMDL
MODEL 8
REMARK VINA RESULT:      -5.9     19.661     23.953
REMARK  Name = 5358691_Yuanhuacine.pdbqt.pdb
REMARK  12 active torsions:
REMARK  status: ('A' for Active; 'I' for Inactive)
REMARK    1  A    between atoms: C_9  and  C_48
REMARK    2  A    between atoms: C_13  and  C_23
REMARK    3  A    between atoms: C_14  and  O_26
REMARK    4  A    between atoms: C_15  and  O_28
REMARK    5  A    between atoms: C_16  and  O_39
REMARK    6  A    between atoms: C_17  and  C_30
REMARK    7  A    between atoms: C_31  and  C_32
REMARK    8  A    between atoms: C_33  and  C_34
REMARK    9  A    between atoms: C_35  and  C_36
REMARK   10  A    between atoms: O_39  and  C_41
REMARK   11  A    between atoms: C_41  and  C_42
REMARK   12  A    between atoms: C_48  and  O_49
REMARK                            x       y       z     vdW  Elec       q    Type
REMARK                         _______ _______ _______ _____ _____    ______ ____
ROOT
ATOM      1  O   UNL     1      11.681  34.935  22.846  0.00  0.00    +0.000 OA
ATOM      2  O   UNL     1      12.766  31.608  22.728  0.00  0.00    +0.000 OA
ATOM      3  O   UNL     1      13.495  32.900  20.875  0.00  0.00    +0.000 OA
ATOM      4  O   UNL     1      13.228  30.638  20.612  0.00  0.00    +0.000 OA
ATOM      5  O   UNL     1       7.975  32.912  25.894  0.00  0.00    +0.000 OA
ATOM      6  C   UNL     1      11.304  33.079  21.461  0.00  0.00    +0.000 C 
ATOM      7  C   UNL     1      11.363  31.932  22.480  0.00  0.00    +0.000 C 
ATOM      8  C   UNL     1      11.014  34.456  21.747  0.00  0.00    +0.000 C 
ATOM      9  C   UNL     1      10.269  35.174  22.782  0.00  0.00    +0.000 C 
ATOM     10  C   UNL     1      12.211  32.702  20.370  0.00  0.00    +0.000 C 
ATOM     11  C   UNL     1      10.759  32.313  23.797  0.00  0.00    +0.000 C 
ATOM     12  C   UNL     1      10.669  30.681  21.861  0.00  0.00    +0.000 C 
ATOM     13  C   UNL     1      12.127  31.238  19.874  0.00  0.00    +0.000 C 
ATOM     14  C   UNL     1       9.387  32.944  23.878  0.00  0.00    +0.000 C 
ATOM     15  C   UNL     1       9.336  34.429  23.671  0.00  0.00    +0.000 C 
ATOM     16  C   UNL     1      10.907  30.528  20.435  0.00  0.00    +0.000 C 
ATOM     17  C   UNL     1      13.609  31.642  21.550  0.00  0.00    +0.000 C 
ATOM     18  C   UNL     1      11.084  31.777  25.069  0.00  0.00    +0.000 C 
ATOM     19  C   UNL     1      10.001  29.544  22.635  0.00  0.00    +0.000 C 
ATOM     20  C   UNL     1       9.035  32.595  25.362  0.00  0.00    +0.000 C 
ATOM     21  C   UNL     1      10.181  31.858  25.988  0.00  0.00    +0.000 C 
ATOM     22  C   UNL     1      10.470  31.754  27.449  0.00  0.00    +0.000 C 
ENDROOT
BRANCH  13  23
ATOM     23  C   UNL     1      12.327  31.190  18.341  0.00  0.00    +0.000 C 
ATOM     24  C   UNL     1      13.299  30.247  17.633  0.00  0.00    +0.000 C 
ATOM     25  C   UNL     1      11.888  32.150  17.502  0.00  0.00    +0.000 C 
ENDBRANCH  13  23
BRANCH  14  26
ATOM     26  O   UNL     1       8.496  32.345  22.961  0.00  0.00    +0.000 OA
ATOM     27  H   UNL     1       8.922  31.529  22.632  0.00  0.00    +0.000 HD
ENDBRANCH  14  26
BRANCH  15  28
ATOM     28  O   UNL     1       8.234  35.102  24.204  0.00  0.00    +0.000 OA
ATOM     29  H   UNL     1       8.095  36.010  23.859  0.00  0.00    +0.000 HD
ENDBRANCH  15  28
BRANCH  17  30
ATOM     30  C   UNL     1      14.994  31.425  21.957  0.00  0.00    +0.000 C 
ATOM     31  C   UNL     1      16.132  31.244  22.292  0.00  0.00    +0.000 C 
BRANCH  31  32
ATOM     32  C   UNL     1      17.584  31.012  22.719  0.00  0.00    +0.000 C 
ATOM     33  C   UNL     1      18.723  30.831  23.053  0.00  0.00    +0.000 C 
BRANCH  33  34
ATOM     34  C   UNL     1      20.176  30.598  23.477  0.00  0.00    +0.000 C 
ATOM     35  C   UNL     1      21.629  30.365  23.899  0.00  0.00    +0.000 C 
BRANCH  35  36
ATOM     36  C   UNL     1      23.084  30.133  24.321  0.00  0.00    +0.000 C 
ATOM     37  C   UNL     1      24.538  29.901  24.742  0.00  0.00    +0.000 C 
ATOM     38  C   UNL     1      25.993  29.670  25.163  0.00  0.00    +0.000 C 
ENDBRANCH  35  36
ENDBRANCH  33  34
ENDBRANCH  31  32
ENDBRANCH  17  30
BRANCH  16  39
ATOM     39  O   UNL     1      10.032  29.709  19.702  0.00  0.00    +0.000 OA
BRANCH  39  41
ATOM     40  O   UNL     1      11.451  27.924  19.987  0.00  0.00    +0.000 OA
ATOM     41  C   UNL     1      10.536  28.476  19.400  0.00  0.00    +0.000 C 
BRANCH  41  42
ATOM     42  C   UNL     1       9.846  27.915  18.225  0.00  0.00    +0.000 A 
ATOM     43  C   UNL     1       9.097  26.741  18.310  0.00  0.00    +0.000 A 
ATOM     44  C   UNL     1       9.956  28.589  17.010  0.00  0.00    +0.000 A 
ATOM     45  C   UNL     1       8.458  26.243  17.177  0.00  0.00    +0.000 A 
ATOM     46  C   UNL     1       9.315  28.089  15.880  0.00  0.00    +0.000 A 
ATOM     47  C   UNL     1       8.567  26.917  15.964  0.00  0.00    +0.000 A 
ENDBRANCH  41  42
ENDBRANCH  39  41
ENDBRANCH  16  39
BRANCH   9  48
ATOM     48  C   UNL     1      10.020  36.595  22.584  0.00  0.00    +0.000 C 
BRANCH  48  49
ATOM     49  O   UNL     1       9.799  37.895  22.408  0.00  0.00    +0.000 OA
ATOM     50  H   UNL     1      10.615  38.345  22.131  0.00  0.00    +0.000 HD
ENDBRANCH  48  49
ENDBRANCH   9  48
TORSDOF 12
ENDMDL
MODEL 9
REMARK VINA RESULT:      -5.8     16.364     21.458
REMARK  Name = 5358691_Yuanhuacine.pdbqt.pdb
REMARK  12 active torsions:
REMARK  status: ('A' for Active; 'I' for Inactive)
REMARK    1  A    between atoms: C_9  and  C_48
REMARK    2  A    between atoms: C_13  and  C_23
REMARK    3  A    between atoms: C_14  and  O_26
REMARK    4  A    between atoms: C_15  and  O_28
REMARK    5  A    between atoms: C_16  and  O_39
REMARK    6  A    between atoms: C_17  and  C_30
REMARK    7  A    between atoms: C_31  and  C_32
REMARK    8  A    between atoms: C_33  and  C_34
REMARK    9  A    between atoms: C_35  and  C_36
REMARK   10  A    between atoms: O_39  and  C_41
REMARK   11  A    between atoms: C_41  and  C_42
REMARK   12  A    between atoms: C_48  and  O_49
REMARK                            x       y       z     vdW  Elec       q    Type
REMARK                         _______ _______ _______ _____ _____    ______ ____
ROOT
ATOM      1  O   UNL     1      10.291  34.855  22.795  0.00  0.00    +0.000 OA
ATOM      2  O   UNL     1      10.594  31.647  24.163  0.00  0.00    +0.000 OA
ATOM      3  O   UNL     1       8.415  32.119  23.350  0.00  0.00    +0.000 OA
ATOM      4  O   UNL     1       8.658  30.604  25.054  0.00  0.00    +0.000 OA
ATOM      5  O   UNL     1      14.386  35.820  25.865  0.00  0.00    +0.000 OA
ATOM      6  C   UNL     1       9.404  33.712  24.641  0.00  0.00    +0.000 C 
ATOM      7  C   UNL     1      10.590  32.819  25.035  0.00  0.00    +0.000 C 
ATOM      8  C   UNL     1       9.472  34.935  23.893  0.00  0.00    +0.000 C 
ATOM      9  C   UNL     1      10.482  35.972  23.675  0.00  0.00    +0.000 C 
ATOM     10  C   UNL     1       8.240  32.822  24.542  0.00  0.00    +0.000 C 
ATOM     11  C   UNL     1      11.905  33.512  24.849  0.00  0.00    +0.000 C 
ATOM     12  C   UNL     1      10.386  32.342  26.504  0.00  0.00    +0.000 C 
ATOM     13  C   UNL     1       8.067  31.781  25.674  0.00  0.00    +0.000 C 
ATOM     14  C   UNL     1      12.150  34.895  25.409  0.00  0.00    +0.000 C 
ATOM     15  C   UNL     1      11.674  36.039  24.562  0.00  0.00    +0.000 C 
ATOM     16  C   UNL     1       8.999  32.062  26.839  0.00  0.00    +0.000 C 
ATOM     17  C   UNL     1       9.282  31.106  23.874  0.00  0.00    +0.000 C 
ATOM     18  C   UNL     1      13.160  32.902  24.591  0.00  0.00    +0.000 C 
ATOM     19  C   UNL     1      11.489  31.939  27.484  0.00  0.00    +0.000 C 
ATOM     20  C   UNL     1      13.714  34.875  25.458  0.00  0.00    +0.000 C 
ATOM     21  C   UNL     1      14.215  33.567  24.925  0.00  0.00    +0.000 C 
ATOM     22  C   UNL     1      15.574  33.305  24.364  0.00  0.00    +0.000 C 
ENDROOT
BRANCH  13  23
ATOM     23  C   UNL     1       6.565  31.604  26.001  0.00  0.00    +0.000 C 
ATOM     24  C   UNL     1       5.921  30.270  26.374  0.00  0.00    +0.000 C 
ATOM     25  C   UNL     1       5.627  32.530  25.717  0.00  0.00    +0.000 C 
ENDBRANCH  13  23
BRANCH  14  26
ATOM     26  O   UNL     1      11.576  35.035  26.691  0.00  0.00    +0.000 OA
ATOM     27  H   UNL     1      11.531  34.143  27.088  0.00  0.00    +0.000 HD
ENDBRANCH  14  26
BRANCH  15  28
ATOM     28  O   UNL     1      12.288  37.276  24.772  0.00  0.00    +0.000 OA
ATOM     29  H   UNL     1      13.170  37.378  24.355  0.00  0.00    +0.000 HD
ENDBRANCH  15  28
BRANCH  17  30
ATOM     30  C   UNL     1       9.421  30.027  22.902  0.00  0.00    +0.000 C 
ATOM     31  C   UNL     1       9.534  29.138  22.103  0.00  0.00    +0.000 C 
BRANCH  31  32
ATOM     32  C   UNL     1       9.676  28.006  21.083  0.00  0.00    +0.000 C 
ATOM     33  C   UNL     1       9.788  27.119  20.282  0.00  0.00    +0.000 C 
BRANCH  33  34
ATOM     34  C   UNL     1       9.930  25.988  19.258  0.00  0.00    +0.000 C 
ATOM     35  C   UNL     1      10.070  24.858  18.236  0.00  0.00    +0.000 C 
BRANCH  35  36
ATOM     36  C   UNL     1      10.210  23.727  17.211  0.00  0.00    +0.000 C 
ATOM     37  C   UNL     1      10.351  22.597  16.187  0.00  0.00    +0.000 C 
ATOM     38  C   UNL     1      10.493  21.466  15.163  0.00  0.00    +0.000 C 
ENDBRANCH  35  36
ENDBRANCH  33  34
ENDBRANCH  31  32
ENDBRANCH  17  30
BRANCH  16  39
ATOM     39  O   UNL     1       8.641  32.027  28.198  0.00  0.00    +0.000 OA
BRANCH  39  41
ATOM     40  O   UNL     1       9.047  34.178  28.897  0.00  0.00    +0.000 OA
ATOM     41  C   UNL     1       8.289  33.240  28.717  0.00  0.00    +0.000 C 
BRANCH  41  42
ATOM     42  C   UNL     1       6.860  33.248  29.076  0.00  0.00    +0.000 A 
ATOM     43  C   UNL     1       6.233  32.119  29.603  0.00  0.00    +0.000 A 
ATOM     44  C   UNL     1       6.136  34.423  28.879  0.00  0.00    +0.000 A 
ATOM     45  C   UNL     1       4.880  32.167  29.932  0.00  0.00    +0.000 A 
ATOM     46  C   UNL     1       4.784  34.468  29.209  0.00  0.00    +0.000 A 
ATOM     47  C   UNL     1       4.158  33.341  29.734  0.00  0.00    +0.000 A 
ENDBRANCH  41  42
ENDBRANCH  39  41
ENDBRANCH  16  39
BRANCH   9  48
ATOM     48  C   UNL     1      10.069  37.198  23.006  0.00  0.00    +0.000 C 
BRANCH  48  49
ATOM     49  O   UNL     1       9.688  38.315  22.393  0.00  0.00    +0.000 OA
ATOM     50  H   UNL     1       8.717  38.361  22.341  0.00  0.00    +0.000 HD
ENDBRANCH  48  49
ENDBRANCH   9  48
TORSDOF 12
ENDMDL
