MODEL 1
REMARK VINA RESULT:      -5.0      0.000      0.000
REMARK  Name = 5386_Tegafur.pdbqt.pdb
REMARK  1 active torsions:
REMARK  status: ('A' for Active; 'I' for Inactive)
REMARK    1  A    between atoms: N_4  and  C_12
REMARK                            x       y       z     vdW  Elec       q    Type
REMARK                         _______ _______ _______ _____ _____    ______ ____
ROOT
ATOM      1  F   UNL     1     -20.348  38.684   7.084  0.00  0.00    +0.000 F 
ATOM      2  O   UNL     1     -15.010  37.793   6.624  0.00  0.00    +0.000 OA
ATOM      3  O   UNL     1     -19.173  36.188   7.707  0.00  0.00    +0.000 OA
ATOM      4  N   UNL     1     -16.881  39.171   6.178  0.00  0.00    +0.000 N 
ATOM      5  N   UNL     1     -17.119  37.010   7.069  0.00  0.00    +0.000 N 
ATOM      6  C   UNL     1     -16.218  37.999   6.610  0.00  0.00    +0.000 C 
ATOM      7  C   UNL     1     -18.227  39.186   6.264  0.00  0.00    +0.000 C 
ATOM      8  C   UNL     1     -19.120  38.344   6.659  0.00  0.00    +0.000 C 
ATOM      9  C   UNL     1     -18.513  37.082   7.191  0.00  0.00    +0.000 C 
ATOM     10  H   UNL     1     -16.689  36.168   7.424  0.00  0.00    +0.000 HD
ENDROOT
BRANCH   4  12
ATOM     11  O   UNL     1     -15.562  40.277   4.467  0.00  0.00    +0.000 OA
ATOM     12  C   UNL     1     -16.237  40.273   5.693  0.00  0.00    +0.000 C 
ATOM     13  C   UNL     1     -16.107  41.562   6.277  0.00  0.00    +0.000 C 
ATOM     14  C   UNL     1     -15.338  42.693   5.593  0.00  0.00    +0.000 C 
ATOM     15  C   UNL     1     -15.181  41.556   4.585  0.00  0.00    +0.000 C 
ENDBRANCH   4  12
TORSDOF 1
ENDMDL
MODEL 2
REMARK VINA RESULT:      -4.8     22.179     23.029
REMARK  Name = 5386_Tegafur.pdbqt.pdb
REMARK  1 active torsions:
REMARK  status: ('A' for Active; 'I' for Inactive)
REMARK    1  A    between atoms: N_4  and  C_12
REMARK                            x       y       z     vdW  Elec       q    Type
REMARK                         _______ _______ _______ _____ _____    ______ ____
ROOT
ATOM      1  F   UNL     1     -11.019  47.875  25.925  0.00  0.00    +0.000 F 
ATOM      2  O   UNL     1      -6.463  48.875  23.143  0.00  0.00    +0.000 OA
ATOM      3  O   UNL     1     -10.954  49.637  23.714  0.00  0.00    +0.000 OA
ATOM      4  N   UNL     1      -7.509  47.957  25.056  0.00  0.00    +0.000 N 
ATOM      5  N   UNL     1      -8.686  49.293  23.522  0.00  0.00    +0.000 N 
ATOM      6  C   UNL     1      -7.442  48.709  23.861  0.00  0.00    +0.000 C 
ATOM      7  C   UNL     1      -8.703  47.898  25.681  0.00  0.00    +0.000 C 
ATOM      8  C   UNL     1      -9.872  48.391  25.454  0.00  0.00    +0.000 C 
ATOM      9  C   UNL     1      -9.921  49.165  24.172  0.00  0.00    +0.000 C 
ATOM     10  H   UNL     1      -8.697  49.809  22.654  0.00  0.00    +0.000 HD
ENDROOT
BRANCH   4  12
ATOM     11  O   UNL     1      -5.323  47.953  26.111  0.00  0.00    +0.000 OA
ATOM     12  C   UNL     1      -6.446  47.294  25.596  0.00  0.00    +0.000 C 
ATOM     13  C   UNL     1      -6.245  45.894  25.741  0.00  0.00    +0.000 C 
ATOM     14  C   UNL     1      -4.978  45.313  26.371  0.00  0.00    +0.000 C 
ATOM     15  C   UNL     1      -4.704  46.814  26.449  0.00  0.00    +0.000 C 
ENDBRANCH   4  12
TORSDOF 1
ENDMDL
MODEL 3
REMARK VINA RESULT:      -4.5      2.397      2.947
REMARK  Name = 5386_Tegafur.pdbqt.pdb
REMARK  1 active torsions:
REMARK  status: ('A' for Active; 'I' for Inactive)
REMARK    1  A    between atoms: N_4  and  C_12
REMARK                            x       y       z     vdW  Elec       q    Type
REMARK                         _______ _______ _______ _____ _____    ______ ____
ROOT
ATOM      1  F   UNL     1     -14.193  36.668   5.919  0.00  0.00    +0.000 F 
ATOM      2  O   UNL     1     -18.681  39.718   5.695  0.00  0.00    +0.000 OA
ATOM      3  O   UNL     1     -16.769  35.604   6.399  0.00  0.00    +0.000 OA
ATOM      4  N   UNL     1     -16.320  39.589   5.757  0.00  0.00    +0.000 N 
ATOM      5  N   UNL     1     -17.674  37.703   6.125  0.00  0.00    +0.000 N 
ATOM      6  C   UNL     1     -17.640  39.089   5.843  0.00  0.00    +0.000 C 
ATOM      7  C   UNL     1     -15.315  38.709   5.944  0.00  0.00    +0.000 C 
ATOM      8  C   UNL     1     -15.248  37.448   6.204  0.00  0.00    +0.000 C 
ATOM      9  C   UNL     1     -16.603  36.810   6.261  0.00  0.00    +0.000 C 
ATOM     10  H   UNL     1     -18.596  37.293   6.158  0.00  0.00    +0.000 HD
ENDROOT
BRANCH   4  12
ATOM     11  O   UNL     1     -16.102  41.902   6.460  0.00  0.00    +0.000 OA
ATOM     12  C   UNL     1     -16.017  40.893   5.493  0.00  0.00    +0.000 C 
ATOM     13  C   UNL     1     -15.588  41.482   4.273  0.00  0.00    +0.000 C 
ATOM     14  C   UNL     1     -15.295  42.978   4.148  0.00  0.00    +0.000 C 
ATOM     15  C   UNL     1     -15.708  42.863   5.614  0.00  0.00    +0.000 C 
ENDBRANCH   4  12
TORSDOF 1
ENDMDL
MODEL 4
REMARK VINA RESULT:      -4.5     24.002     24.815
REMARK  Name = 5386_Tegafur.pdbqt.pdb
REMARK  1 active torsions:
REMARK  status: ('A' for Active; 'I' for Inactive)
REMARK    1  A    between atoms: N_4  and  C_12
REMARK                            x       y       z     vdW  Elec       q    Type
REMARK                         _______ _______ _______ _____ _____    ______ ____
ROOT
ATOM      1  F   UNL     1      -4.302  47.563  29.639  0.00  0.00    +0.000 F 
ATOM      2  O   UNL     1      -4.503  45.125  24.790  0.00  0.00    +0.000 OA
ATOM      3  O   UNL     1      -2.635  45.376  28.976  0.00  0.00    +0.000 OA
ATOM      4  N   UNL     1      -5.465  46.625  26.345  0.00  0.00    +0.000 N 
ATOM      5  N   UNL     1      -3.663  45.232  26.921  0.00  0.00    +0.000 N 
ATOM      6  C   UNL     1      -4.564  45.629  25.905  0.00  0.00    +0.000 C 
ATOM      7  C   UNL     1      -5.344  47.047  27.621  0.00  0.00    +0.000 C 
ATOM      8  C   UNL     1      -4.568  46.747  28.606  0.00  0.00    +0.000 C 
ATOM      9  C   UNL     1      -3.534  45.732  28.223  0.00  0.00    +0.000 C 
ATOM     10  H   UNL     1      -2.973  44.549  26.641  0.00  0.00    +0.000 HD
ENDROOT
BRANCH   4  12
ATOM     11  O   UNL     1      -7.699  46.603  25.395  0.00  0.00    +0.000 OA
ATOM     12  C   UNL     1      -6.432  47.177  25.556  0.00  0.00    +0.000 C 
ATOM     13  C   UNL     1      -6.378  48.361  24.772  0.00  0.00    +0.000 C 
ATOM     14  C   UNL     1      -7.564  48.837  23.931  0.00  0.00    +0.000 C 
ATOM     15  C   UNL     1      -8.121  47.561  24.559  0.00  0.00    +0.000 C 
ENDBRANCH   4  12
TORSDOF 1
ENDMDL
MODEL 5
REMARK VINA RESULT:      -4.5     23.401     24.249
REMARK  Name = 5386_Tegafur.pdbqt.pdb
REMARK  1 active torsions:
REMARK  status: ('A' for Active; 'I' for Inactive)
REMARK    1  A    between atoms: N_4  and  C_12
REMARK                            x       y       z     vdW  Elec       q    Type
REMARK                         _______ _______ _______ _____ _____    ______ ____
ROOT
ATOM      1  F   UNL     1      -5.220  44.095  28.360  0.00  0.00    +0.000 F 
ATOM      2  O   UNL     1      -5.652  48.711  25.530  0.00  0.00    +0.000 OA
ATOM      3  O   UNL     1      -2.982  45.719  27.766  0.00  0.00    +0.000 OA
ATOM      4  N   UNL     1      -6.631  46.689  26.272  0.00  0.00    +0.000 N 
ATOM      5  N   UNL     1      -4.347  47.144  26.580  0.00  0.00    +0.000 N 
ATOM      6  C   UNL     1      -5.580  47.612  26.069  0.00  0.00    +0.000 C 
ATOM      7  C   UNL     1      -6.327  45.537  26.904  0.00  0.00    +0.000 C 
ATOM      8  C   UNL     1      -5.248  45.028  27.395  0.00  0.00    +0.000 C 
ATOM      9  C   UNL     1      -4.079  45.960  27.278  0.00  0.00    +0.000 C 
ATOM     10  H   UNL     1      -3.573  47.788  26.492  0.00  0.00    +0.000 HD
ENDROOT
BRANCH   4  12
ATOM     11  O   UNL     1      -8.944  47.237  26.767  0.00  0.00    +0.000 OA
ATOM     12  C   UNL     1      -7.919  46.903  25.873  0.00  0.00    +0.000 C 
ATOM     13  C   UNL     1      -8.473  46.835  24.567  0.00  0.00    +0.000 C 
ATOM     14  C   UNL     1      -9.955  47.101  24.294  0.00  0.00    +0.000 C 
ATOM     15  C   UNL     1      -9.877  47.295  25.807  0.00  0.00    +0.000 C 
ENDBRANCH   4  12
TORSDOF 1
ENDMDL
MODEL 6
REMARK VINA RESULT:      -4.4     23.560     24.348
REMARK  Name = 5386_Tegafur.pdbqt.pdb
REMARK  1 active torsions:
REMARK  status: ('A' for Active; 'I' for Inactive)
REMARK    1  A    between atoms: N_4  and  C_12
REMARK                            x       y       z     vdW  Elec       q    Type
REMARK                         _______ _______ _______ _____ _____    ______ ____
ROOT
ATOM      1  F   UNL     1      -7.519  49.197  23.845  0.00  0.00    +0.000 F 
ATOM      2  O   UNL     1      -6.241  45.610  27.719  0.00  0.00    +0.000 OA
ATOM      3  O   UNL     1      -9.425  47.426  24.954  0.00  0.00    +0.000 OA
ATOM      4  N   UNL     1      -5.532  47.161  26.079  0.00  0.00    +0.000 N 
ATOM      5  N   UNL     1      -7.776  46.487  26.257  0.00  0.00    +0.000 N 
ATOM      6  C   UNL     1      -6.465  46.355  26.771  0.00  0.00    +0.000 C 
ATOM      7  C   UNL     1      -6.003  47.918  25.067  0.00  0.00    +0.000 C 
ATOM      8  C   UNL     1      -7.162  48.099  24.532  0.00  0.00    +0.000 C 
ATOM      9  C   UNL     1      -8.237  47.326  25.234  0.00  0.00    +0.000 C 
ATOM     10  H   UNL     1      -8.485  45.958  26.746  0.00  0.00    +0.000 HD
ENDROOT
BRANCH   4  12
ATOM     11  O   UNL     1      -3.619  48.304  27.041  0.00  0.00    +0.000 OA
ATOM     12  C   UNL     1      -4.202  47.215  26.382  0.00  0.00    +0.000 C 
ATOM     13  C   UNL     1      -3.184  46.261  26.112  0.00  0.00    +0.000 C 
ATOM     14  C   UNL     1      -1.727  46.486  26.519  0.00  0.00    +0.000 C 
ATOM     15  C   UNL     1      -2.392  47.767  27.022  0.00  0.00    +0.000 C 
ENDBRANCH   4  12
TORSDOF 1
ENDMDL
MODEL 7
REMARK VINA RESULT:      -4.3     27.706     28.561
REMARK  Name = 5386_Tegafur.pdbqt.pdb
REMARK  1 active torsions:
REMARK  status: ('A' for Active; 'I' for Inactive)
REMARK    1  A    between atoms: N_4  and  C_12
REMARK                            x       y       z     vdW  Elec       q    Type
REMARK                         _______ _______ _______ _____ _____    ______ ____
ROOT
ATOM      1  F   UNL     1       2.294  44.853  26.539  0.00  0.00    +0.000 F 
ATOM      2  O   UNL     1      -1.481  44.981  30.442  0.00  0.00    +0.000 OA
ATOM      3  O   UNL     1       2.667  43.593  29.044  0.00  0.00    +0.000 OA
ATOM      4  N   UNL     1      -0.679  45.795  28.370  0.00  0.00    +0.000 N 
ATOM      5  N   UNL     1       0.618  44.386  29.733  0.00  0.00    +0.000 N 
ATOM      6  C   UNL     1      -0.613  45.067  29.581  0.00  0.00    +0.000 C 
ATOM      7  C   UNL     1       0.396  45.739  27.558  0.00  0.00    +0.000 C 
ATOM      8  C   UNL     1       1.546  45.157  27.611  0.00  0.00    +0.000 C 
ATOM      9  C   UNL     1       1.694  44.310  28.839  0.00  0.00    +0.000 C 
ATOM     10  H   UNL     1       0.696  43.820  30.566  0.00  0.00    +0.000 HD
ENDROOT
BRANCH   4  12
ATOM     11  O   UNL     1      -2.195  47.664  28.690  0.00  0.00    +0.000 OA
ATOM     12  C   UNL     1      -1.760  46.534  27.986  0.00  0.00    +0.000 C 
ATOM     13  C   UNL     1      -2.628  46.340  26.878  0.00  0.00    +0.000 C 
ATOM     14  C   UNL     1      -3.809  47.269  26.595  0.00  0.00    +0.000 C 
ATOM     15  C   UNL     1      -3.217  47.895  27.856  0.00  0.00    +0.000 C 
ENDBRANCH   4  12
TORSDOF 1
ENDMDL
MODEL 8
REMARK VINA RESULT:      -4.2     24.878     25.651
REMARK  Name = 5386_Tegafur.pdbqt.pdb
REMARK  1 active torsions:
REMARK  status: ('A' for Active; 'I' for Inactive)
REMARK    1  A    between atoms: N_4  and  C_12
REMARK                            x       y       z     vdW  Elec       q    Type
REMARK                         _______ _______ _______ _____ _____    ______ ____
ROOT
ATOM      1  F   UNL     1      -7.053  47.525  28.485  0.00  0.00    +0.000 F 
ATOM      2  O   UNL     1      -3.716  44.980  25.037  0.00  0.00    +0.000 OA
ATOM      3  O   UNL     1      -7.898  46.652  25.930  0.00  0.00    +0.000 OA
ATOM      4  N   UNL     1      -4.007  46.238  27.019  0.00  0.00    +0.000 N 
ATOM      5  N   UNL     1      -5.763  45.908  25.492  0.00  0.00    +0.000 N 
ATOM      6  C   UNL     1      -4.405  45.652  25.795  0.00  0.00    +0.000 C 
ATOM      7  C   UNL     1      -4.941  46.930  27.704  0.00  0.00    +0.000 C 
ATOM      8  C   UNL     1      -6.183  47.216  27.509  0.00  0.00    +0.000 C 
ATOM      9  C   UNL     1      -6.719  46.591  26.257  0.00  0.00    +0.000 C 
ATOM     10  H   UNL     1      -6.104  45.476  24.645  0.00  0.00    +0.000 HD
ENDROOT
BRANCH   4  12
ATOM     11  O   UNL     1      -2.463  45.406  28.697  0.00  0.00    +0.000 OA
ATOM     12  C   UNL     1      -2.749  46.136  27.537  0.00  0.00    +0.000 C 
ATOM     13  C   UNL     1      -1.537  46.707  27.061  0.00  0.00    +0.000 C 
ATOM     14  C   UNL     1      -0.201  46.495  27.774  0.00  0.00    +0.000 C 
ATOM     15  C   UNL     1      -1.156  45.698  28.661  0.00  0.00    +0.000 C 
ENDBRANCH   4  12
TORSDOF 1
ENDMDL
MODEL 9
REMARK VINA RESULT:      -4.2     22.579     23.280
REMARK  Name = 5386_Tegafur.pdbqt.pdb
REMARK  1 active torsions:
REMARK  status: ('A' for Active; 'I' for Inactive)
REMARK    1  A    between atoms: N_4  and  C_12
REMARK                            x       y       z     vdW  Elec       q    Type
REMARK                         _______ _______ _______ _____ _____    ______ ____
ROOT
ATOM      1  F   UNL     1     -10.721  48.444  28.801  0.00  0.00    +0.000 F 
ATOM      2  O   UNL     1      -9.281  46.665  23.875  0.00  0.00    +0.000 OA
ATOM      3  O   UNL     1     -12.600  48.067  26.721  0.00  0.00    +0.000 OA
ATOM      4  N   UNL     1      -8.644  47.512  25.990  0.00  0.00    +0.000 N 
ATOM      5  N   UNL     1     -10.891  47.455  25.304  0.00  0.00    +0.000 N 
ATOM      6  C   UNL     1      -9.550  47.167  24.960  0.00  0.00    +0.000 C 
ATOM      7  C   UNL     1      -9.164  48.044  27.115  0.00  0.00    +0.000 C 
ATOM      8  C   UNL     1     -10.354  48.343  27.513  0.00  0.00    +0.000 C 
ATOM      9  C   UNL     1     -11.399  47.962  26.508  0.00  0.00    +0.000 C 
ATOM     10  H   UNL     1     -11.579  47.190  24.614  0.00  0.00    +0.000 HD
ENDROOT
BRANCH   4  12
ATOM     11  O   UNL     1      -6.391  48.397  25.816  0.00  0.00    +0.000 OA
ATOM     12  C   UNL     1      -7.294  47.331  25.906  0.00  0.00    +0.000 C 
ATOM     13  C   UNL     1      -6.554  46.119  25.884  0.00  0.00    +0.000 C 
ATOM     14  C   UNL     1      -5.028  46.096  25.778  0.00  0.00    +0.000 C 
ATOM     15  C   UNL     1      -5.319  47.596  25.761  0.00  0.00    +0.000 C 
ENDBRANCH   4  12
TORSDOF 1
ENDMDL
