MODEL 1
REMARK VINA RESULT:      -6.8      0.000      0.000
REMARK  Name = 5470187_Zerumbone.pdbqt.pdb
REMARK  0 active torsions:
REMARK  status: ('A' for Active; 'I' for Inactive)
REMARK                            x       y       z     vdW  Elec       q    Type
REMARK                         _______ _______ _______ _____ _____    ______ ____
ROOT
ATOM      1  O   UNL     1      -3.338  51.428  27.791  0.00  0.00    +0.000 OA
ATOM      2  C   UNL     1      -6.654  48.460  25.772  0.00  0.00    +0.000 C 
ATOM      3  C   UNL     1      -6.159  47.118  25.384  0.00  0.00    +0.000 C 
ATOM      4  C   UNL     1      -7.783  48.327  26.822  0.00  0.00    +0.000 C 
ATOM      5  C   UNL     1      -7.158  49.210  24.513  0.00  0.00    +0.000 C 
ATOM      6  C   UNL     1      -5.485  49.189  26.363  0.00  0.00    +0.000 C 
ATOM      7  C   UNL     1      -5.277  45.880  25.140  0.00  0.00    +0.000 C 
ATOM      8  C   UNL     1      -4.238  45.100  25.120  0.00  0.00    +0.000 C 
ATOM      9  C   UNL     1      -3.094  45.758  25.640  0.00  0.00    +0.000 C 
ATOM     10  C   UNL     1      -2.291  46.896  26.273  0.00  0.00    +0.000 C 
ATOM     11  C   UNL     1      -4.493  49.701  26.819  0.00  0.00    +0.000 C 
ATOM     12  C   UNL     1      -4.397  43.625  25.284  0.00  0.00    +0.000 C 
ATOM     13  C   UNL     1      -1.994  48.269  26.884  0.00  0.00    +0.000 C 
ATOM     14  C   UNL     1      -1.986  49.479  27.362  0.00  0.00    +0.000 C 
ATOM     15  C   UNL     1      -3.262  50.283  27.359  0.00  0.00    +0.000 C 
ATOM     16  C   UNL     1      -0.670  50.003  27.883  0.00  0.00    +0.000 C 
ENDROOT
TORSDOF 0
ENDMDL
MODEL 2
REMARK VINA RESULT:      -6.0      1.950      2.511
REMARK  Name = 5470187_Zerumbone.pdbqt.pdb
REMARK  0 active torsions:
REMARK  status: ('A' for Active; 'I' for Inactive)
REMARK                            x       y       z     vdW  Elec       q    Type
REMARK                         _______ _______ _______ _____ _____    ______ ____
ROOT
ATOM      1  O   UNL     1      -7.162  51.858  28.080  0.00  0.00    +0.000 OA
ATOM      2  C   UNL     1      -8.509  47.844  25.640  0.00  0.00    +0.000 C 
ATOM      3  C   UNL     1      -7.431  46.859  25.385  0.00  0.00    +0.000 C 
ATOM      4  C   UNL     1      -9.627  47.198  26.493  0.00  0.00    +0.000 C 
ATOM      5  C   UNL     1      -9.072  48.358  24.291  0.00  0.00    +0.000 C 
ATOM      6  C   UNL     1      -7.879  48.977  26.392  0.00  0.00    +0.000 C 
ATOM      7  C   UNL     1      -6.078  46.128  25.331  0.00  0.00    +0.000 C 
ATOM      8  C   UNL     1      -4.817  45.868  25.509  0.00  0.00    +0.000 C 
ATOM      9  C   UNL     1      -4.167  46.930  26.189  0.00  0.00    +0.000 C 
ATOM     10  C   UNL     1      -4.043  48.275  26.908  0.00  0.00    +0.000 C 
ATOM     11  C   UNL     1      -7.291  49.845  26.989  0.00  0.00    +0.000 C 
ATOM     12  C   UNL     1      -4.354  44.461  25.694  0.00  0.00    +0.000 C 
ATOM     13  C   UNL     1      -4.467  49.616  27.513  0.00  0.00    +0.000 C 
ATOM     14  C   UNL     1      -5.056  50.693  27.946  0.00  0.00    +0.000 C 
ATOM     15  C   UNL     1      -6.534  50.874  27.705  0.00  0.00    +0.000 C 
ATOM     16  C   UNL     1      -4.196  51.707  28.660  0.00  0.00    +0.000 C 
ENDROOT
TORSDOF 0
ENDMDL
MODEL 3
REMARK VINA RESULT:      -5.9      1.751      4.591
REMARK  Name = 5470187_Zerumbone.pdbqt.pdb
REMARK  0 active torsions:
REMARK  status: ('A' for Active; 'I' for Inactive)
REMARK                            x       y       z     vdW  Elec       q    Type
REMARK                         _______ _______ _______ _____ _____    ______ ____
ROOT
ATOM      1  O   UNL     1      -7.841  51.279  27.416  0.00  0.00    +0.000 OA
ATOM      2  C   UNL     1      -3.487  49.062  27.442  0.00  0.00    +0.000 C 
ATOM      3  C   UNL     1      -3.479  47.661  26.957  0.00  0.00    +0.000 C 
ATOM      4  C   UNL     1      -2.573  49.937  26.551  0.00  0.00    +0.000 C 
ATOM      5  C   UNL     1      -3.018  49.103  28.918  0.00  0.00    +0.000 C 
ATOM      6  C   UNL     1      -4.905  49.537  27.345  0.00  0.00    +0.000 C 
ATOM      7  C   UNL     1      -3.891  46.285  26.404  0.00  0.00    +0.000 C 
ATOM      8  C   UNL     1      -4.628  45.325  25.930  0.00  0.00    +0.000 C 
ATOM      9  C   UNL     1      -5.989  45.715  25.852  0.00  0.00    +0.000 C 
ATOM     10  C   UNL     1      -7.195  46.649  25.973  0.00  0.00    +0.000 C 
ATOM     11  C   UNL     1      -6.069  49.834  27.239  0.00  0.00    +0.000 C 
ATOM     12  C   UNL     1      -4.064  44.357  24.943  0.00  0.00    +0.000 C 
ATOM     13  C   UNL     1      -7.993  47.923  26.266  0.00  0.00    +0.000 C 
ATOM     14  C   UNL     1      -8.448  49.100  26.583  0.00  0.00    +0.000 C 
ATOM     15  C   UNL     1      -7.492  50.148  27.097  0.00  0.00    +0.000 C 
ATOM     16  C   UNL     1      -9.931  49.330  26.419  0.00  0.00    +0.000 C 
ENDROOT
TORSDOF 0
ENDMDL
MODEL 4
REMARK VINA RESULT:      -5.8      3.303      4.168
REMARK  Name = 5470187_Zerumbone.pdbqt.pdb
REMARK  0 active torsions:
REMARK  status: ('A' for Active; 'I' for Inactive)
REMARK                            x       y       z     vdW  Elec       q    Type
REMARK                         _______ _______ _______ _____ _____    ______ ____
ROOT
ATOM      1  O   UNL     1      -9.440  49.124  29.711  0.00  0.00    +0.000 OA
ATOM      2  C   UNL     1      -8.146  48.116  25.108  0.00  0.00    +0.000 C 
ATOM      3  C   UNL     1      -6.933  47.277  24.954  0.00  0.00    +0.000 C 
ATOM      4  C   UNL     1      -9.367  47.401  24.483  0.00  0.00    +0.000 C 
ATOM      5  C   UNL     1      -7.912  49.494  24.440  0.00  0.00    +0.000 C 
ATOM      6  C   UNL     1      -8.354  48.294  26.581  0.00  0.00    +0.000 C 
ATOM      7  C   UNL     1      -5.681  46.423  25.223  0.00  0.00    +0.000 C 
ATOM      8  C   UNL     1      -4.745  45.788  25.863  0.00  0.00    +0.000 C 
ATOM      9  C   UNL     1      -4.879  45.955  27.265  0.00  0.00    +0.000 C 
ATOM     10  C   UNL     1      -5.510  46.443  28.570  0.00  0.00    +0.000 C 
ATOM     11  C   UNL     1      -8.443  48.390  27.781  0.00  0.00    +0.000 C 
ATOM     12  C   UNL     1      -4.172  44.527  25.306  0.00  0.00    +0.000 C 
ATOM     13  C   UNL     1      -6.500  47.144  29.505  0.00  0.00    +0.000 C 
ATOM     14  C   UNL     1      -7.457  47.807  30.086  0.00  0.00    +0.000 C 
ATOM     15  C   UNL     1      -8.508  48.482  29.241  0.00  0.00    +0.000 C 
ATOM     16  C   UNL     1      -7.436  47.862  31.595  0.00  0.00    +0.000 C 
ENDROOT
TORSDOF 0
ENDMDL
MODEL 5
REMARK VINA RESULT:      -5.8      2.838      5.457
REMARK  Name = 5470187_Zerumbone.pdbqt.pdb
REMARK  0 active torsions:
REMARK  status: ('A' for Active; 'I' for Inactive)
REMARK                            x       y       z     vdW  Elec       q    Type
REMARK                         _______ _______ _______ _____ _____    ______ ____
ROOT
ATOM      1  O   UNL     1      -6.837  47.081  31.130  0.00  0.00    +0.000 OA
ATOM      2  C   UNL     1      -4.851  46.002  26.798  0.00  0.00    +0.000 C 
ATOM      3  C   UNL     1      -5.447  46.694  25.630  0.00  0.00    +0.000 C 
ATOM      4  C   UNL     1      -3.354  46.372  26.926  0.00  0.00    +0.000 C 
ATOM      5  C   UNL     1      -5.028  44.471  26.639  0.00  0.00    +0.000 C 
ATOM      6  C   UNL     1      -5.603  46.478  28.003  0.00  0.00    +0.000 C 
ATOM      7  C   UNL     1      -6.316  47.583  24.723  0.00  0.00    +0.000 C 
ATOM      8  C   UNL     1      -7.223  48.435  24.347  0.00  0.00    +0.000 C 
ATOM      9  C   UNL     1      -7.987  48.891  25.452  0.00  0.00    +0.000 C 
ATOM     10  C   UNL     1      -8.406  49.015  26.918  0.00  0.00    +0.000 C 
ATOM     11  C   UNL     1      -6.262  46.911  28.916  0.00  0.00    +0.000 C 
ATOM     12  C   UNL     1      -6.979  49.333  23.179  0.00  0.00    +0.000 C 
ATOM     13  C   UNL     1      -8.396  48.785  28.432  0.00  0.00    +0.000 C 
ATOM     14  C   UNL     1      -8.194  48.436  29.669  0.00  0.00    +0.000 C 
ATOM     15  C   UNL     1      -7.091  47.459  29.991  0.00  0.00    +0.000 C 
ATOM     16  C   UNL     1      -9.106  49.040  30.710  0.00  0.00    +0.000 C 
ENDROOT
TORSDOF 0
ENDMDL
MODEL 6
REMARK VINA RESULT:      -5.5      2.150      5.102
REMARK  Name = 5470187_Zerumbone.pdbqt.pdb
REMARK  0 active torsions:
REMARK  status: ('A' for Active; 'I' for Inactive)
REMARK                            x       y       z     vdW  Elec       q    Type
REMARK                         _______ _______ _______ _____ _____    ______ ____
ROOT
ATOM      1  O   UNL     1      -8.727  47.796  27.585  0.00  0.00    +0.000 OA
ATOM      2  C   UNL     1      -4.265  46.050  26.628  0.00  0.00    +0.000 C 
ATOM      3  C   UNL     1      -3.169  47.048  26.650  0.00  0.00    +0.000 C 
ATOM      4  C   UNL     1      -4.010  44.960  27.696  0.00  0.00    +0.000 C 
ATOM      5  C   UNL     1      -4.368  45.424  25.215  0.00  0.00    +0.000 C 
ATOM      6  C   UNL     1      -5.525  46.796  26.946  0.00  0.00    +0.000 C 
ATOM      7  C   UNL     1      -2.355  48.350  26.768  0.00  0.00    +0.000 C 
ATOM      8  C   UNL     1      -2.069  49.603  26.959  0.00  0.00    +0.000 C 
ATOM      9  C   UNL     1      -3.237  50.360  27.230  0.00  0.00    +0.000 C 
ATOM     10  C   UNL     1      -4.727  50.612  27.473  0.00  0.00    +0.000 C 
ATOM     11  C   UNL     1      -6.489  47.475  27.204  0.00  0.00    +0.000 C 
ATOM     12  C   UNL     1      -0.761  49.996  27.562  0.00  0.00    +0.000 C 
ATOM     13  C   UNL     1      -6.220  50.310  27.637  0.00  0.00    +0.000 C 
ATOM     14  C   UNL     1      -7.420  49.816  27.729  0.00  0.00    +0.000 C 
ATOM     15  C   UNL     1      -7.630  48.338  27.515  0.00  0.00    +0.000 C 
ATOM     16  C   UNL     1      -8.538  50.783  28.039  0.00  0.00    +0.000 C 
ENDROOT
TORSDOF 0
ENDMDL
MODEL 7
REMARK VINA RESULT:      -5.1     25.228     26.994
REMARK  Name = 5470187_Zerumbone.pdbqt.pdb
REMARK  0 active torsions:
REMARK  status: ('A' for Active; 'I' for Inactive)
REMARK                            x       y       z     vdW  Elec       q    Type
REMARK                         _______ _______ _______ _____ _____    ______ ____
ROOT
ATOM      1  O   UNL     1     -21.155  35.338   6.942  0.00  0.00    +0.000 OA
ATOM      2  C   UNL     1     -20.462  39.906   5.352  0.00  0.00    +0.000 C 
ATOM      3  C   UNL     1     -19.069  40.406   5.429  0.00  0.00    +0.000 C 
ATOM      4  C   UNL     1     -20.947  39.910   3.882  0.00  0.00    +0.000 C 
ATOM      5  C   UNL     1     -21.379  40.788   6.237  0.00  0.00    +0.000 C 
ATOM      6  C   UNL     1     -20.440  38.505   5.882  0.00  0.00    +0.000 C 
ATOM      7  C   UNL     1     -17.554  40.532   5.670  0.00  0.00    +0.000 C 
ATOM      8  C   UNL     1     -16.337  40.227   6.010  0.00  0.00    +0.000 C 
ATOM      9  C   UNL     1     -16.270  38.918   6.551  0.00  0.00    +0.000 C 
ATOM     10  C   UNL     1     -16.789  37.546   6.987  0.00  0.00    +0.000 C 
ATOM     11  C   UNL     1     -20.333  37.388   6.326  0.00  0.00    +0.000 C 
ATOM     12  C   UNL     1     -15.178  40.790   5.256  0.00  0.00    +0.000 C 
ATOM     13  C   UNL     1     -17.780  36.402   7.226  0.00  0.00    +0.000 C 
ATOM     14  C   UNL     1     -18.790  35.589   7.331  0.00  0.00    +0.000 C 
ATOM     15  C   UNL     1     -20.155  36.043   6.876  0.00  0.00    +0.000 C 
ATOM     16  C   UNL     1     -18.517  34.227   7.923  0.00  0.00    +0.000 C 
ENDROOT
TORSDOF 0
ENDMDL
MODEL 8
REMARK VINA RESULT:      -5.1     25.248     26.880
REMARK  Name = 5470187_Zerumbone.pdbqt.pdb
REMARK  0 active torsions:
REMARK  status: ('A' for Active; 'I' for Inactive)
REMARK                            x       y       z     vdW  Elec       q    Type
REMARK                         _______ _______ _______ _____ _____    ______ ____
ROOT
ATOM      1  O   UNL     1     -22.533  39.761   5.528  0.00  0.00    +0.000 OA
ATOM      2  C   UNL     1     -17.985  41.513   5.189  0.00  0.00    +0.000 C 
ATOM      3  C   UNL     1     -16.908  40.581   5.596  0.00  0.00    +0.000 C 
ATOM      4  C   UNL     1     -17.806  41.913   3.704  0.00  0.00    +0.000 C 
ATOM      5  C   UNL     1     -17.962  42.764   6.103  0.00  0.00    +0.000 C 
ATOM      6  C   UNL     1     -19.276  40.776   5.369  0.00  0.00    +0.000 C 
ATOM      7  C   UNL     1     -16.124  39.352   6.092  0.00  0.00    +0.000 C 
ATOM      8  C   UNL     1     -15.870  38.157   6.536  0.00  0.00    +0.000 C 
ATOM      9  C   UNL     1     -17.067  37.428   6.756  0.00  0.00    +0.000 C 
ATOM     10  C   UNL     1     -18.574  37.168   6.770  0.00  0.00    +0.000 C 
ATOM     11  C   UNL     1     -20.267  40.111   5.549  0.00  0.00    +0.000 C 
ATOM     12  C   UNL     1     -14.622  37.448   6.125  0.00  0.00    +0.000 C 
ATOM     13  C   UNL     1     -20.071  37.426   6.576  0.00  0.00    +0.000 C 
ATOM     14  C   UNL     1     -21.269  37.871   6.328  0.00  0.00    +0.000 C 
ATOM     15  C   UNL     1     -21.441  39.268   5.787  0.00  0.00    +0.000 C 
ATOM     16  C   UNL     1     -22.421  36.939   6.617  0.00  0.00    +0.000 C 
ENDROOT
TORSDOF 0
ENDMDL
MODEL 9
REMARK VINA RESULT:      -5.0     22.795     25.200
REMARK  Name = 5470187_Zerumbone.pdbqt.pdb
REMARK  0 active torsions:
REMARK  status: ('A' for Active; 'I' for Inactive)
REMARK                            x       y       z     vdW  Elec       q    Type
REMARK                         _______ _______ _______ _____ _____    ______ ____
ROOT
ATOM      1  O   UNL     1     -28.856  38.081  23.332  0.00  0.00    +0.000 OA
ATOM      2  C   UNL     1     -26.799  34.987  20.158  0.00  0.00    +0.000 C 
ATOM      3  C   UNL     1     -25.558  35.470  19.508  0.00  0.00    +0.000 C 
ATOM      4  C   UNL     1     -26.509  33.699  20.966  0.00  0.00    +0.000 C 
ATOM      5  C   UNL     1     -27.883  34.730  19.081  0.00  0.00    +0.000 C 
ATOM      6  C   UNL     1     -27.248  36.081  21.080  0.00  0.00    +0.000 C 
ATOM      7  C   UNL     1     -24.346  36.316  19.076  0.00  0.00    +0.000 C 
ATOM      8  C   UNL     1     -23.506  37.305  19.001  0.00  0.00    +0.000 C 
ATOM      9  C   UNL     1     -23.908  38.382  19.832  0.00  0.00    +0.000 C 
ATOM     10  C   UNL     1     -24.774  39.129  20.848  0.00  0.00    +0.000 C 
ATOM     11  C   UNL     1     -27.539  37.012  21.790  0.00  0.00    +0.000 C 
ATOM     12  C   UNL     1     -22.057  37.047  18.750  0.00  0.00    +0.000 C 
ATOM     13  C   UNL     1     -25.918  39.393  21.832  0.00  0.00    +0.000 C 
ATOM     14  C   UNL     1     -26.964  39.385  22.606  0.00  0.00    +0.000 C 
ATOM     15  C   UNL     1     -27.854  38.167  22.632  0.00  0.00    +0.000 C 
ATOM     16  C   UNL     1     -27.220  40.625  23.427  0.00  0.00    +0.000 C 
ENDROOT
TORSDOF 0
ENDMDL
