MODEL 1
REMARK VINA RESULT:      -5.2      0.000      0.000
REMARK  Name = 5azacytidine.pdbqt.pdb
REMARK  5 active torsions:
REMARK  status: ('A' for Active; 'I' for Inactive)
REMARK    1  A    between atoms: C2*_2  and  O2*_16
REMARK    2  A    between atoms: C3*_3  and  O3*_21
REMARK    3  A    between atoms: C4*_4  and  C5*_18
REMARK    4  A    between atoms: C1*_5  and  N_6
REMARK    5  A    between atoms: C5*_18  and  O5*_19
REMARK                            x       y       z     vdW  Elec       q    Type
REMARK                         _______ _______ _______ _____ _____    ______ ____
ROOT
ATOM      1  O4* UNL     1     -17.869  41.049   5.765  0.00  0.00    +0.000 OA
ATOM      2  C2* UNL     1     -15.597  41.427   5.640  0.00  0.00    +0.000 A 
ATOM      3  C3* UNL     1     -16.262  42.693   5.713  0.00  0.00    +0.000 A 
ATOM      4  C4* UNL     1     -17.672  42.440   5.801  0.00  0.00    +0.000 A 
ATOM      5  C1* UNL     1     -16.617  40.407   5.651  0.00  0.00    +0.000 A 
ENDROOT
BRANCH   5   6
ATOM      6  N   UNL     1     -16.526  39.052   5.531  0.00  0.00    +0.000 N 
ATOM      7  C   UNL     1     -16.048  38.332   4.443  0.00  0.00    +0.000 A 
ATOM      8  O   UNL     1     -15.663  38.854   3.399  0.00  0.00    +0.000 OA
ATOM      9  N   UNL     1     -16.050  36.949   4.605  0.00  0.00    +0.000 NA
ATOM     10  C   UNL     1     -16.483  36.411   5.718  0.00  0.00    +0.000 A 
ATOM     11  N   UNL     1     -16.986  37.132   6.786  0.00  0.00    +0.000 NA
ATOM     12  C   UNL     1     -16.918  38.268   6.533  0.00  0.00    +0.000 A 
ATOM     13  N   UNL     1     -16.462  35.059   5.832  0.00  0.00    +0.000 N 
ATOM     14  H   UNL     1     -17.143  34.683   6.479  0.00  0.00    +0.000 HD
ATOM     15  H   UNL     1     -16.409  34.578   4.942  0.00  0.00    +0.000 HD
ENDBRANCH   5   6
BRANCH   2  16
ATOM     16  O2* UNL     1     -14.395  41.330   4.996  0.00  0.00    +0.000 OA
ATOM     17  H2* UNL     1     -13.779  42.048   5.258  0.00  0.00    +0.000 HD
ENDBRANCH   2  16
BRANCH   3  18
ATOM     18  O3* UNL     1     -15.755  43.794   5.081  0.00  0.00    +0.000 OA
ATOM     19  H3* UNL     1     -16.385  44.107   4.405  0.00  0.00    +0.000 HD
ENDBRANCH   3  18
BRANCH   4  20
ATOM     20  C5* UNL     1     -18.724  43.357   5.618  0.00  0.00    +0.000 C 
BRANCH  20  21
ATOM     21  O5* UNL     1     -19.713  44.230   5.451  0.00  0.00    +0.000 OA
ATOM     22  H5* UNL     1     -20.552  43.759   5.304  0.00  0.00    +0.000 HD
ENDBRANCH  20  21
ENDBRANCH   4  20
TORSDOF 5
ENDMDL
MODEL 2
REMARK VINA RESULT:      -5.0     33.547     34.636
REMARK  Name = 5azacytidine.pdbqt.pdb
REMARK  5 active torsions:
REMARK  status: ('A' for Active; 'I' for Inactive)
REMARK    1  A    between atoms: C2*_2  and  O2*_16
REMARK    2  A    between atoms: C3*_3  and  O3*_21
REMARK    3  A    between atoms: C4*_4  and  C5*_18
REMARK    4  A    between atoms: C1*_5  and  N_6
REMARK    5  A    between atoms: C5*_18  and  O5*_19
REMARK                            x       y       z     vdW  Elec       q    Type
REMARK                         _______ _______ _______ _____ _____    ______ ____
ROOT
ATOM      1  O4* UNL     1      10.624  49.004  24.883  0.00  0.00    +0.000 OA
ATOM      2  C2* UNL     1      10.387  48.039  22.801  0.00  0.00    +0.000 A 
ATOM      3  C3* UNL     1       9.486  49.148  22.890  0.00  0.00    +0.000 A 
ATOM      4  C4* UNL     1       9.653  49.743  24.185  0.00  0.00    +0.000 A 
ATOM      5  C1* UNL     1      11.076  47.946  24.065  0.00  0.00    +0.000 A 
ENDROOT
BRANCH   5   6
ATOM      6  N   UNL     1      11.978  47.034  24.525  0.00  0.00    +0.000 N 
ATOM      7  C   UNL     1      11.721  45.737  24.956  0.00  0.00    +0.000 A 
ATOM      8  O   UNL     1      10.594  45.249  25.005  0.00  0.00    +0.000 OA
ATOM      9  N   UNL     1      12.843  45.016  25.354  0.00  0.00    +0.000 NA
ATOM     10  C   UNL     1      14.033  45.561  25.314  0.00  0.00    +0.000 A 
ATOM     11  N   UNL     1      14.279  46.863  24.912  0.00  0.00    +0.000 NA
ATOM     12  C   UNL     1      13.269  47.351  24.594  0.00  0.00    +0.000 A 
ATOM     13  N   UNL     1      15.098  44.818  25.709  0.00  0.00    +0.000 N 
ATOM     14  H   UNL     1      15.884  45.359  26.044  0.00  0.00    +0.000 HD
ATOM     15  H   UNL     1      14.847  44.026  26.288  0.00  0.00    +0.000 HD
ENDBRANCH   5   6
BRANCH   2  16
ATOM     16  O2* UNL     1      10.078  46.978  21.995  0.00  0.00    +0.000 OA
ATOM     17  H2* UNL     1      10.882  46.542  21.638  0.00  0.00    +0.000 HD
ENDBRANCH   2  16
BRANCH   3  18
ATOM     18  O3* UNL     1       8.282  49.133  22.242  0.00  0.00    +0.000 OA
ATOM     19  H3* UNL     1       7.568  48.930  22.875  0.00  0.00    +0.000 HD
ENDBRANCH   3  18
BRANCH   4  20
ATOM     20  C5* UNL     1       8.808  50.671  24.822  0.00  0.00    +0.000 C 
BRANCH  20  21
ATOM     21  O5* UNL     1       8.016  51.548  25.431  0.00  0.00    +0.000 OA
ATOM     22  H5* UNL     1       7.921  52.347  24.883  0.00  0.00    +0.000 HD
ENDBRANCH  20  21
ENDBRANCH   4  20
TORSDOF 5
ENDMDL
MODEL 3
REMARK VINA RESULT:      -5.0      3.059      5.619
REMARK  Name = 5azacytidine.pdbqt.pdb
REMARK  5 active torsions:
REMARK  status: ('A' for Active; 'I' for Inactive)
REMARK    1  A    between atoms: C2*_2  and  O2*_16
REMARK    2  A    between atoms: C3*_3  and  O3*_21
REMARK    3  A    between atoms: C4*_4  and  C5*_18
REMARK    4  A    between atoms: C1*_5  and  N_6
REMARK    5  A    between atoms: C5*_18  and  O5*_19
REMARK                            x       y       z     vdW  Elec       q    Type
REMARK                         _______ _______ _______ _____ _____    ______ ____
ROOT
ATOM      1  O4* UNL     1     -18.054  38.811   6.277  0.00  0.00    +0.000 OA
ATOM      2  C2* UNL     1     -15.938  39.230   5.461  0.00  0.00    +0.000 A 
ATOM      3  C3* UNL     1     -15.965  37.896   5.981  0.00  0.00    +0.000 A 
ATOM      4  C4* UNL     1     -17.290  37.648   6.474  0.00  0.00    +0.000 A 
ATOM      5  C1* UNL     1     -17.247  39.799   5.674  0.00  0.00    +0.000 A 
ENDROOT
BRANCH   5   6
ATOM      6  N   UNL     1     -17.726  41.051   5.429  0.00  0.00    +0.000 N 
ATOM      7  C   UNL     1     -17.178  42.259   5.842  0.00  0.00    +0.000 A 
ATOM      8  O   UNL     1     -16.167  42.345   6.536  0.00  0.00    +0.000 OA
ATOM      9  N   UNL     1     -17.872  43.393   5.427  0.00  0.00    +0.000 NA
ATOM     10  C   UNL     1     -18.959  43.280   4.706  0.00  0.00    +0.000 A 
ATOM     11  N   UNL     1     -19.516  42.072   4.323  0.00  0.00    +0.000 NA
ATOM     12  C   UNL     1     -18.840  41.209   4.718  0.00  0.00    +0.000 A 
ATOM     13  N   UNL     1     -19.600  44.413   4.321  0.00  0.00    +0.000 N 
ATOM     14  H   UNL     1     -20.588  44.295   4.142  0.00  0.00    +0.000 HD
ATOM     15  H   UNL     1     -19.362  45.223   4.881  0.00  0.00    +0.000 HD
ENDBRANCH   5   6
BRANCH   2  16
ATOM     16  O2* UNL     1     -14.765  39.934   5.463  0.00  0.00    +0.000 OA
ATOM     17  H2* UNL     1     -14.294  39.860   6.322  0.00  0.00    +0.000 HD
ENDBRANCH   2  16
BRANCH   3  18
ATOM     18  O3* UNL     1     -14.856  37.339   6.553  0.00  0.00    +0.000 OA
ATOM     19  H3* UNL     1     -14.541  37.903   7.284  0.00  0.00    +0.000 HD
ENDBRANCH   3  18
BRANCH   4  20
ATOM     20  C5* UNL     1     -17.715  36.597   7.309  0.00  0.00    +0.000 C 
BRANCH  20  21
ATOM     21  O5* UNL     1     -18.118  35.598   8.089  0.00  0.00    +0.000 OA
ATOM     22  H5* UNL     1     -18.385  35.943   8.958  0.00  0.00    +0.000 HD
ENDBRANCH  20  21
ENDBRANCH   4  20
TORSDOF 5
ENDMDL
MODEL 4
REMARK VINA RESULT:      -4.8     12.068     13.586
REMARK  Name = 5azacytidine.pdbqt.pdb
REMARK  5 active torsions:
REMARK  status: ('A' for Active; 'I' for Inactive)
REMARK    1  A    between atoms: C2*_2  and  O2*_16
REMARK    2  A    between atoms: C3*_3  and  O3*_21
REMARK    3  A    between atoms: C4*_4  and  C5*_18
REMARK    4  A    between atoms: C1*_5  and  N_6
REMARK    5  A    between atoms: C5*_18  and  O5*_19
REMARK                            x       y       z     vdW  Elec       q    Type
REMARK                         _______ _______ _______ _____ _____    ______ ____
ROOT
ATOM      1  O4* UNL     1      -4.829  39.384   2.783  0.00  0.00    +0.000 OA
ATOM      2  C2* UNL     1      -5.980  41.357   2.460  0.00  0.00    +0.000 A 
ATOM      3  C3* UNL     1      -6.807  40.472   3.223  0.00  0.00    +0.000 A 
ATOM      4  C4* UNL     1      -6.073  39.255   3.424  0.00  0.00    +0.000 A 
ATOM      5  C1* UNL     1      -4.753  40.654   2.172  0.00  0.00    +0.000 A 
ENDROOT
BRANCH   5   6
ATOM      6  N   UNL     1      -3.672  41.014   1.425  0.00  0.00    +0.000 N 
ATOM      7  C   UNL     1      -3.650  41.338   0.073  0.00  0.00    +0.000 A 
ATOM      8  O   UNL     1      -4.644  41.305  -0.649  0.00  0.00    +0.000 OA
ATOM      9  N   UNL     1      -2.400  41.693  -0.427  0.00  0.00    +0.000 NA
ATOM     10  C   UNL     1      -1.349  41.703   0.354  0.00  0.00    +0.000 A 
ATOM     11  N   UNL     1      -1.372  41.350   1.692  0.00  0.00    +0.000 NA
ATOM     12  C   UNL     1      -2.469  41.089   1.990  0.00  0.00    +0.000 A 
ATOM     13  N   UNL     1      -0.153  42.059  -0.178  0.00  0.00    +0.000 N 
ATOM     14  H   UNL     1       0.650  41.677   0.305  0.00  0.00    +0.000 HD
ATOM     15  H   UNL     1      -0.119  41.983  -1.187  0.00  0.00    +0.000 HD
ENDBRANCH   5   6
BRANCH   2  16
ATOM     16  O2* UNL     1      -6.558  42.293   1.648  0.00  0.00    +0.000 OA
ATOM     17  H2* UNL     1      -6.973  41.886   0.856  0.00  0.00    +0.000 HD
ENDBRANCH   2  16
BRANCH   3  18
ATOM     18  O3* UNL     1      -8.168  40.493   3.096  0.00  0.00    +0.000 OA
ATOM     19  H3* UNL     1      -8.413  40.473   2.152  0.00  0.00    +0.000 HD
ENDBRANCH   3  18
BRANCH   4  20
ATOM     20  C5* UNL     1      -6.569  38.015   3.871  0.00  0.00    +0.000 C 
BRANCH  20  21
ATOM     21  O5* UNL     1      -7.032  36.840   4.284  0.00  0.00    +0.000 OA
ATOM     22  H5* UNL     1      -6.746  36.137   3.675  0.00  0.00    +0.000 HD
ENDBRANCH  20  21
ENDBRANCH   4  20
TORSDOF 5
ENDMDL
MODEL 5
REMARK VINA RESULT:      -4.6     25.304     26.681
REMARK  Name = 5azacytidine.pdbqt.pdb
REMARK  5 active torsions:
REMARK  status: ('A' for Active; 'I' for Inactive)
REMARK    1  A    between atoms: C2*_2  and  O2*_16
REMARK    2  A    between atoms: C3*_3  and  O3*_21
REMARK    3  A    between atoms: C4*_4  and  C5*_18
REMARK    4  A    between atoms: C1*_5  and  N_6
REMARK    5  A    between atoms: C5*_18  and  O5*_19
REMARK                            x       y       z     vdW  Elec       q    Type
REMARK                         _______ _______ _______ _____ _____    ______ ____
ROOT
ATOM      1  O4* UNL     1       9.285  49.193   7.590  0.00  0.00    +0.000 OA
ATOM      2  C2* UNL     1       7.398  49.014   8.905  0.00  0.00    +0.000 A 
ATOM      3  C3* UNL     1       7.850  50.371   8.947  0.00  0.00    +0.000 A 
ATOM      4  C4* UNL     1       9.016  50.468   8.116  0.00  0.00    +0.000 A 
ATOM      5  C1* UNL     1       8.319  48.282   8.069  0.00  0.00    +0.000 A 
ENDROOT
BRANCH   5   6
ATOM      6  N   UNL     1       8.385  46.956   7.761  0.00  0.00    +0.000 N 
ATOM      7  C   UNL     1       9.206  45.996   8.340  0.00  0.00    +0.000 A 
ATOM      8  O   UNL     1      10.031  46.245   9.216  0.00  0.00    +0.000 OA
ATOM      9  N   UNL     1       9.045  44.706   7.840  0.00  0.00    +0.000 NA
ATOM     10  C   UNL     1       8.175  44.463   6.893  0.00  0.00    +0.000 A 
ATOM     11  N   UNL     1       7.382  45.430   6.300  0.00  0.00    +0.000 NA
ATOM     12  C   UNL     1       7.600  46.455   6.811  0.00  0.00    +0.000 A 
ATOM     13  N   UNL     1       8.051  43.190   6.440  0.00  0.00    +0.000 N 
ATOM     14  H   UNL     1       7.706  43.114   5.492  0.00  0.00    +0.000 HD
ATOM     15  H   UNL     1       8.851  42.605   6.651  0.00  0.00    +0.000 HD
ENDBRANCH   5   6
BRANCH   2  16
ATOM     16  O2* UNL     1       6.721  48.492   9.972  0.00  0.00    +0.000 OA
ATOM     17  H2* UNL     1       7.317  48.309  10.731  0.00  0.00    +0.000 HD
ENDBRANCH   2  16
BRANCH   3  18
ATOM     18  O3* UNL     1       7.686  51.136  10.068  0.00  0.00    +0.000 OA
ATOM     19  H3* UNL     1       8.187  51.968   9.978  0.00  0.00    +0.000 HD
ENDBRANCH   3  18
BRANCH   4  20
ATOM     20  C5* UNL     1       9.952  51.519   8.065  0.00  0.00    +0.000 C 
BRANCH  20  21
ATOM     21  O5* UNL     1      10.835  52.512   8.027  0.00  0.00    +0.000 OA
ATOM     22  H5* UNL     1      11.543  52.352   8.676  0.00  0.00    +0.000 HD
ENDBRANCH  20  21
ENDBRANCH   4  20
TORSDOF 5
ENDMDL
MODEL 6
REMARK VINA RESULT:      -4.6     22.919     24.054
REMARK  Name = 5azacytidine.pdbqt.pdb
REMARK  5 active torsions:
REMARK  status: ('A' for Active; 'I' for Inactive)
REMARK    1  A    between atoms: C2*_2  and  O2*_16
REMARK    2  A    between atoms: C3*_3  and  O3*_21
REMARK    3  A    between atoms: C4*_4  and  C5*_18
REMARK    4  A    between atoms: C1*_5  and  N_6
REMARK    5  A    between atoms: C5*_18  and  O5*_19
REMARK                            x       y       z     vdW  Elec       q    Type
REMARK                         _______ _______ _______ _____ _____    ______ ____
ROOT
ATOM      1  O4* UNL     1      -7.194  46.908  25.545  0.00  0.00    +0.000 OA
ATOM      2  C2* UNL     1      -7.760  47.839  27.578  0.00  0.00    +0.000 A 
ATOM      3  C3* UNL     1      -6.728  46.872  27.796  0.00  0.00    +0.000 A 
ATOM      4  C4* UNL     1      -6.380  46.310  26.522  0.00  0.00    +0.000 A 
ATOM      5  C1* UNL     1      -8.059  47.835  26.167  0.00  0.00    +0.000 A 
ENDROOT
BRANCH   5   6
ATOM      6  N   UNL     1      -9.002  48.511  25.452  0.00  0.00    +0.000 N 
ATOM      7  C   UNL     1     -10.052  47.971  24.719  0.00  0.00    +0.000 A 
ATOM      8  O   UNL     1     -10.246  46.764  24.597  0.00  0.00    +0.000 OA
ATOM      9  N   UNL     1     -10.880  48.905  24.103  0.00  0.00    +0.000 NA
ATOM     10  C   UNL     1     -10.646  50.187  24.228  0.00  0.00    +0.000 A 
ATOM     11  N   UNL     1      -9.581  50.717  24.934  0.00  0.00    +0.000 NA
ATOM     12  C   UNL     1      -8.976  49.841  25.409  0.00  0.00    +0.000 A 
ATOM     13  N   UNL     1     -11.483  51.060  23.611  0.00  0.00    +0.000 N 
ATOM     14  H   UNL     1     -11.066  51.954  23.390  0.00  0.00    +0.000 HD
ATOM     15  H   UNL     1     -12.023  50.644  22.862  0.00  0.00    +0.000 HD
ENDBRANCH   5   6
BRANCH   2  16
ATOM     16  O2* UNL     1      -8.662  48.102  28.572  0.00  0.00    +0.000 OA
ATOM     17  H2* UNL     1      -9.553  48.308  28.213  0.00  0.00    +0.000 HD
ENDBRANCH   2  16
BRANCH   3  18
ATOM     18  O3* UNL     1      -6.672  46.146  28.954  0.00  0.00    +0.000 OA
ATOM     19  H3* UNL     1      -6.229  45.293  28.790  0.00  0.00    +0.000 HD
ENDBRANCH   3  18
BRANCH   4  20
ATOM     20  C5* UNL     1      -5.626  45.148  26.270  0.00  0.00    +0.000 C 
BRANCH  20  21
ATOM     21  O5* UNL     1      -4.923  44.046  26.030  0.00  0.00    +0.000 OA
ATOM     22  H5* UNL     1      -5.497  43.363  25.642  0.00  0.00    +0.000 HD
ENDBRANCH  20  21
ENDBRANCH   4  20
TORSDOF 5
ENDMDL
MODEL 7
REMARK VINA RESULT:      -4.6     22.607     23.716
REMARK  Name = 5azacytidine.pdbqt.pdb
REMARK  5 active torsions:
REMARK  status: ('A' for Active; 'I' for Inactive)
REMARK    1  A    between atoms: C2*_2  and  O2*_16
REMARK    2  A    between atoms: C3*_3  and  O3*_21
REMARK    3  A    between atoms: C4*_4  and  C5*_18
REMARK    4  A    between atoms: C1*_5  and  N_6
REMARK    5  A    between atoms: C5*_18  and  O5*_19
REMARK                            x       y       z     vdW  Elec       q    Type
REMARK                         _______ _______ _______ _____ _____    ______ ____
ROOT
ATOM      1  O4* UNL     1      -8.397  47.532  26.751  0.00  0.00    +0.000 OA
ATOM      2  C2* UNL     1      -7.087  47.781  24.868  0.00  0.00    +0.000 A 
ATOM      3  C3* UNL     1      -6.339  47.050  25.845  0.00  0.00    +0.000 A 
ATOM      4  C4* UNL     1      -7.171  46.895  27.004  0.00  0.00    +0.000 A 
ATOM      5  C1* UNL     1      -8.366  48.097  25.457  0.00  0.00    +0.000 A 
ENDROOT
BRANCH   5   6
ATOM      6  N   UNL     1      -9.411  48.832  24.982  0.00  0.00    +0.000 N 
ATOM      7  C   UNL     1     -10.550  48.361  24.341  0.00  0.00    +0.000 A 
ATOM      8  O   UNL     1     -10.745  47.174  24.085  0.00  0.00    +0.000 OA
ATOM      9  N   UNL     1     -11.471  49.341  23.980  0.00  0.00    +0.000 NA
ATOM     10  C   UNL     1     -11.236  50.602  24.243  0.00  0.00    +0.000 A 
ATOM     11  N   UNL     1     -10.086  51.068  24.856  0.00  0.00    +0.000 NA
ATOM     12  C   UNL     1      -9.409  50.156  25.117  0.00  0.00    +0.000 A 
ATOM     13  N   UNL     1     -12.164  51.522  23.877  0.00  0.00    +0.000 N 
ATOM     14  H   UNL     1     -11.795  52.451  23.721  0.00  0.00    +0.000 HD
ATOM     15  H   UNL     1     -12.802  51.192  23.162  0.00  0.00    +0.000 HD
ENDBRANCH   5   6
BRANCH   2  16
ATOM     16  O2* UNL     1      -6.430  48.558  23.954  0.00  0.00    +0.000 OA
ATOM     17  H2* UNL     1      -5.487  48.301  23.865  0.00  0.00    +0.000 HD
ENDBRANCH   2  16
BRANCH   3  18
ATOM     18  O3* UNL     1      -4.980  47.174  25.932  0.00  0.00    +0.000 OA
ATOM     19  H3* UNL     1      -4.642  46.611  26.653  0.00  0.00    +0.000 HD
ENDBRANCH   3  18
BRANCH   4  20
ATOM     20  C5* UNL     1      -6.781  46.493  28.296  0.00  0.00    +0.000 C 
BRANCH  20  21
ATOM     21  O5* UNL     1      -6.421  46.118  29.520  0.00  0.00    +0.000 OA
ATOM     22  H5* UNL     1      -7.208  45.877  30.039  0.00  0.00    +0.000 HD
ENDBRANCH  20  21
ENDBRANCH   4  20
TORSDOF 5
ENDMDL
MODEL 8
REMARK VINA RESULT:      -4.6     12.770     14.469
REMARK  Name = 5azacytidine.pdbqt.pdb
REMARK  5 active torsions:
REMARK  status: ('A' for Active; 'I' for Inactive)
REMARK    1  A    between atoms: C2*_2  and  O2*_16
REMARK    2  A    between atoms: C3*_3  and  O3*_21
REMARK    3  A    between atoms: C4*_4  and  C5*_18
REMARK    4  A    between atoms: C1*_5  and  N_6
REMARK    5  A    between atoms: C5*_18  and  O5*_19
REMARK                            x       y       z     vdW  Elec       q    Type
REMARK                         _______ _______ _______ _____ _____    ______ ____
ROOT
ATOM      1  O4* UNL     1      -2.485  38.268   2.316  0.00  0.00    +0.000 OA
ATOM      2  C2* UNL     1      -1.888  40.493   2.422  0.00  0.00    +0.000 A 
ATOM      3  C3* UNL     1      -0.696  39.703   2.481  0.00  0.00    +0.000 A 
ATOM      4  C4* UNL     1      -1.084  38.324   2.404  0.00  0.00    +0.000 A 
ATOM      5  C1* UNL     1      -3.003  39.580   2.342  0.00  0.00    +0.000 A 
ENDROOT
BRANCH   5   6
ATOM      6  N   UNL     1      -4.346  39.810   2.335  0.00  0.00    +0.000 N 
ATOM      7  C   UNL     1      -5.066  40.574   1.424  0.00  0.00    +0.000 A 
ATOM      8  O   UNL     1      -4.549  41.188   0.493  0.00  0.00    +0.000 OA
ATOM      9  N   UNL     1      -6.440  40.617   1.648  0.00  0.00    +0.000 NA
ATOM     10  C   UNL     1      -6.970  39.973   2.657  0.00  0.00    +0.000 A 
ATOM     11  N   UNL     1      -6.244  39.238   3.578  0.00  0.00    +0.000 NA
ATOM     12  C   UNL     1      -5.118  39.269   3.274  0.00  0.00    +0.000 A 
ATOM     13  N   UNL     1      -8.314  40.041   2.833  0.00  0.00    +0.000 N 
ATOM     14  H   UNL     1      -8.619  39.897   3.787  0.00  0.00    +0.000 HD
ATOM     15  H   UNL     1      -8.745  40.827   2.361  0.00  0.00    +0.000 HD
ENDBRANCH   5   6
BRANCH   2  16
ATOM     16  O2* UNL     1      -1.919  41.720   3.026  0.00  0.00    +0.000 OA
ATOM     17  H2* UNL     1      -1.042  42.162   3.003  0.00  0.00    +0.000 HD
ENDBRANCH   2  16
BRANCH   3  18
ATOM     18  O3* UNL     1       0.391  40.118   3.199  0.00  0.00    +0.000 OA
ATOM     19  H3* UNL     1       0.132  40.837   3.806  0.00  0.00    +0.000 HD
ENDBRANCH   3  18
BRANCH   4  20
ATOM     20  C5* UNL     1      -0.299  37.191   2.695  0.00  0.00    +0.000 C 
BRANCH  20  21
ATOM     21  O5* UNL     1       0.448  36.128   2.976  0.00  0.00    +0.000 OA
ATOM     22  H5* UNL     1       0.232  35.400   2.368  0.00  0.00    +0.000 HD
ENDBRANCH  20  21
ENDBRANCH   4  20
TORSDOF 5
ENDMDL
MODEL 9
REMARK VINA RESULT:      -4.5     13.527     14.855
REMARK  Name = 5azacytidine.pdbqt.pdb
REMARK  5 active torsions:
REMARK  status: ('A' for Active; 'I' for Inactive)
REMARK    1  A    between atoms: C2*_2  and  O2*_16
REMARK    2  A    between atoms: C3*_3  and  O3*_21
REMARK    3  A    between atoms: C4*_4  and  C5*_18
REMARK    4  A    between atoms: C1*_5  and  N_6
REMARK    5  A    between atoms: C5*_18  and  O5*_19
REMARK                            x       y       z     vdW  Elec       q    Type
REMARK                         _______ _______ _______ _____ _____    ______ ____
ROOT
ATOM      1  O4* UNL     1      -3.959  40.935   0.851  0.00  0.00    +0.000 OA
ATOM      2  C2* UNL     1      -4.151  39.448   2.604  0.00  0.00    +0.000 A 
ATOM      3  C3* UNL     1      -5.453  39.958   2.300  0.00  0.00    +0.000 A 
ATOM      4  C4* UNL     1      -5.318  40.872   1.202  0.00  0.00    +0.000 A 
ATOM      5  C1* UNL     1      -3.221  40.086   1.704  0.00  0.00    +0.000 A 
ENDROOT
BRANCH   5   6
ATOM      6  N   UNL     1      -1.863  40.008   1.620  0.00  0.00    +0.000 N 
ATOM      7  C   UNL     1      -0.936  40.375   2.588  0.00  0.00    +0.000 A 
ATOM      8  O   UNL     1      -1.244  40.867   3.672  0.00  0.00    +0.000 OA
ATOM      9  N   UNL     1       0.395  40.164   2.239  0.00  0.00    +0.000 NA
ATOM     10  C   UNL     1       0.704  39.657   1.071  0.00  0.00    +0.000 A 
ATOM     11  N   UNL     1      -0.223  39.321   0.100  0.00  0.00    +0.000 NA
ATOM     12  C   UNL     1      -1.291  39.531   0.517  0.00  0.00    +0.000 A 
ATOM     13  N   UNL     1       2.015  39.466   0.777  0.00  0.00    +0.000 N 
ATOM     14  H   UNL     1       2.227  39.472  -0.212  0.00  0.00    +0.000 HD
ATOM     15  H   UNL     1       2.644  40.015   1.351  0.00  0.00    +0.000 HD
ENDBRANCH   5   6
BRANCH   2  16
ATOM     16  O2* UNL     1      -3.861  39.047   3.879  0.00  0.00    +0.000 OA
ATOM     17  H2* UNL     1      -4.457  39.464   4.539  0.00  0.00    +0.000 HD
ENDBRANCH   2  16
BRANCH   3  18
ATOM     18  O3* UNL     1      -6.392  40.125   3.279  0.00  0.00    +0.000 OA
ATOM     19  H3* UNL     1      -7.196  39.619   3.058  0.00  0.00    +0.000 HD
ENDBRANCH   3  18
BRANCH   4  20
ATOM     20  C5* UNL     1      -6.262  41.810   0.741  0.00  0.00    +0.000 C 
BRANCH  20  21
ATOM     21  O5* UNL     1      -7.146  42.699   0.299  0.00  0.00    +0.000 OA
ATOM     22  H5* UNL     1      -6.937  43.580   0.655  0.00  0.00    +0.000 HD
ENDBRANCH  20  21
ENDBRANCH   4  20
TORSDOF 5
ENDMDL
