MODEL 1
REMARK VINA RESULT:      -5.9      0.000      0.000
REMARK  Name = 60953_Capecitabine.pdbqt.pdb
REMARK  6 active torsions:
REMARK  status: ('A' for Active; 'I' for Inactive)
REMARK    1  A    between atoms: N_4  and  C_16
REMARK    2  A    between atoms: C_11  and  O_23
REMARK    3  A    between atoms: C_14  and  O_19
REMARK    4  A    between atoms: C_15  and  O_21
REMARK    5  A    between atoms: O_23  and  C_24
REMARK    6  A    between atoms: C_25  and  C_26
REMARK                            x       y       z     vdW  Elec       q    Type
REMARK                         _______ _______ _______ _____ _____    ______ ____
ROOT
ATOM      1  F   UNL     1      -6.512  48.629  28.446  0.00  0.00    +0.000 F 
ATOM      2  O   UNL     1      -9.286  46.465  24.406  0.00  0.00    +0.000 OA
ATOM      3  O   UNL     1      -4.740  45.529  24.960  0.00  0.00    +0.000 OA
ATOM      4  N   UNL     1      -9.210  47.995  26.153  0.00  0.00    +0.000 N 
ATOM      5  N   UNL     1      -7.266  46.786  25.434  0.00  0.00    +0.000 NA
ATOM      6  N   UNL     1      -5.232  47.134  26.572  0.00  0.00    +0.000 N 
ATOM      7  C   UNL     1      -8.383  48.567  27.051  0.00  0.00    +0.000 C 
ATOM      8  C   UNL     1      -8.633  47.048  25.268  0.00  0.00    +0.000 C 
ATOM      9  C   UNL     1      -7.120  48.446  27.261  0.00  0.00    +0.000 C 
ATOM     10  C   UNL     1      -6.568  47.396  26.346  0.00  0.00    +0.000 C 
ATOM     11  C   UNL     1      -4.428  46.234  25.908  0.00  0.00    +0.000 C 
ATOM     12  H   UNL     1      -4.766  47.625  27.322  0.00  0.00    +0.000 HD
ENDROOT
BRANCH   4  16
ATOM     13  O   UNL     1     -11.346  48.169  27.279  0.00  0.00    +0.000 OA
ATOM     14  C   UNL     1     -11.337  49.001  25.128  0.00  0.00    +0.000 A 
ATOM     15  C   UNL     1     -12.667  49.109  25.646  0.00  0.00    +0.000 A 
ATOM     16  C   UNL     1     -10.524  48.385  26.150  0.00  0.00    +0.000 A 
ATOM     17  C   UNL     1     -12.651  48.598  26.990  0.00  0.00    +0.000 A 
ATOM     18  C   UNL     1     -13.766  48.240  27.910  0.00  0.00    +0.000 C 
BRANCH  14  19
ATOM     19  O   UNL     1     -11.150  48.861  23.781  0.00  0.00    +0.000 OA
ATOM     20  H   UNL     1     -11.986  48.643  23.312  0.00  0.00    +0.000 HD
ENDBRANCH  14  19
BRANCH  15  21
ATOM     21  O   UNL     1     -13.756  49.035  24.819  0.00  0.00    +0.000 OA
ATOM     22  H   UNL     1     -14.561  48.832  25.332  0.00  0.00    +0.000 HD
ENDBRANCH  15  21
ENDBRANCH   4  16
BRANCH  11  23
ATOM     23  O   UNL     1      -3.187  46.262  26.480  0.00  0.00    +0.000 OA
BRANCH  23  24
ATOM     24  C   UNL     1      -2.633  47.466  26.603  0.00  0.00    +0.000 C 
ATOM     25  C   UNL     1      -1.994  48.852  26.746  0.00  0.00    +0.000 C 
BRANCH  25  26
ATOM     26  C   UNL     1      -1.354  50.235  26.891  0.00  0.00    +0.000 C 
ATOM     27  C   UNL     1      -0.714  51.618  27.043  0.00  0.00    +0.000 C 
ATOM     28  C   UNL     1      -0.068  52.998  27.207  0.00  0.00    +0.000 C 
ENDBRANCH  25  26
ENDBRANCH  23  24
ENDBRANCH  11  23
TORSDOF 6
ENDMDL
MODEL 2
REMARK VINA RESULT:      -5.8     23.969     27.126
REMARK  Name = 60953_Capecitabine.pdbqt.pdb
REMARK  6 active torsions:
REMARK  status: ('A' for Active; 'I' for Inactive)
REMARK    1  A    between atoms: N_4  and  C_16
REMARK    2  A    between atoms: C_11  and  O_23
REMARK    3  A    between atoms: C_14  and  O_19
REMARK    4  A    between atoms: C_15  and  O_21
REMARK    5  A    between atoms: O_23  and  C_24
REMARK    6  A    between atoms: C_25  and  C_26
REMARK                            x       y       z     vdW  Elec       q    Type
REMARK                         _______ _______ _______ _____ _____    ______ ____
ROOT
ATOM      1  F   UNL     1       4.070  28.734  12.738  0.00  0.00    +0.000 F 
ATOM      2  O   UNL     1      -0.150  28.709   9.438  0.00  0.00    +0.000 OA
ATOM      3  O   UNL     1      -0.729  28.426  14.069  0.00  0.00    +0.000 OA
ATOM      4  N   UNL     1       2.157  28.603   9.695  0.00  0.00    +0.000 N 
ATOM      5  N   UNL     1       0.662  28.506  11.570  0.00  0.00    +0.000 NA
ATOM      6  N   UNL     1       1.573  28.346  13.736  0.00  0.00    +0.000 N 
ATOM      7  C   UNL     1       3.136  28.480  10.614  0.00  0.00    +0.000 C 
ATOM      8  C   UNL     1       0.824  28.607  10.181  0.00  0.00    +0.000 C 
ATOM      9  C   UNL     1       3.107  28.331  11.891  0.00  0.00    +0.000 C 
ATOM     10  C   UNL     1       1.687  28.401  12.362  0.00  0.00    +0.000 C 
ATOM     11  C   UNL     1       0.419  28.383  14.486  0.00  0.00    +0.000 C 
ATOM     12  H   UNL     1       2.419  28.299  14.287  0.00  0.00    +0.000 HD
ENDROOT
BRANCH   4  16
ATOM     13  O   UNL     1       3.566  27.893   7.859  0.00  0.00    +0.000 OA
ATOM     14  C   UNL     1       2.041  29.532   7.305  0.00  0.00    +0.000 A 
ATOM     15  C   UNL     1       2.843  29.256   6.153  0.00  0.00    +0.000 A 
ATOM     16  C   UNL     1       2.521  28.691   8.377  0.00  0.00    +0.000 A 
ATOM     17  C   UNL     1       3.778  28.225   6.512  0.00  0.00    +0.000 A 
ATOM     18  C   UNL     1       4.992  27.722   5.810  0.00  0.00    +0.000 C 
BRANCH  14  19
ATOM     19  O   UNL     1       1.497  30.776   7.463  0.00  0.00    +0.000 OA
ATOM     20  H   UNL     1       2.156  31.431   7.785  0.00  0.00    +0.000 HD
ENDBRANCH  14  19
BRANCH  15  21
ATOM     21  O   UNL     1       3.106  30.230   5.225  0.00  0.00    +0.000 OA
ATOM     22  H   UNL     1       3.138  29.846   4.328  0.00  0.00    +0.000 HD
ENDBRANCH  15  21
ENDBRANCH   4  16
BRANCH  11  23
ATOM     23  O   UNL     1       0.762  28.348  15.809  0.00  0.00    +0.000 OA
BRANCH  23  24
ATOM     24  C   UNL     1      -0.233  28.106  16.659  0.00  0.00    +0.000 C 
ATOM     25  C   UNL     1      -1.378  27.829  17.640  0.00  0.00    +0.000 C 
BRANCH  25  26
ATOM     26  C   UNL     1      -2.520  27.554  18.621  0.00  0.00    +0.000 C 
ATOM     27  C   UNL     1      -3.663  27.271  19.600  0.00  0.00    +0.000 C 
ATOM     28  C   UNL     1      -4.805  26.976  20.579  0.00  0.00    +0.000 C 
ENDBRANCH  25  26
ENDBRANCH  23  24
ENDBRANCH  11  23
TORSDOF 6
ENDMDL
MODEL 3
REMARK VINA RESULT:      -5.7     23.753     26.108
REMARK  Name = 60953_Capecitabine.pdbqt.pdb
REMARK  6 active torsions:
REMARK  status: ('A' for Active; 'I' for Inactive)
REMARK    1  A    between atoms: N_4  and  C_16
REMARK    2  A    between atoms: C_11  and  O_23
REMARK    3  A    between atoms: C_14  and  O_19
REMARK    4  A    between atoms: C_15  and  O_21
REMARK    5  A    between atoms: O_23  and  C_24
REMARK    6  A    between atoms: C_25  and  C_26
REMARK                            x       y       z     vdW  Elec       q    Type
REMARK                         _______ _______ _______ _____ _____    ______ ____
ROOT
ATOM      1  F   UNL     1     -17.748  36.375   7.578  0.00  0.00    +0.000 F 
ATOM      2  O   UNL     1     -15.713  38.895   3.311  0.00  0.00    +0.000 OA
ATOM      3  O   UNL     1     -15.790  34.225   3.523  0.00  0.00    +0.000 OA
ATOM      4  N   UNL     1     -16.529  39.032   5.482  0.00  0.00    +0.000 N 
ATOM      5  N   UNL     1     -16.095  36.926   4.416  0.00  0.00    +0.000 NA
ATOM      6  N   UNL     1     -16.558  34.943   5.599  0.00  0.00    +0.000 N 
ATOM      7  C   UNL     1     -16.901  38.289   6.543  0.00  0.00    +0.000 C 
ATOM      8  C   UNL     1     -16.081  38.326   4.336  0.00  0.00    +0.000 C 
ATOM      9  C   UNL     1     -16.909  37.019   6.749  0.00  0.00    +0.000 C 
ATOM     10  C   UNL     1     -16.486  36.316   5.496  0.00  0.00    +0.000 C 
ATOM     11  C   UNL     1     -16.240  34.009   4.638  0.00  0.00    +0.000 C 
ATOM     12  H   UNL     1     -16.905  34.543   6.460  0.00  0.00    +0.000 HD
ENDROOT
BRANCH   4  16
ATOM     13  O   UNL     1     -17.833  41.061   5.691  0.00  0.00    +0.000 OA
ATOM     14  C   UNL     1     -15.553  41.402   5.619  0.00  0.00    +0.000 A 
ATOM     15  C   UNL     1     -16.198  42.678   5.678  0.00  0.00    +0.000 A 
ATOM     16  C   UNL     1     -16.590  40.396   5.600  0.00  0.00    +0.000 A 
ATOM     17  C   UNL     1     -17.615  42.447   5.736  0.00  0.00    +0.000 A 
ATOM     18  C   UNL     1     -18.764  43.380   5.566  0.00  0.00    +0.000 C 
BRANCH  14  19
ATOM     19  O   UNL     1     -14.337  41.292   5.007  0.00  0.00    +0.000 OA
ATOM     20  H   UNL     1     -14.370  41.567   4.063  0.00  0.00    +0.000 HD
ENDBRANCH  14  19
BRANCH  15  21
ATOM     21  O   UNL     1     -15.632  43.784   5.099  0.00  0.00    +0.000 OA
ATOM     22  H   UNL     1     -14.782  43.996   5.528  0.00  0.00    +0.000 HD
ENDBRANCH  15  21
ENDBRANCH   4  16
BRANCH  11  23
ATOM     23  O   UNL     1     -16.499  32.765   5.142  0.00  0.00    +0.000 OA
BRANCH  23  24
ATOM     24  C   UNL     1     -17.589  32.663   5.900  0.00  0.00    +0.000 C 
ATOM     25  C   UNL     1     -18.844  32.543   6.772  0.00  0.00    +0.000 C 
BRANCH  25  26
ATOM     26  C   UNL     1     -20.097  32.421   7.643  0.00  0.00    +0.000 C 
ATOM     27  C   UNL     1     -21.353  32.305   8.511  0.00  0.00    +0.000 C 
ATOM     28  C   UNL     1     -22.618  32.194   9.370  0.00  0.00    +0.000 C 
ENDBRANCH  25  26
ENDBRANCH  23  24
ENDBRANCH  11  23
TORSDOF 6
ENDMDL
MODEL 4
REMARK VINA RESULT:      -5.6     23.837     25.656
REMARK  Name = 60953_Capecitabine.pdbqt.pdb
REMARK  6 active torsions:
REMARK  status: ('A' for Active; 'I' for Inactive)
REMARK    1  A    between atoms: N_4  and  C_16
REMARK    2  A    between atoms: C_11  and  O_23
REMARK    3  A    between atoms: C_14  and  O_19
REMARK    4  A    between atoms: C_15  and  O_21
REMARK    5  A    between atoms: O_23  and  C_24
REMARK    6  A    between atoms: C_25  and  C_26
REMARK                            x       y       z     vdW  Elec       q    Type
REMARK                         _______ _______ _______ _____ _____    ______ ____
ROOT
ATOM      1  F   UNL     1     -19.534  40.822   6.578  0.00  0.00    +0.000 F 
ATOM      2  O   UNL     1     -16.643  36.333   6.139  0.00  0.00    +0.000 OA
ATOM      3  O   UNL     1     -14.685  40.521   5.440  0.00  0.00    +0.000 OA
ATOM      4  N   UNL     1     -18.733  37.321   6.371  0.00  0.00    +0.000 N 
ATOM      5  N   UNL     1     -16.761  38.609   5.912  0.00  0.00    +0.000 NA
ATOM      6  N   UNL     1     -16.952  40.950   5.740  0.00  0.00    +0.000 N 
ATOM      7  C   UNL     1     -19.377  38.505   6.335  0.00  0.00    +0.000 C 
ATOM      8  C   UNL     1     -17.334  37.350   6.135  0.00  0.00    +0.000 C 
ATOM      9  C   UNL     1     -18.971  39.702   6.093  0.00  0.00    +0.000 C 
ATOM     10  C   UNL     1     -17.485  39.689   5.909  0.00  0.00    +0.000 C 
ATOM     11  C   UNL     1     -15.631  41.287   5.545  0.00  0.00    +0.000 C 
ATOM     12  H   UNL     1     -17.575  41.745   5.784  0.00  0.00    +0.000 HD
ENDROOT
BRANCH   4  16
ATOM     13  O   UNL     1     -20.820  36.109   6.182  0.00  0.00    +0.000 OA
ATOM     14  C   UNL     1     -19.156  34.966   7.298  0.00  0.00    +0.000 A 
ATOM     15  C   UNL     1     -20.343  34.165   7.315  0.00  0.00    +0.000 A 
ATOM     16  C   UNL     1     -19.476  36.194   6.608  0.00  0.00    +0.000 A 
ATOM     17  C   UNL     1     -21.363  34.887   6.606  0.00  0.00    +0.000 A 
ATOM     18  C   UNL     1     -22.834  34.663   6.518  0.00  0.00    +0.000 C 
BRANCH  14  19
ATOM     19  O   UNL     1     -18.248  34.844   8.311  0.00  0.00    +0.000 OA
ATOM     20  H   UNL     1     -17.457  34.327   8.040  0.00  0.00    +0.000 HD
ENDBRANCH  14  19
BRANCH  15  21
ATOM     21  O   UNL     1     -20.601  33.307   8.352  0.00  0.00    +0.000 OA
ATOM     22  H   UNL     1     -19.851  33.292   8.976  0.00  0.00    +0.000 HD
ENDBRANCH  15  21
ENDBRANCH   4  16
BRANCH  11  23
ATOM     23  O   UNL     1     -15.539  42.649   5.469  0.00  0.00    +0.000 OA
BRANCH  23  24
ATOM     24  C   UNL     1     -15.510  43.159   4.240  0.00  0.00    +0.000 C 
ATOM     25  C   UNL     1     -15.477  43.749   2.826  0.00  0.00    +0.000 C 
BRANCH  25  26
ATOM     26  C   UNL     1     -15.447  44.340   1.414  0.00  0.00    +0.000 C 
ATOM     27  C   UNL     1     -15.409  44.931   0.002  0.00  0.00    +0.000 C 
ATOM     28  C   UNL     1     -15.359  45.520  -1.412  0.00  0.00    +0.000 C 
ENDBRANCH  25  26
ENDBRANCH  23  24
ENDBRANCH  11  23
TORSDOF 6
ENDMDL
MODEL 5
REMARK VINA RESULT:      -5.5     23.773     25.697
REMARK  Name = 60953_Capecitabine.pdbqt.pdb
REMARK  6 active torsions:
REMARK  status: ('A' for Active; 'I' for Inactive)
REMARK    1  A    between atoms: N_4  and  C_16
REMARK    2  A    between atoms: C_11  and  O_23
REMARK    3  A    between atoms: C_14  and  O_19
REMARK    4  A    between atoms: C_15  and  O_21
REMARK    5  A    between atoms: O_23  and  C_24
REMARK    6  A    between atoms: C_25  and  C_26
REMARK                            x       y       z     vdW  Elec       q    Type
REMARK                         _______ _______ _______ _____ _____    ______ ____
ROOT
ATOM      1  F   UNL     1     -14.634  38.473   6.237  0.00  0.00    +0.000 F 
ATOM      2  O   UNL     1     -19.919  37.619   6.041  0.00  0.00    +0.000 OA
ATOM      3  O   UNL     1     -18.175  41.939   5.653  0.00  0.00    +0.000 OA
ATOM      4  N   UNL     1     -17.796  36.773   6.459  0.00  0.00    +0.000 N 
ATOM      5  N   UNL     1     -18.184  39.112   6.095  0.00  0.00    +0.000 NA
ATOM      6  N   UNL     1     -16.343  40.582   6.118  0.00  0.00    +0.000 N 
ATOM      7  C   UNL     1     -16.504  37.127   6.612  0.00  0.00    +0.000 C 
ATOM      8  C   UNL     1     -18.716  37.820   6.195  0.00  0.00    +0.000 C 
ATOM      9  C   UNL     1     -15.914  38.270   6.593  0.00  0.00    +0.000 C 
ATOM     10  C   UNL     1     -16.912  39.333   6.253  0.00  0.00    +0.000 C 
ATOM     11  C   UNL     1     -16.976  41.767   5.815  0.00  0.00    +0.000 C 
ATOM     12  H   UNL     1     -15.342  40.668   6.222  0.00  0.00    +0.000 HD
ENDROOT
BRANCH   4  16
ATOM     13  O   UNL     1     -17.426  34.456   5.863  0.00  0.00    +0.000 OA
ATOM     14  C   UNL     1     -19.139  34.785   7.372  0.00  0.00    +0.000 A 
ATOM     15  C   UNL     1     -19.073  33.389   7.062  0.00  0.00    +0.000 A 
ATOM     16  C   UNL     1     -18.118  35.447   6.593  0.00  0.00    +0.000 A 
ATOM     17  C   UNL     1     -17.993  33.201   6.132  0.00  0.00    +0.000 A 
ATOM     18  C   UNL     1     -17.623  32.028   5.292  0.00  0.00    +0.000 C 
BRANCH  14  19
ATOM     19  O   UNL     1     -20.334  35.336   7.737  0.00  0.00    +0.000 OA
ATOM     20  H   UNL     1     -20.318  36.319   7.695  0.00  0.00    +0.000 HD
ENDBRANCH  14  19
BRANCH  15  21
ATOM     21  O   UNL     1     -20.196  32.605   7.090  0.00  0.00    +0.000 OA
ATOM     22  H   UNL     1     -20.655  32.697   7.947  0.00  0.00    +0.000 HD
ENDBRANCH  15  21
ENDBRANCH   4  16
BRANCH  11  23
ATOM     23  O   UNL     1     -16.033  42.752   5.735  0.00  0.00    +0.000 OA
BRANCH  23  24
ATOM     24  C   UNL     1     -15.833  43.267   4.523  0.00  0.00    +0.000 C 
ATOM     25  C   UNL     1     -15.605  43.861   3.129  0.00  0.00    +0.000 C 
BRANCH  25  26
ATOM     26  C   UNL     1     -15.378  44.456   1.737  0.00  0.00    +0.000 C 
ATOM     27  C   UNL     1     -15.147  45.057   0.347  0.00  0.00    +0.000 C 
ATOM     28  C   UNL     1     -14.905  45.663  -1.039  0.00  0.00    +0.000 C 
ENDBRANCH  25  26
ENDBRANCH  23  24
ENDBRANCH  11  23
TORSDOF 6
ENDMDL
MODEL 6
REMARK VINA RESULT:      -5.4      2.287      2.454
REMARK  Name = 60953_Capecitabine.pdbqt.pdb
REMARK  6 active torsions:
REMARK  status: ('A' for Active; 'I' for Inactive)
REMARK    1  A    between atoms: N_4  and  C_16
REMARK    2  A    between atoms: C_11  and  O_23
REMARK    3  A    between atoms: C_14  and  O_19
REMARK    4  A    between atoms: C_15  and  O_21
REMARK    5  A    between atoms: O_23  and  C_24
REMARK    6  A    between atoms: C_25  and  C_26
REMARK                            x       y       z     vdW  Elec       q    Type
REMARK                         _______ _______ _______ _____ _____    ______ ____
ROOT
ATOM      1  F   UNL     1      -6.558  47.238  30.249  0.00  0.00    +0.000 F 
ATOM      2  O   UNL     1      -8.183  46.589  25.186  0.00  0.00    +0.000 OA
ATOM      3  O   UNL     1      -4.094  44.843  26.631  0.00  0.00    +0.000 OA
ATOM      4  N   UNL     1      -8.502  47.615  27.245  0.00  0.00    +0.000 N 
ATOM      5  N   UNL     1      -6.537  46.328  26.756  0.00  0.00    +0.000 NA
ATOM      6  N   UNL     1      -4.908  46.064  28.437  0.00  0.00    +0.000 N 
ATOM      7  C   UNL     1      -7.933  47.813  28.452  0.00  0.00    +0.000 C 
ATOM      8  C   UNL     1      -7.768  46.834  26.316  0.00  0.00    +0.000 C 
ATOM      9  C   UNL     1      -6.802  47.447  28.944  0.00  0.00    +0.000 C 
ATOM     10  C   UNL     1      -6.092  46.580  27.951  0.00  0.00    +0.000 C 
ATOM     11  C   UNL     1      -4.020  45.238  27.785  0.00  0.00    +0.000 C 
ATOM     12  H   UNL     1      -4.646  46.277  29.389  0.00  0.00    +0.000 HD
ENDROOT
BRANCH   4  16
ATOM     13  O   UNL     1     -10.006  49.497  27.474  0.00  0.00    +0.000 OA
ATOM     14  C   UNL     1     -10.904  47.698  26.344  0.00  0.00    +0.000 A 
ATOM     15  C   UNL     1     -11.913  48.706  26.461  0.00  0.00    +0.000 A 
ATOM     16  C   UNL     1      -9.720  48.195  27.007  0.00  0.00    +0.000 A 
ATOM     17  C   UNL     1     -11.333  49.823  27.155  0.00  0.00    +0.000 A 
ATOM     18  C   UNL     1     -11.965  51.027  27.764  0.00  0.00    +0.000 C 
BRANCH  14  19
ATOM     19  O   UNL     1     -11.271  46.384  26.268  0.00  0.00    +0.000 OA
ATOM     20  H   UNL     1     -12.229  46.256  26.446  0.00  0.00    +0.000 HD
ENDBRANCH  14  19
BRANCH  15  21
ATOM     21  O   UNL     1     -13.240  48.371  26.535  0.00  0.00    +0.000 OA
ATOM     22  H   UNL     1     -13.773  48.965  25.973  0.00  0.00    +0.000 HD
ENDBRANCH  15  21
ENDBRANCH   4  16
BRANCH  11  23
ATOM     23  O   UNL     1      -3.004  44.930  28.647  0.00  0.00    +0.000 OA
BRANCH  23  24
ATOM     24  C   UNL     1      -1.974  45.773  28.652  0.00  0.00    +0.000 C 
ATOM     25  C   UNL     1      -0.788  46.743  28.661  0.00  0.00    +0.000 C 
BRANCH  25  26
ATOM     26  C   UNL     1       0.398  47.711  28.672  0.00  0.00    +0.000 C 
ATOM     27  C   UNL     1       1.581  48.684  28.676  0.00  0.00    +0.000 C 
ATOM     28  C   UNL     1       2.758  49.665  28.674  0.00  0.00    +0.000 C 
ENDBRANCH  25  26
ENDBRANCH  23  24
ENDBRANCH  11  23
TORSDOF 6
ENDMDL
MODEL 7
REMARK VINA RESULT:      -5.3      3.256      5.189
REMARK  Name = 60953_Capecitabine.pdbqt.pdb
REMARK  6 active torsions:
REMARK  status: ('A' for Active; 'I' for Inactive)
REMARK    1  A    between atoms: N_4  and  C_16
REMARK    2  A    between atoms: C_11  and  O_23
REMARK    3  A    between atoms: C_14  and  O_19
REMARK    4  A    between atoms: C_15  and  O_21
REMARK    5  A    between atoms: O_23  and  C_24
REMARK    6  A    between atoms: C_25  and  C_26
REMARK                            x       y       z     vdW  Elec       q    Type
REMARK                         _______ _______ _______ _____ _____    ______ ____
ROOT
ATOM      1  F   UNL     1      -2.682  49.080  29.048  0.00  0.00    +0.000 F 
ATOM      2  O   UNL     1      -3.575  45.306  25.352  0.00  0.00    +0.000 OA
ATOM      3  O   UNL     1       0.609  45.714  27.397  0.00  0.00    +0.000 OA
ATOM      4  N   UNL     1      -4.325  47.211  26.450  0.00  0.00    +0.000 N 
ATOM      5  N   UNL     1      -2.091  46.380  26.726  0.00  0.00    +0.000 NA
ATOM      6  N   UNL     1      -0.635  47.511  28.192  0.00  0.00    +0.000 N 
ATOM      7  C   UNL     1      -3.945  48.187  27.299  0.00  0.00    +0.000 C 
ATOM      8  C   UNL     1      -3.346  46.240  26.118  0.00  0.00    +0.000 C 
ATOM      9  C   UNL     1      -2.823  48.445  27.872  0.00  0.00    +0.000 C 
ATOM     10  C   UNL     1      -1.842  47.363  27.539  0.00  0.00    +0.000 C 
ATOM     11  C   UNL     1       0.473  46.699  28.107  0.00  0.00    +0.000 C 
ATOM     12  H   UNL     1      -0.529  48.283  28.836  0.00  0.00    +0.000 HD
ENDROOT
BRANCH   4  16
ATOM     13  O   UNL     1      -5.962  48.138  24.927  0.00  0.00    +0.000 OA
ATOM     14  C   UNL     1      -6.794  46.519  26.343  0.00  0.00    +0.000 A 
ATOM     15  C   UNL     1      -7.874  47.021  25.549  0.00  0.00    +0.000 A 
ATOM     16  C   UNL     1      -5.606  47.247  25.963  0.00  0.00    +0.000 A 
ATOM     17  C   UNL     1      -7.336  48.018  24.665  0.00  0.00    +0.000 A 
ATOM     18  C   UNL     1      -8.014  49.029  23.806  0.00  0.00    +0.000 C 
BRANCH  14  19
ATOM     19  O   UNL     1      -7.051  46.025  27.591  0.00  0.00    +0.000 OA
ATOM     20  H   UNL     1      -7.999  46.113  27.837  0.00  0.00    +0.000 HD
ENDBRANCH  14  19
BRANCH  15  21
ATOM     21  O   UNL     1      -9.155  47.049  26.035  0.00  0.00    +0.000 OA
ATOM     22  H   UNL     1      -9.187  46.670  26.934  0.00  0.00    +0.000 HD
ENDBRANCH  15  21
ENDBRANCH   4  16
BRANCH  11  23
ATOM     23  O   UNL     1       1.431  47.185  28.952  0.00  0.00    +0.000 OA
BRANCH  23  24
ATOM     24  C   UNL     1       1.782  48.455  28.759  0.00  0.00    +0.000 C 
ATOM     25  C   UNL     1       2.184  49.916  28.536  0.00  0.00    +0.000 C 
BRANCH  25  26
ATOM     26  C   UNL     1       2.586  51.377  28.311  0.00  0.00    +0.000 C 
ATOM     27  C   UNL     1       2.987  52.838  28.093  0.00  0.00    +0.000 C 
ATOM     28  C   UNL     1       3.391  54.302  27.888  0.00  0.00    +0.000 C 
ENDBRANCH  25  26
ENDBRANCH  23  24
ENDBRANCH  11  23
TORSDOF 6
ENDMDL
MODEL 8
REMARK VINA RESULT:      -5.3     24.148     25.787
REMARK  Name = 60953_Capecitabine.pdbqt.pdb
REMARK  6 active torsions:
REMARK  status: ('A' for Active; 'I' for Inactive)
REMARK    1  A    between atoms: N_4  and  C_16
REMARK    2  A    between atoms: C_11  and  O_23
REMARK    3  A    between atoms: C_14  and  O_19
REMARK    4  A    between atoms: C_15  and  O_21
REMARK    5  A    between atoms: O_23  and  C_24
REMARK    6  A    between atoms: C_25  and  C_26
REMARK                            x       y       z     vdW  Elec       q    Type
REMARK                         _______ _______ _______ _____ _____    ______ ____
ROOT
ATOM      1  F   UNL     1     -15.398  39.381   5.132  0.00  0.00    +0.000 F 
ATOM      2  O   UNL     1     -20.633  39.249   6.262  0.00  0.00    +0.000 OA
ATOM      3  O   UNL     1     -18.452  43.311   5.483  0.00  0.00    +0.000 OA
ATOM      4  N   UNL     1     -18.613  38.110   6.127  0.00  0.00    +0.000 N 
ATOM      5  N   UNL     1     -18.747  40.494   5.891  0.00  0.00    +0.000 NA
ATOM      6  N   UNL     1     -16.771  41.703   5.463  0.00  0.00    +0.000 N 
ATOM      7  C   UNL     1     -17.286  38.282   5.954  0.00  0.00    +0.000 C 
ATOM      8  C   UNL     1     -19.413  39.281   6.111  0.00  0.00    +0.000 C 
ATOM      9  C   UNL     1     -16.565  39.335   5.797  0.00  0.00    +0.000 C 
ATOM     10  C   UNL     1     -17.458  40.536   5.727  0.00  0.00    +0.000 C 
ATOM     11  C   UNL     1     -17.287  42.973   5.338  0.00  0.00    +0.000 C 
ATOM     12  H   UNL     1     -15.773  41.649   5.313  0.00  0.00    +0.000 HD
ENDROOT
BRANCH   4  16
ATOM     13  O   UNL     1     -20.170  36.337   5.587  0.00  0.00    +0.000 OA
ATOM     14  C   UNL     1     -18.660  35.801   7.246  0.00  0.00    +0.000 A 
ATOM     15  C   UNL     1     -19.552  34.695   7.075  0.00  0.00    +0.000 A 
ATOM     16  C   UNL     1     -19.074  36.835   6.327  0.00  0.00    +0.000 A 
ATOM     17  C   UNL     1     -20.477  35.041   6.030  0.00  0.00    +0.000 A 
ATOM     18  C   UNL     1     -21.750  34.398   5.602  0.00  0.00    +0.000 C 
BRANCH  14  19
ATOM     19  O   UNL     1     -18.082  36.015   8.465  0.00  0.00    +0.000 OA
ATOM     20  H   UNL     1     -17.549  36.841   8.483  0.00  0.00    +0.000 HD
ENDBRANCH  14  19
BRANCH  15  21
ATOM     21  O   UNL     1     -19.865  33.871   8.124  0.00  0.00    +0.000 OA
ATOM     22  H   UNL     1     -20.123  34.397   8.905  0.00  0.00    +0.000 HD
ENDBRANCH  15  21
ENDBRANCH   4  16
BRANCH  11  23
ATOM     23  O   UNL     1     -16.264  43.827   5.032  0.00  0.00    +0.000 OA
BRANCH  23  24
ATOM     24  C   UNL     1     -15.902  43.860   3.751  0.00  0.00    +0.000 C 
ATOM     25  C   UNL     1     -15.484  43.902   2.278  0.00  0.00    +0.000 C 
BRANCH  25  26
ATOM     26  C   UNL     1     -15.066  43.945   0.805  0.00  0.00    +0.000 C 
ATOM     27  C   UNL     1     -14.642  43.988  -0.666  0.00  0.00    +0.000 C 
ATOM     28  C   UNL     1     -14.205  44.027  -2.134  0.00  0.00    +0.000 C 
ENDBRANCH  25  26
ENDBRANCH  23  24
ENDBRANCH  11  23
TORSDOF 6
ENDMDL
MODEL 9
REMARK VINA RESULT:      -5.2     24.520     26.537
REMARK  Name = 60953_Capecitabine.pdbqt.pdb
REMARK  6 active torsions:
REMARK  status: ('A' for Active; 'I' for Inactive)
REMARK    1  A    between atoms: N_4  and  C_16
REMARK    2  A    between atoms: C_11  and  O_23
REMARK    3  A    between atoms: C_14  and  O_19
REMARK    4  A    between atoms: C_15  and  O_21
REMARK    5  A    between atoms: O_23  and  C_24
REMARK    6  A    between atoms: C_25  and  C_26
REMARK                            x       y       z     vdW  Elec       q    Type
REMARK                         _______ _______ _______ _____ _____    ______ ____
ROOT
ATOM      1  F   UNL     1     -20.667  38.483   8.097  0.00  0.00    +0.000 F 
ATOM      2  O   UNL     1     -21.425  33.322   6.874  0.00  0.00    +0.000 OA
ATOM      3  O   UNL     1     -17.170  35.243   6.623  0.00  0.00    +0.000 OA
ATOM      4  N   UNL     1     -22.358  35.392   7.370  0.00  0.00    +0.000 N 
ATOM      5  N   UNL     1     -20.008  35.119   6.964  0.00  0.00    +0.000 NA
ATOM      6  N   UNL     1     -18.606  37.005   7.121  0.00  0.00    +0.000 N 
ATOM      7  C   UNL     1     -22.062  36.697   7.534  0.00  0.00    +0.000 C 
ATOM      8  C   UNL     1     -21.277  34.529   7.051  0.00  0.00    +0.000 C 
ATOM      9  C   UNL     1     -20.960  37.353   7.431  0.00  0.00    +0.000 C 
ATOM     10  C   UNL     1     -19.843  36.395   7.153  0.00  0.00    +0.000 C 
ATOM     11  C   UNL     1     -17.383  36.416   6.890  0.00  0.00    +0.000 C 
ATOM     12  H   UNL     1     -18.554  37.996   7.312  0.00  0.00    +0.000 HD
ENDROOT
BRANCH   4  16
ATOM     13  O   UNL     1     -24.569  35.135   6.419  0.00  0.00    +0.000 OA
ATOM     14  C   UNL     1     -24.403  34.484   8.626  0.00  0.00    +0.000 A 
ATOM     15  C   UNL     1     -25.767  34.340   8.215  0.00  0.00    +0.000 A 
ATOM     16  C   UNL     1     -23.667  35.009   7.499  0.00  0.00    +0.000 A 
ATOM     17  C   UNL     1     -25.849  34.737   6.836  0.00  0.00    +0.000 A 
ATOM     18  C   UNL     1     -27.028  35.024   5.972  0.00  0.00    +0.000 C 
BRANCH  14  19
ATOM     19  O   UNL     1     -24.120  34.734   9.938  0.00  0.00    +0.000 OA
ATOM     20  H   UNL     1     -23.196  35.045  10.066  0.00  0.00    +0.000 HD
ENDBRANCH  14  19
BRANCH  15  21
ATOM     21  O   UNL     1     -26.794  34.487   9.110  0.00  0.00    +0.000 OA
ATOM     22  H   UNL     1     -26.447  34.725   9.991  0.00  0.00    +0.000 HD
ENDBRANCH  15  21
ENDBRANCH   4  16
BRANCH  11  23
ATOM     23  O   UNL     1     -16.415  37.376   6.993  0.00  0.00    +0.000 OA
BRANCH  23  24
ATOM     24  C   UNL     1     -16.699  38.547   6.427  0.00  0.00    +0.000 C 
ATOM     25  C   UNL     1     -17.024  39.896   5.776  0.00  0.00    +0.000 C 
BRANCH  25  26
ATOM     26  C   UNL     1     -17.346  41.244   5.125  0.00  0.00    +0.000 C 
ATOM     27  C   UNL     1     -17.668  42.589   4.468  0.00  0.00    +0.000 C 
ATOM     28  C   UNL     1     -17.995  43.929   3.800  0.00  0.00    +0.000 C 
ENDBRANCH  25  26
ENDBRANCH  23  24
ENDBRANCH  11  23
TORSDOF 6
ENDMDL
