MODEL 1
REMARK VINA RESULT:      -6.1      0.000      0.000
REMARK  Name = 6223_Gliotoxin.pdbqt.pdb
REMARK  3 active torsions:
REMARK  status: ('A' for Active; 'I' for Inactive)
REMARK    1  A    between atoms: C_10  and  C_21
REMARK    2  A    between atoms: C_14  and  O_19
REMARK    3  A    between atoms: C_21  and  O_22
REMARK                            x       y       z     vdW  Elec       q    Type
REMARK                         _______ _______ _______ _____ _____    ______ ____
ROOT
ATOM      1  S   UNL     1     -17.495  38.191   3.723  0.00  0.00    +0.000 S 
ATOM      2  S   UNL     1     -19.340  37.529   4.371  0.00  0.00    +0.000 S 
ATOM      3  O   UNL     1     -19.946  40.481   6.385  0.00  0.00    +0.000 OA
ATOM      4  O   UNL     1     -15.782  37.287   6.703  0.00  0.00    +0.000 OA
ATOM      5  N   UNL     1     -17.788  39.990   5.765  0.00  0.00    +0.000 N 
ATOM      6  N   UNL     1     -18.118  37.520   6.850  0.00  0.00    +0.000 N 
ATOM      7  C   UNL     1     -16.861  38.926   5.269  0.00  0.00    +0.000 C 
ATOM      8  C   UNL     1     -17.183  41.247   5.734  0.00  0.00    +0.000 A 
ATOM      9  C   UNL     1     -15.632  39.689   5.065  0.00  0.00    +0.000 C 
ATOM     10  C   UNL     1     -19.312  38.098   6.149  0.00  0.00    +0.000 C 
ATOM     11  C   UNL     1     -15.735  41.053   5.370  0.00  0.00    +0.000 A 
ATOM     12  C   UNL     1     -19.082  39.643   6.135  0.00  0.00    +0.000 C 
ATOM     13  C   UNL     1     -16.822  37.849   6.356  0.00  0.00    +0.000 C 
ATOM     14  C   UNL     1     -17.805  42.587   5.618  0.00  0.00    +0.000 A 
ATOM     15  C   UNL     1     -15.220  42.068   4.739  0.00  0.00    +0.000 A 
ATOM     16  C   UNL     1     -16.929  43.519   4.961  0.00  0.00    +0.000 A 
ATOM     17  C   UNL     1     -18.364  36.518   7.886  0.00  0.00    +0.000 C 
ATOM     18  C   UNL     1     -15.817  43.465   4.508  0.00  0.00    +0.000 A 
ENDROOT
BRANCH  14  19
ATOM     19  O   UNL     1     -19.156  42.780   5.616  0.00  0.00    +0.000 OA
ATOM     20  H   UNL     1     -19.573  42.593   6.482  0.00  0.00    +0.000 HD
ENDBRANCH  14  19
BRANCH  10  21
ATOM     21  C   UNL     1     -20.621  37.769   6.772  0.00  0.00    +0.000 C 
BRANCH  21  22
ATOM     22  O   UNL     1     -21.804  37.490   7.326  0.00  0.00    +0.000 OA
ATOM     23  H   UNL     1     -21.815  36.589   7.701  0.00  0.00    +0.000 HD
ENDBRANCH  21  22
ENDBRANCH  10  21
TORSDOF 3
ENDMDL
MODEL 2
REMARK VINA RESULT:      -5.4     26.766     27.605
REMARK  Name = 6223_Gliotoxin.pdbqt.pdb
REMARK  3 active torsions:
REMARK  status: ('A' for Active; 'I' for Inactive)
REMARK    1  A    between atoms: C_10  and  C_21
REMARK    2  A    between atoms: C_14  and  O_19
REMARK    3  A    between atoms: C_21  and  O_22
REMARK                            x       y       z     vdW  Elec       q    Type
REMARK                         _______ _______ _______ _____ _____    ______ ____
ROOT
ATOM      1  S   UNL     1      -1.689  48.163  26.743  0.00  0.00    +0.000 S 
ATOM      2  S   UNL     1      -0.770  46.600  27.731  0.00  0.00    +0.000 S 
ATOM      3  O   UNL     1      -3.867  44.774  28.197  0.00  0.00    +0.000 OA
ATOM      4  O   UNL     1      -2.905  49.720  29.697  0.00  0.00    +0.000 OA
ATOM      5  N   UNL     1      -3.969  47.026  27.745  0.00  0.00    +0.000 N 
ATOM      6  N   UNL     1      -2.316  47.449  29.860  0.00  0.00    +0.000 N 
ATOM      7  C   UNL     1      -3.211  48.316  27.738  0.00  0.00    +0.000 C 
ATOM      8  C   UNL     1      -5.201  47.156  27.104  0.00  0.00    +0.000 A 
ATOM      9  C   UNL     1      -4.188  49.218  27.133  0.00  0.00    +0.000 C 
ATOM     10  C   UNL     1      -2.043  46.220  29.044  0.00  0.00    +0.000 C 
ATOM     11  C   UNL     1      -5.403  48.612  26.783  0.00  0.00    +0.000 A 
ATOM     12  C   UNL     1      -3.383  45.899  28.308  0.00  0.00    +0.000 C 
ATOM     13  C   UNL     1      -2.832  48.598  29.193  0.00  0.00    +0.000 C 
ATOM     14  C   UNL     1      -6.019  46.125  26.422  0.00  0.00    +0.000 A 
ATOM     15  C   UNL     1      -6.137  48.813  25.727  0.00  0.00    +0.000 A 
ATOM     16  C   UNL     1      -6.804  46.693  25.360  0.00  0.00    +0.000 A 
ATOM     17  C   UNL     1      -1.872  47.447  31.253  0.00  0.00    +0.000 C 
ATOM     18  C   UNL     1      -6.960  47.799  24.916  0.00  0.00    +0.000 A 
ENDROOT
BRANCH  14  19
ATOM     19  O   UNL     1      -5.688  44.800  26.413  0.00  0.00    +0.000 OA
ATOM     20  H   UNL     1      -5.780  44.387  25.531  0.00  0.00    +0.000 HD
ENDBRANCH  14  19
BRANCH  10  21
ATOM     21  C   UNL     1      -1.578  45.043  29.826  0.00  0.00    +0.000 C 
BRANCH  21  22
ATOM     22  O   UNL     1      -1.179  43.984  30.535  0.00  0.00    +0.000 OA
ATOM     23  H   UNL     1      -1.906  43.628  31.079  0.00  0.00    +0.000 HD
ENDBRANCH  21  22
ENDBRANCH  10  21
TORSDOF 3
ENDMDL
MODEL 3
REMARK VINA RESULT:      -5.2     23.214     23.923
REMARK  Name = 6223_Gliotoxin.pdbqt.pdb
REMARK  3 active torsions:
REMARK  status: ('A' for Active; 'I' for Inactive)
REMARK    1  A    between atoms: C_10  and  C_21
REMARK    2  A    between atoms: C_14  and  O_19
REMARK    3  A    between atoms: C_21  and  O_22
REMARK                            x       y       z     vdW  Elec       q    Type
REMARK                         _______ _______ _______ _____ _____    ______ ____
ROOT
ATOM      1  S   UNL     1     -10.173  50.052  28.052  0.00  0.00    +0.000 S 
ATOM      2  S   UNL     1     -12.079  49.614  27.393  0.00  0.00    +0.000 S 
ATOM      3  O   UNL     1     -10.902  47.757  24.510  0.00  0.00    +0.000 OA
ATOM      4  O   UNL     1      -9.658  52.712  25.751  0.00  0.00    +0.000 OA
ATOM      5  N   UNL     1      -9.468  49.230  25.537  0.00  0.00    +0.000 N 
ATOM      6  N   UNL     1     -11.349  51.165  25.225  0.00  0.00    +0.000 N 
ATOM      7  C   UNL     1      -9.359  50.405  26.456  0.00  0.00    +0.000 C 
ATOM      8  C   UNL     1      -8.214  48.679  25.265  0.00  0.00    +0.000 A 
ATOM      9  C   UNL     1      -7.910  50.537  26.582  0.00  0.00    +0.000 C 
ATOM     10  C   UNL     1     -11.861  49.792  25.547  0.00  0.00    +0.000 C 
ATOM     11  C   UNL     1      -7.173  49.586  25.864  0.00  0.00    +0.000 A 
ATOM     12  C   UNL     1     -10.724  48.810  25.119  0.00  0.00    +0.000 C 
ATOM     13  C   UNL     1     -10.091  51.558  25.766  0.00  0.00    +0.000 C 
ATOM     14  C   UNL     1      -7.861  47.292  24.881  0.00  0.00    +0.000 A 
ATOM     15  C   UNL     1      -6.086  48.963  26.219  0.00  0.00    +0.000 A 
ATOM     16  C   UNL     1      -6.542  46.941  25.334  0.00  0.00    +0.000 A 
ATOM     17  C   UNL     1     -12.253  52.074  24.520  0.00  0.00    +0.000 C 
ATOM     18  C   UNL     1      -5.667  47.512  25.929  0.00  0.00    +0.000 A 
ENDROOT
BRANCH  14  19
ATOM     19  O   UNL     1      -8.795  46.327  24.640  0.00  0.00    +0.000 OA
ATOM     20  H   UNL     1      -8.469  45.614  24.054  0.00  0.00    +0.000 HD
ENDBRANCH  14  19
BRANCH  10  21
ATOM     21  C   UNL     1     -13.143  49.432  24.882  0.00  0.00    +0.000 C 
BRANCH  21  22
ATOM     22  O   UNL     1     -14.285  49.113  24.269  0.00  0.00    +0.000 OA
ATOM     23  H   UNL     1     -15.053  49.506  24.725  0.00  0.00    +0.000 HD
ENDBRANCH  21  22
ENDBRANCH  10  21
TORSDOF 3
ENDMDL
MODEL 4
REMARK VINA RESULT:      -5.0      2.127      3.023
REMARK  Name = 6223_Gliotoxin.pdbqt.pdb
REMARK  3 active torsions:
REMARK  status: ('A' for Active; 'I' for Inactive)
REMARK    1  A    between atoms: C_10  and  C_21
REMARK    2  A    between atoms: C_14  and  O_19
REMARK    3  A    between atoms: C_21  and  O_22
REMARK                            x       y       z     vdW  Elec       q    Type
REMARK                         _______ _______ _______ _____ _____    ______ ____
ROOT
ATOM      1  S   UNL     1     -19.000  36.110   4.261  0.00  0.00    +0.000 S 
ATOM      2  S   UNL     1     -20.914  36.825   3.969  0.00  0.00    +0.000 S 
ATOM      3  O   UNL     1     -20.206  40.016   5.539  0.00  0.00    +0.000 OA
ATOM      4  O   UNL     1     -19.507  35.263   7.675  0.00  0.00    +0.000 OA
ATOM      5  N   UNL     1     -18.818  38.236   5.975  0.00  0.00    +0.000 N 
ATOM      6  N   UNL     1     -21.004  36.811   6.731  0.00  0.00    +0.000 N 
ATOM      7  C   UNL     1     -18.676  36.747   5.940  0.00  0.00    +0.000 C 
ATOM      8  C   UNL     1     -17.600  38.857   6.254  0.00  0.00    +0.000 A 
ATOM      9  C   UNL     1     -17.281  36.584   6.342  0.00  0.00    +0.000 C 
ATOM     10  C   UNL     1     -21.193  37.743   5.571  0.00  0.00    +0.000 C 
ATOM     11  C   UNL     1     -16.602  37.784   6.595  0.00  0.00    +0.000 A 
ATOM     12  C   UNL     1     -20.054  38.806   5.698  0.00  0.00    +0.000 C 
ATOM     13  C   UNL     1     -19.731  36.193   6.898  0.00  0.00    +0.000 C 
ATOM     14  C   UNL     1     -17.133  40.217   5.892  0.00  0.00    +0.000 A 
ATOM     15  C   UNL     1     -15.376  38.102   6.295  0.00  0.00    +0.000 A 
ATOM     16  C   UNL     1     -15.705  40.259   5.734  0.00  0.00    +0.000 A 
ATOM     17  C   UNL     1     -22.189  36.462   7.515  0.00  0.00    +0.000 C 
ATOM     18  C   UNL     1     -14.814  39.460   5.844  0.00  0.00    +0.000 A 
ENDROOT
BRANCH  14  19
ATOM     19  O   UNL     1     -17.931  41.134   5.271  0.00  0.00    +0.000 OA
ATOM     20  H   UNL     1     -18.750  41.332   5.769  0.00  0.00    +0.000 HD
ENDBRANCH  14  19
BRANCH  10  21
ATOM     21  C   UNL     1     -22.523  38.405   5.512  0.00  0.00    +0.000 C 
BRANCH  21  22
ATOM     22  O   UNL     1     -23.713  39.008   5.442  0.00  0.00    +0.000 OA
ATOM     23  H   UNL     1     -23.637  39.964   5.624  0.00  0.00    +0.000 HD
ENDBRANCH  21  22
ENDBRANCH  10  21
TORSDOF 3
ENDMDL
MODEL 5
REMARK VINA RESULT:      -4.9     26.349     27.655
REMARK  Name = 6223_Gliotoxin.pdbqt.pdb
REMARK  3 active torsions:
REMARK  status: ('A' for Active; 'I' for Inactive)
REMARK    1  A    between atoms: C_10  and  C_21
REMARK    2  A    between atoms: C_14  and  O_19
REMARK    3  A    between atoms: C_21  and  O_22
REMARK                            x       y       z     vdW  Elec       q    Type
REMARK                         _______ _______ _______ _____ _____    ______ ____
ROOT
ATOM      1  S   UNL     1      11.338  45.496   6.698  0.00  0.00    +0.000 S 
ATOM      2  S   UNL     1      10.292  44.244   5.434  0.00  0.00    +0.000 S 
ATOM      3  O   UNL     1       7.064  45.564   6.425  0.00  0.00    +0.000 OA
ATOM      4  O   UNL     1      10.731  43.563   9.617  0.00  0.00    +0.000 OA
ATOM      5  N   UNL     1       8.869  45.901   7.808  0.00  0.00    +0.000 N 
ATOM      6  N   UNL     1       9.286  43.216   7.794  0.00  0.00    +0.000 N 
ATOM      7  C   UNL     1      10.250  45.449   8.163  0.00  0.00    +0.000 C 
ATOM      8  C   UNL     1       8.539  47.089   8.461  0.00  0.00    +0.000 A 
ATOM      9  C   UNL     1      10.624  46.437   9.171  0.00  0.00    +0.000 C 
ATOM     10  C   UNL     1       8.820  43.818   6.502  0.00  0.00    +0.000 C 
ATOM     11  C   UNL     1       9.642  47.402   9.435  0.00  0.00    +0.000 A 
ATOM     12  C   UNL     1       8.129  45.164   6.892  0.00  0.00    +0.000 C 
ATOM     13  C   UNL     1      10.119  44.002   8.642  0.00  0.00    +0.000 C 
ATOM     14  C   UNL     1       7.578  48.145   8.062  0.00  0.00    +0.000 A 
ATOM     15  C   UNL     1       9.793  48.677   9.655  0.00  0.00    +0.000 A 
ATOM     16  C   UNL     1       7.979  49.435   8.554  0.00  0.00    +0.000 A 
ATOM     17  C   UNL     1       8.999  41.800   8.021  0.00  0.00    +0.000 C 
ATOM     18  C   UNL     1       8.892  49.844   9.221  0.00  0.00    +0.000 A 
ENDROOT
BRANCH  14  19
ATOM     19  O   UNL     1       6.769  48.037   6.968  0.00  0.00    +0.000 OA
ATOM     20  H   UNL     1       6.716  47.125   6.617  0.00  0.00    +0.000 HD
ENDBRANCH  14  19
BRANCH  10  21
ATOM     21  C   UNL     1       7.894  42.963   5.712  0.00  0.00    +0.000 C 
BRANCH  21  22
ATOM     22  O   UNL     1       7.049  42.206   5.007  0.00  0.00    +0.000 OA
ATOM     23  H   UNL     1       6.263  41.970   5.534  0.00  0.00    +0.000 HD
ENDBRANCH  21  22
ENDBRANCH  10  21
TORSDOF 3
ENDMDL
MODEL 6
REMARK VINA RESULT:      -4.9     25.468     27.417
REMARK  Name = 6223_Gliotoxin.pdbqt.pdb
REMARK  3 active torsions:
REMARK  status: ('A' for Active; 'I' for Inactive)
REMARK    1  A    between atoms: C_10  and  C_21
REMARK    2  A    between atoms: C_14  and  O_19
REMARK    3  A    between atoms: C_21  and  O_22
REMARK                            x       y       z     vdW  Elec       q    Type
REMARK                         _______ _______ _______ _____ _____    ______ ____
ROOT
ATOM      1  S   UNL     1      10.850  43.586   5.861  0.00  0.00    +0.000 S 
ATOM      2  S   UNL     1       9.182  43.350   4.669  0.00  0.00    +0.000 S 
ATOM      3  O   UNL     1       7.159  45.606   6.660  0.00  0.00    +0.000 OA
ATOM      4  O   UNL     1       9.731  41.362   8.397  0.00  0.00    +0.000 OA
ATOM      5  N   UNL     1       9.049  44.694   7.599  0.00  0.00    +0.000 N 
ATOM      6  N   UNL     1       8.094  42.234   6.951  0.00  0.00    +0.000 N 
ATOM      7  C   UNL     1      10.064  43.599   7.508  0.00  0.00    +0.000 C 
ATOM      8  C   UNL     1       9.424  45.659   8.535  0.00  0.00    +0.000 A 
ATOM      9  C   UNL     1      10.992  43.980   8.569  0.00  0.00    +0.000 C 
ATOM     10  C   UNL     1       7.831  43.327   5.958  0.00  0.00    +0.000 C 
ATOM     11  C   UNL     1      10.648  45.155   9.251  0.00  0.00    +0.000 A 
ATOM     12  C   UNL     1       7.939  44.661   6.764  0.00  0.00    +0.000 C 
ATOM     13  C   UNL     1       9.300  42.288   7.708  0.00  0.00    +0.000 C 
ATOM     14  C   UNL     1       9.063  47.095   8.600  0.00  0.00    +0.000 A 
ATOM     15  C   UNL     1      11.428  46.107   9.676  0.00  0.00    +0.000 A 
ATOM     16  C   UNL     1      10.100  47.870   9.225  0.00  0.00    +0.000 A 
ATOM     17  C   UNL     1       7.180  41.092   6.955  0.00  0.00    +0.000 C 
ATOM     18  C   UNL     1      11.169  47.621   9.716  0.00  0.00    +0.000 A 
ENDROOT
BRANCH  14  19
ATOM     19  O   UNL     1       8.180  47.678   7.739  0.00  0.00    +0.000 OA
ATOM     20  H   UNL     1       7.653  48.392   8.153  0.00  0.00    +0.000 HD
ENDBRANCH  14  19
BRANCH  10  21
ATOM     21  C   UNL     1       6.517  43.238   5.265  0.00  0.00    +0.000 C 
BRANCH  21  22
ATOM     22  O   UNL     1       5.333  43.174   4.652  0.00  0.00    +0.000 OA
ATOM     23  H   UNL     1       5.154  43.986   4.141  0.00  0.00    +0.000 HD
ENDBRANCH  21  22
ENDBRANCH  10  21
TORSDOF 3
ENDMDL
MODEL 7
REMARK VINA RESULT:      -4.9     32.656     33.497
REMARK  Name = 6223_Gliotoxin.pdbqt.pdb
REMARK  3 active torsions:
REMARK  status: ('A' for Active; 'I' for Inactive)
REMARK    1  A    between atoms: C_10  and  C_21
REMARK    2  A    between atoms: C_14  and  O_19
REMARK    3  A    between atoms: C_21  and  O_22
REMARK                            x       y       z     vdW  Elec       q    Type
REMARK                         _______ _______ _______ _____ _____    ______ ____
ROOT
ATOM      1  S   UNL     1      -0.768  38.222  37.044  0.00  0.00    +0.000 S 
ATOM      2  S   UNL     1       0.298  39.732  36.124  0.00  0.00    +0.000 S 
ATOM      3  O   UNL     1      -2.520  40.804  34.110  0.00  0.00    +0.000 OA
ATOM      4  O   UNL     1      -0.500  35.955  34.321  0.00  0.00    +0.000 OA
ATOM      5  N   UNL     1      -2.551  38.694  35.022  0.00  0.00    +0.000 N 
ATOM      6  N   UNL     1      -0.146  38.231  33.846  0.00  0.00    +0.000 N 
ATOM      7  C   UNL     1      -1.727  37.599  35.622  0.00  0.00    +0.000 C 
ATOM      8  C   UNL     1      -3.916  38.442  35.168  0.00  0.00    +0.000 A 
ATOM      9  C   UNL     1      -2.762  36.647  36.017  0.00  0.00    +0.000 C 
ATOM     10  C   UNL     1      -0.363  39.615  34.381  0.00  0.00    +0.000 C 
ATOM     11  C   UNL     1      -4.072  37.056  35.732  0.00  0.00    +0.000 A 
ATOM     12  C   UNL     1      -1.913  39.794  34.463  0.00  0.00    +0.000 C 
ATOM     13  C   UNL     1      -0.761  37.141  34.528  0.00  0.00    +0.000 C 
ATOM     14  C   UNL     1      -5.047  39.398  35.224  0.00  0.00    +0.000 A 
ATOM     15  C   UNL     1      -5.145  36.907  36.452  0.00  0.00    +0.000 A 
ATOM     16  C   UNL     1      -6.130  38.887  36.020  0.00  0.00    +0.000 A 
ATOM     17  C   UNL     1       0.823  38.071  32.763  0.00  0.00    +0.000 C 
ATOM     18  C   UNL     1      -6.331  37.869  36.627  0.00  0.00    +0.000 A 
ENDROOT
BRANCH  14  19
ATOM     19  O   UNL     1      -4.894  40.741  35.036  0.00  0.00    +0.000 OA
ATOM     20  H   UNL     1      -4.275  41.151  35.673  0.00  0.00    +0.000 HD
ENDBRANCH  14  19
BRANCH  10  21
ATOM     21  C   UNL     1       0.248  40.701  33.570  0.00  0.00    +0.000 C 
BRANCH  21  22
ATOM     22  O   UNL     1       0.813  41.674  32.851  0.00  0.00    +0.000 OA
ATOM     23  H   UNL     1       0.809  42.521  33.336  0.00  0.00    +0.000 HD
ENDBRANCH  21  22
ENDBRANCH  10  21
TORSDOF 3
ENDMDL
MODEL 8
REMARK VINA RESULT:      -4.9     26.992     27.784
REMARK  Name = 6223_Gliotoxin.pdbqt.pdb
REMARK  3 active torsions:
REMARK  status: ('A' for Active; 'I' for Inactive)
REMARK    1  A    between atoms: C_10  and  C_21
REMARK    2  A    between atoms: C_14  and  O_19
REMARK    3  A    between atoms: C_21  and  O_22
REMARK                            x       y       z     vdW  Elec       q    Type
REMARK                         _______ _______ _______ _____ _____    ______ ____
ROOT
ATOM      1  S   UNL     1      -2.320  47.566  27.066  0.00  0.00    +0.000 S 
ATOM      2  S   UNL     1      -1.872  46.946  28.984  0.00  0.00    +0.000 S 
ATOM      3  O   UNL     1      -5.354  46.707  29.964  0.00  0.00    +0.000 OA
ATOM      4  O   UNL     1      -2.955  50.942  27.976  0.00  0.00    +0.000 OA
ATOM      5  N   UNL     1      -4.806  47.983  28.132  0.00  0.00    +0.000 N 
ATOM      6  N   UNL     1      -3.050  49.342  29.698  0.00  0.00    +0.000 N 
ATOM      7  C   UNL     1      -3.706  48.700  27.415  0.00  0.00    +0.000 C 
ATOM      8  C   UNL     1      -5.963  47.918  27.355  0.00  0.00    +0.000 A 
ATOM      9  C   UNL     1      -4.393  49.136  26.202  0.00  0.00    +0.000 C 
ATOM     10  C   UNL     1      -3.167  47.870  29.962  0.00  0.00    +0.000 C 
ATOM     11  C   UNL     1      -5.740  48.756  26.125  0.00  0.00    +0.000 A 
ATOM     12  C   UNL     1      -4.561  47.452  29.392  0.00  0.00    +0.000 C 
ATOM     13  C   UNL     1      -3.225  49.802  28.361  0.00  0.00    +0.000 C 
ATOM     14  C   UNL     1      -7.063  46.925  27.388  0.00  0.00    +0.000 A 
ATOM     15  C   UNL     1      -6.410  48.342  25.088  0.00  0.00    +0.000 A 
ATOM     16  C   UNL     1      -7.674  46.773  26.095  0.00  0.00    +0.000 A 
ATOM     17  C   UNL     1      -2.591  50.190  30.797  0.00  0.00    +0.000 C 
ATOM     18  C   UNL     1      -7.512  47.274  25.014  0.00  0.00    +0.000 A 
ENDROOT
BRANCH  14  19
ATOM     19  O   UNL     1      -7.132  45.924  28.313  0.00  0.00    +0.000 OA
ATOM     20  H   UNL     1      -6.259  45.535  28.525  0.00  0.00    +0.000 HD
ENDBRANCH  14  19
BRANCH  10  21
ATOM     21  C   UNL     1      -3.046  47.481  31.392  0.00  0.00    +0.000 C 
BRANCH  21  22
ATOM     22  O   UNL     1      -2.921  47.140  32.677  0.00  0.00    +0.000 OA
ATOM     23  H   UNL     1      -2.072  47.451  33.045  0.00  0.00    +0.000 HD
ENDBRANCH  21  22
ENDBRANCH  10  21
TORSDOF 3
ENDMDL
MODEL 9
REMARK VINA RESULT:      -4.8     24.501     25.210
REMARK  Name = 6223_Gliotoxin.pdbqt.pdb
REMARK  3 active torsions:
REMARK  status: ('A' for Active; 'I' for Inactive)
REMARK    1  A    between atoms: C_10  and  C_21
REMARK    2  A    between atoms: C_14  and  O_19
REMARK    3  A    between atoms: C_21  and  O_22
REMARK                            x       y       z     vdW  Elec       q    Type
REMARK                         _______ _______ _______ _____ _____    ______ ____
ROOT
ATOM      1  S   UNL     1      -8.836  49.153  28.728  0.00  0.00    +0.000 S 
ATOM      2  S   UNL     1     -10.411  48.520  27.554  0.00  0.00    +0.000 S 
ATOM      3  O   UNL     1      -8.284  47.714  24.732  0.00  0.00    +0.000 OA
ATOM      4  O   UNL     1      -8.578  52.349  27.195  0.00  0.00    +0.000 OA
ATOM      5  N   UNL     1      -7.485  49.141  26.347  0.00  0.00    +0.000 N 
ATOM      6  N   UNL     1      -9.697  50.676  25.979  0.00  0.00    +0.000 N 
ATOM      7  C   UNL     1      -7.850  50.048  27.479  0.00  0.00    +0.000 C 
ATOM      8  C   UNL     1      -6.106  48.939  26.282  0.00  0.00    +0.000 A 
ATOM      9  C   UNL     1      -6.531  50.432  27.975  0.00  0.00    +0.000 C 
ATOM     10  C   UNL     1      -9.900  49.192  25.889  0.00  0.00    +0.000 C 
ATOM     11  C   UNL     1      -5.457  49.857  27.282  0.00  0.00    +0.000 A 
ATOM     12  C   UNL     1      -8.494  48.596  25.563  0.00  0.00    +0.000 C 
ATOM     13  C   UNL     1      -8.704  51.166  26.875  0.00  0.00    +0.000 C 
ATOM     14  C   UNL     1      -5.350  47.791  25.727  0.00  0.00    +0.000 A 
ATOM     15  C   UNL     1      -4.336  49.396  27.758  0.00  0.00    +0.000 A 
ATOM     16  C   UNL     1      -4.096  47.610  26.406  0.00  0.00    +0.000 A 
ATOM     17  C   UNL     1     -10.650  51.531  25.273  0.00  0.00    +0.000 C 
ATOM     18  C   UNL     1      -3.521  48.178  27.296  0.00  0.00    +0.000 A 
ENDROOT
BRANCH  14  19
ATOM     19  O   UNL     1      -5.950  46.750  25.081  0.00  0.00    +0.000 OA
ATOM     20  H   UNL     1      -5.926  45.915  25.591  0.00  0.00    +0.000 HD
ENDBRANCH  14  19
BRANCH  10  21
ATOM     21  C   UNL     1     -10.901  48.760  24.877  0.00  0.00    +0.000 C 
BRANCH  21  22
ATOM     22  O   UNL     1     -11.793  48.385  23.956  0.00  0.00    +0.000 OA
ATOM     23  H   UNL     1     -11.488  47.597  23.468  0.00  0.00    +0.000 HD
ENDBRANCH  21  22
ENDBRANCH  10  21
TORSDOF 3
ENDMDL
