REMARK  Name = 6256_Trifluridine.pdbqt.pdb
REMARK  5 active torsions:
REMARK  status: ('A' for Active; 'I' for Inactive)
REMARK    1  A    between atoms: N_3  and  C1*_11
REMARK    2  A    between atoms: C_7  and  C_23
REMARK    3  A    between atoms: C3*_12  and  O3*_15
REMARK    4  A    between atoms: C4*_14  and  C5*_17
REMARK    5  A    between atoms: C5*_17  and  O5*_18
REMARK                            x       y       z     vdW  Elec       q    Type
REMARK                         _______ _______ _______ _____ _____    ______ ____
ROOT
ATOM      1  O   UNL     1       0.391  -3.091  -0.310  0.00  0.00    +0.000 OA
ATOM      2  O   UNL     1      -4.007  -1.807  -0.039  0.00  0.00    +0.000 OA
ATOM      3  N   UNL     1      -0.080  -0.794   0.024  0.00  0.00    +0.000 N 
ATOM      4  N   UNL     1      -1.790  -2.388  -0.159  0.00  0.00    +0.000 N 
ATOM      5  C   UNL     1      -1.118   0.054   0.165  0.00  0.00    +0.000 A 
ATOM      6  C   UNL     1      -0.392  -2.160  -0.160  0.00  0.00    +0.000 A 
ATOM      7  C   UNL     1      -2.406  -0.056   0.176  0.00  0.00    +0.000 A 
ATOM      8  C   UNL     1      -2.833  -1.466  -0.011  0.00  0.00    +0.000 A 
ATOM      9  H   UNL     1      -2.066  -3.351  -0.289  0.00  0.00    +0.000 HD
ENDROOT
BRANCH   3  11
ATOM     10  O4* UNL     1       1.454   1.065   0.225  0.00  0.00    +0.000 OA
ATOM     11  C1* UNL     1       1.192  -0.299   0.059  0.00  0.00    +0.000 A 
ATOM     12  C3* UNL     1       3.459  -0.072   0.003  0.00  0.00    +0.000 A 
ATOM     13  C2* UNL     1       2.406  -0.999  -0.087  0.00  0.00    +0.000 A 
ATOM     14  C4* UNL     1       2.846   1.219   0.191  0.00  0.00    +0.000 A 
BRANCH  12  15
ATOM     15  O3* UNL     1       4.649  -0.196  -0.657  0.00  0.00    +0.000 OA
ATOM     16  H3* UNL     1       4.801  -1.117  -0.932  0.00  0.00    +0.000 HD
ENDBRANCH  12  15
BRANCH  14  17
ATOM     17  C5* UNL     1       3.466   2.482   0.125  0.00  0.00    +0.000 C 
BRANCH  17  18
ATOM     18  O5* UNL     1       4.054   3.673   0.060  0.00  0.00    +0.000 OA
ATOM     19  H5* UNL     1       4.955   3.584  -0.296  0.00  0.00    +0.000 HD
ENDBRANCH  17  18
ENDBRANCH  14  17
ENDBRANCH   3  11
BRANCH   7  23
ATOM     20  F   UNL     1      -4.236   0.770   1.399  0.00  0.00    +0.000 F 
ATOM     21  F   UNL     1      -2.900   2.214   0.479  0.00  0.00    +0.000 F 
ATOM     22  F   UNL     1      -4.247   1.057  -0.770  0.00  0.00    +0.000 F 
ATOM     23  C   UNL     1      -3.442   0.975   0.318  0.00  0.00    +0.000 C 
ENDBRANCH   7  23
TORSDOF 5
