MODEL 1
REMARK VINA RESULT:      -5.8      0.000      0.000
REMARK  Name = 6256_Trifluridine.pdbqt.pdb
REMARK  5 active torsions:
REMARK  status: ('A' for Active; 'I' for Inactive)
REMARK    1  A    between atoms: N_3  and  C1*_11
REMARK    2  A    between atoms: C_7  and  C_23
REMARK    3  A    between atoms: C3*_12  and  O3*_15
REMARK    4  A    between atoms: C4*_14  and  C5*_17
REMARK    5  A    between atoms: C5*_17  and  O5*_18
REMARK                            x       y       z     vdW  Elec       q    Type
REMARK                         _______ _______ _______ _____ _____    ______ ____
ROOT
ATOM      1  O   UNL     1      -1.748  48.545  29.052  0.00  0.00    +0.000 OA
ATOM      2  O   UNL     1      -5.250  48.171  26.109  0.00  0.00    +0.000 OA
ATOM      3  N   UNL     1      -2.278  46.392  28.219  0.00  0.00    +0.000 N 
ATOM      4  N   UNL     1      -3.485  48.294  27.571  0.00  0.00    +0.000 N 
ATOM      5  C   UNL     1      -3.143  45.770  27.393  0.00  0.00    +0.000 A 
ATOM      6  C   UNL     1      -2.420  47.791  28.357  0.00  0.00    +0.000 A 
ATOM      7  C   UNL     1      -4.134  46.136  26.648  0.00  0.00    +0.000 A 
ATOM      8  C   UNL     1      -4.362  47.602  26.727  0.00  0.00    +0.000 A 
ATOM      9  H   UNL     1      -3.630  49.292  27.636  0.00  0.00    +0.000 HD
ENDROOT
BRANCH   3  11
ATOM     10  O4* UNL     1      -0.037  45.493  28.365  0.00  0.00    +0.000 OA
ATOM     11  C1* UNL     1      -1.332  45.652  28.869  0.00  0.00    +0.000 A 
ATOM     12  C3* UNL     1      -0.233  44.308  30.345  0.00  0.00    +0.000 A 
ATOM     13  C2* UNL     1      -1.465  44.926  30.070  0.00  0.00    +0.000 A 
ATOM     14  C4* UNL     1       0.650  44.666  29.263  0.00  0.00    +0.000 A 
BRANCH  12  15
ATOM     15  O3* UNL     1      -0.102  43.111  30.992  0.00  0.00    +0.000 OA
ATOM     16  H3* UNL     1      -0.371  43.188  31.924  0.00  0.00    +0.000 HD
ENDBRANCH  12  15
BRANCH  14  17
ATOM     17  C5* UNL     1       1.919  44.127  28.976  0.00  0.00    +0.000 C 
BRANCH  17  18
ATOM     18  O5* UNL     1       3.119  43.620  28.706  0.00  0.00    +0.000 OA
ATOM     19  H5* UNL     1       3.343  42.926  29.350  0.00  0.00    +0.000 HD
ENDBRANCH  17  18
ENDBRANCH  14  17
ENDBRANCH   3  11
BRANCH   7  23
ATOM     20  F   UNL     1      -4.942  45.675  24.489  0.00  0.00    +0.000 F 
ATOM     21  F   UNL     1      -4.724  44.009  25.864  0.00  0.00    +0.000 F 
ATOM     22  F   UNL     1      -6.327  45.442  26.167  0.00  0.00    +0.000 F 
ATOM     23  C   UNL     1      -5.026  45.335  25.800  0.00  0.00    +0.000 C 
ENDBRANCH   7  23
TORSDOF 5
ENDMDL
MODEL 2
REMARK VINA RESULT:      -5.5     26.858     28.095
REMARK  Name = 6256_Trifluridine.pdbqt.pdb
REMARK  5 active torsions:
REMARK  status: ('A' for Active; 'I' for Inactive)
REMARK    1  A    between atoms: N_3  and  C1*_11
REMARK    2  A    between atoms: C_7  and  C_23
REMARK    3  A    between atoms: C3*_12  and  O3*_15
REMARK    4  A    between atoms: C4*_14  and  C5*_17
REMARK    5  A    between atoms: C5*_17  and  O5*_18
REMARK                            x       y       z     vdW  Elec       q    Type
REMARK                         _______ _______ _______ _____ _____    ______ ____
ROOT
ATOM      1  O   UNL     1     -18.014  37.694   3.280  0.00  0.00    +0.000 OA
ATOM      2  O   UNL     1     -15.613  41.596   3.005  0.00  0.00    +0.000 OA
ATOM      3  N   UNL     1     -17.635  38.911   5.276  0.00  0.00    +0.000 N 
ATOM      4  N   UNL     1     -16.825  39.657   3.205  0.00  0.00    +0.000 N 
ATOM      5  C   UNL     1     -17.038  40.034   5.722  0.00  0.00    +0.000 A 
ATOM      6  C   UNL     1     -17.549  38.650   3.889  0.00  0.00    +0.000 A 
ATOM      7  C   UNL     1     -16.362  40.997   5.186  0.00  0.00    +0.000 A 
ATOM      8  C   UNL     1     -16.218  40.809   3.719  0.00  0.00    +0.000 A 
ATOM      9  H   UNL     1     -16.734  39.516   2.209  0.00  0.00    +0.000 HD
ENDROOT
BRANCH   3  11
ATOM     10  O4* UNL     1     -17.715  36.893   6.605  0.00  0.00    +0.000 OA
ATOM     11  C1* UNL     1     -18.273  38.098   6.168  0.00  0.00    +0.000 A 
ATOM     12  C3* UNL     1     -19.788  37.175   7.599  0.00  0.00    +0.000 A 
ATOM     13  C2* UNL     1     -19.540  38.275   6.759  0.00  0.00    +0.000 A 
ATOM     14  C4* UNL     1     -18.638  36.313   7.486  0.00  0.00    +0.000 A 
BRANCH  12  15
ATOM     15  O3* UNL     1     -21.030  36.661   7.844  0.00  0.00    +0.000 OA
ATOM     16  H3* UNL     1     -21.649  37.361   8.116  0.00  0.00    +0.000 HD
ENDBRANCH  12  15
BRANCH  14  17
ATOM     17  C5* UNL     1     -18.501  34.996   7.965  0.00  0.00    +0.000 C 
BRANCH  17  18
ATOM     18  O5* UNL     1     -18.371  33.751   8.414  0.00  0.00    +0.000 OA
ATOM     19  H5* UNL     1     -19.196  33.459   8.840  0.00  0.00    +0.000 HD
ENDBRANCH  17  18
ENDBRANCH  14  17
ENDBRANCH   3  11
BRANCH   7  23
ATOM     20  F   UNL     1     -14.421  42.289   5.487  0.00  0.00    +0.000 F 
ATOM     21  F   UNL     1     -16.325  43.330   5.398  0.00  0.00    +0.000 F 
ATOM     22  F   UNL     1     -15.829  42.159   7.157  0.00  0.00    +0.000 F 
ATOM     23  C   UNL     1     -15.735  42.171   5.805  0.00  0.00    +0.000 C 
ENDBRANCH   7  23
TORSDOF 5
ENDMDL
MODEL 3
REMARK VINA RESULT:      -5.3     26.871     28.018
REMARK  Name = 6256_Trifluridine.pdbqt.pdb
REMARK  5 active torsions:
REMARK  status: ('A' for Active; 'I' for Inactive)
REMARK    1  A    between atoms: N_3  and  C1*_11
REMARK    2  A    between atoms: C_7  and  C_23
REMARK    3  A    between atoms: C3*_12  and  O3*_15
REMARK    4  A    between atoms: C4*_14  and  C5*_17
REMARK    5  A    between atoms: C5*_17  and  O5*_18
REMARK                            x       y       z     vdW  Elec       q    Type
REMARK                         _______ _______ _______ _____ _____    ______ ____
ROOT
ATOM      1  O   UNL     1     -14.983  38.407   6.194  0.00  0.00    +0.000 OA
ATOM      2  O   UNL     1     -18.540  36.053   7.888  0.00  0.00    +0.000 OA
ATOM      3  N   UNL     1     -17.142  39.365   6.010  0.00  0.00    +0.000 N 
ATOM      4  N   UNL     1     -16.801  37.280   7.029  0.00  0.00    +0.000 N 
ATOM      5  C   UNL     1     -18.430  39.114   6.318  0.00  0.00    +0.000 A 
ATOM      6  C   UNL     1     -16.195  38.383   6.379  0.00  0.00    +0.000 A 
ATOM      7  C   UNL     1     -19.071  38.153   6.897  0.00  0.00    +0.000 A 
ATOM      8  C   UNL     1     -18.153  37.066   7.324  0.00  0.00    +0.000 A 
ATOM      9  H   UNL     1     -16.166  36.548   7.312  0.00  0.00    +0.000 HD
ENDROOT
BRANCH   3  11
ATOM     10  O4* UNL     1     -16.386  40.544   4.038  0.00  0.00    +0.000 OA
ATOM     11  C1* UNL     1     -16.826  40.526   5.366  0.00  0.00    +0.000 A 
ATOM     12  C3* UNL     1     -16.426  42.711   4.853  0.00  0.00    +0.000 A 
ATOM     13  C2* UNL     1     -16.844  41.840   5.875  0.00  0.00    +0.000 A 
ATOM     14  C4* UNL     1     -16.135  41.882   3.710  0.00  0.00    +0.000 A 
BRANCH  12  15
ATOM     15  O3* UNL     1     -15.745  43.876   5.069  0.00  0.00    +0.000 OA
ATOM     16  H3* UNL     1     -16.338  44.644   4.998  0.00  0.00    +0.000 HD
ENDBRANCH  12  15
BRANCH  14  17
ATOM     17  C5* UNL     1     -15.486  42.260   2.519  0.00  0.00    +0.000 C 
BRANCH  17  18
ATOM     18  O5* UNL     1     -14.876  42.617   1.392  0.00  0.00    +0.000 OA
ATOM     19  H5* UNL     1     -14.103  42.050   1.234  0.00  0.00    +0.000 HD
ENDBRANCH  17  18
ENDBRANCH  14  17
ENDBRANCH   3  11
BRANCH   7  23
ATOM     20  F   UNL     1     -21.244  39.012   6.638  0.00  0.00    +0.000 F 
ATOM     21  F   UNL     1     -20.997  36.855   6.587  0.00  0.00    +0.000 F 
ATOM     22  F   UNL     1     -20.796  37.909   8.474  0.00  0.00    +0.000 F 
ATOM     23  C   UNL     1     -20.509  37.994   7.152  0.00  0.00    +0.000 C 
ENDBRANCH   7  23
TORSDOF 5
ENDMDL
MODEL 4
REMARK VINA RESULT:      -5.2      2.042      2.677
REMARK  Name = 6256_Trifluridine.pdbqt.pdb
REMARK  5 active torsions:
REMARK  status: ('A' for Active; 'I' for Inactive)
REMARK    1  A    between atoms: N_3  and  C1*_11
REMARK    2  A    between atoms: C_7  and  C_23
REMARK    3  A    between atoms: C3*_12  and  O3*_15
REMARK    4  A    between atoms: C4*_14  and  C5*_17
REMARK    5  A    between atoms: C5*_17  and  O5*_18
REMARK                            x       y       z     vdW  Elec       q    Type
REMARK                         _______ _______ _______ _____ _____    ______ ____
ROOT
ATOM      1  O   UNL     1       0.096  46.483  28.464  0.00  0.00    +0.000 OA
ATOM      2  O   UNL     1      -3.564  46.495  25.696  0.00  0.00    +0.000 OA
ATOM      3  N   UNL     1      -1.846  45.334  29.182  0.00  0.00    +0.000 N 
ATOM      4  N   UNL     1      -1.765  46.447  27.120  0.00  0.00    +0.000 N 
ATOM      5  C   UNL     1      -3.101  45.046  28.784  0.00  0.00    +0.000 A 
ATOM      6  C   UNL     1      -1.059  46.109  28.300  0.00  0.00    +0.000 A 
ATOM      7  C   UNL     1      -3.825  45.308  27.745  0.00  0.00    +0.000 A 
ATOM      8  C   UNL     1      -3.077  46.124  26.755  0.00  0.00    +0.000 A 
ATOM      9  H   UNL     1      -1.246  47.004  26.456  0.00  0.00    +0.000 HD
ENDROOT
BRANCH   3  11
ATOM     10  O4* UNL     1      -0.664  43.701  30.519  0.00  0.00    +0.000 OA
ATOM     11  C1* UNL     1      -1.411  44.877  30.393  0.00  0.00    +0.000 A 
ATOM     12  C3* UNL     1      -1.010  44.610  32.620  0.00  0.00    +0.000 A 
ATOM     13  C2* UNL     1      -1.636  45.433  31.668  0.00  0.00    +0.000 A 
ATOM     14  C4* UNL     1      -0.412  43.524  31.885  0.00  0.00    +0.000 A 
BRANCH  12  15
ATOM     15  O3* UNL     1      -1.466  44.428  33.896  0.00  0.00    +0.000 OA
ATOM     16  H3* UNL     1      -2.389  44.121  33.896  0.00  0.00    +0.000 HD
ENDBRANCH  12  15
BRANCH  14  17
ATOM     17  C5* UNL     1       0.142  42.337  32.404  0.00  0.00    +0.000 C 
BRANCH  17  18
ATOM     18  O5* UNL     1       0.667  41.219  32.897  0.00  0.00    +0.000 OA
ATOM     19  H5* UNL     1       1.476  40.984  32.410  0.00  0.00    +0.000 HD
ENDBRANCH  17  18
ENDBRANCH  14  17
ENDBRANCH   3  11
BRANCH   7  23
ATOM     20  F   UNL     1      -5.999  46.028  27.217  0.00  0.00    +0.000 F 
ATOM     21  F   UNL     1      -5.303  44.175  26.325  0.00  0.00    +0.000 F 
ATOM     22  F   UNL     1      -5.792  44.226  28.440  0.00  0.00    +0.000 F 
ATOM     23  C   UNL     1      -5.215  44.945  27.445  0.00  0.00    +0.000 C 
ENDBRANCH   7  23
TORSDOF 5
ENDMDL
MODEL 5
REMARK VINA RESULT:      -5.2     26.899     28.060
REMARK  Name = 6256_Trifluridine.pdbqt.pdb
REMARK  5 active torsions:
REMARK  status: ('A' for Active; 'I' for Inactive)
REMARK    1  A    between atoms: N_3  and  C1*_11
REMARK    2  A    between atoms: C_7  and  C_23
REMARK    3  A    between atoms: C3*_12  and  O3*_15
REMARK    4  A    between atoms: C4*_14  and  C5*_17
REMARK    5  A    between atoms: C5*_17  and  O5*_18
REMARK                            x       y       z     vdW  Elec       q    Type
REMARK                         _______ _______ _______ _____ _____    ______ ____
ROOT
ATOM      1  O   UNL     1     -20.889  40.452   6.387  0.00  0.00    +0.000 OA
ATOM      2  O   UNL     1     -17.643  43.469   5.192  0.00  0.00    +0.000 OA
ATOM      3  N   UNL     1     -18.651  39.687   6.257  0.00  0.00    +0.000 N 
ATOM      4  N   UNL     1     -19.219  41.916   5.801  0.00  0.00    +0.000 N 
ATOM      5  C   UNL     1     -17.408  40.125   5.975  0.00  0.00    +0.000 A 
ATOM      6  C   UNL     1     -19.695  40.636   6.176  0.00  0.00    +0.000 A 
ATOM      7  C   UNL     1     -16.883  41.253   5.626  0.00  0.00    +0.000 A 
ATOM      8  C   UNL     1     -17.910  42.320   5.514  0.00  0.00    +0.000 A 
ATOM      9  H   UNL     1     -19.929  42.631   5.728  0.00  0.00    +0.000 HD
ENDROOT
BRANCH   3  11
ATOM     10  O4* UNL     1     -20.092  37.767   6.551  0.00  0.00    +0.000 OA
ATOM     11  C1* UNL     1     -18.834  38.377   6.594  0.00  0.00    +0.000 A 
ATOM     12  C3* UNL     1     -18.527  36.227   7.286  0.00  0.00    +0.000 A 
ATOM     13  C2* UNL     1     -17.875  37.450   7.050  0.00  0.00    +0.000 A 
ATOM     14  C4* UNL     1     -19.918  36.444   6.976  0.00  0.00    +0.000 A 
BRANCH  12  15
ATOM     15  O3* UNL     1     -18.152  35.331   8.247  0.00  0.00    +0.000 OA
ATOM     16  H3* UNL     1     -17.183  35.298   8.334  0.00  0.00    +0.000 HD
ENDBRANCH  12  15
BRANCH  14  17
ATOM     17  C5* UNL     1     -21.003  35.589   7.252  0.00  0.00    +0.000 C 
BRANCH  17  18
ATOM     18  O5* UNL     1     -22.028  34.784   7.516  0.00  0.00    +0.000 OA
ATOM     19  H5* UNL     1     -22.602  35.182   8.193  0.00  0.00    +0.000 HD
ENDBRANCH  17  18
ENDBRANCH  14  17
ENDBRANCH   3  11
BRANCH   7  23
ATOM     20  F   UNL     1     -14.634  40.568   5.574  0.00  0.00    +0.000 F 
ATOM     21  F   UNL     1     -15.321  41.903   4.005  0.00  0.00    +0.000 F 
ATOM     22  F   UNL     1     -15.049  42.670   6.018  0.00  0.00    +0.000 F 
ATOM     23  C   UNL     1     -15.487  41.593   5.320  0.00  0.00    +0.000 C 
ENDBRANCH   7  23
TORSDOF 5
ENDMDL
MODEL 6
REMARK VINA RESULT:      -4.9     23.072     24.981
REMARK  Name = 6256_Trifluridine.pdbqt.pdb
REMARK  5 active torsions:
REMARK  status: ('A' for Active; 'I' for Inactive)
REMARK    1  A    between atoms: N_3  and  C1*_11
REMARK    2  A    between atoms: C_7  and  C_23
REMARK    3  A    between atoms: C3*_12  and  O3*_15
REMARK    4  A    between atoms: C4*_14  and  C5*_17
REMARK    5  A    between atoms: C5*_17  and  O5*_18
REMARK                            x       y       z     vdW  Elec       q    Type
REMARK                         _______ _______ _______ _____ _____    ______ ____
ROOT
ATOM      1  O   UNL     1     -27.785  40.487  19.958  0.00  0.00    +0.000 OA
ATOM      2  O   UNL     1     -25.908  36.415  18.976  0.00  0.00    +0.000 OA
ATOM      3  N   UNL     1     -25.432  40.375  19.713  0.00  0.00    +0.000 N 
ATOM      4  N   UNL     1     -26.788  38.479  19.460  0.00  0.00    +0.000 N 
ATOM      5  C   UNL     1     -24.446  39.496  19.445  0.00  0.00    +0.000 A 
ATOM      6  C   UNL     1     -26.750  39.868  19.735  0.00  0.00    +0.000 A 
ATOM      7  C   UNL     1     -24.380  38.231  19.189  0.00  0.00    +0.000 A 
ATOM      8  C   UNL     1     -25.727  37.605  19.190  0.00  0.00    +0.000 A 
ATOM      9  H   UNL     1     -27.710  38.067  19.465  0.00  0.00    +0.000 HD
ENDROOT
BRANCH   3  11
ATOM     10  O4* UNL     1     -24.248  42.397  19.114  0.00  0.00    +0.000 OA
ATOM     11  C1* UNL     1     -25.111  41.681  19.949  0.00  0.00    +0.000 A 
ATOM     12  C3* UNL     1     -24.930  43.765  20.853  0.00  0.00    +0.000 A 
ATOM     13  C2* UNL     1     -25.524  42.502  21.017  0.00  0.00    +0.000 A 
ATOM     14  C4* UNL     1     -24.126  43.682  19.659  0.00  0.00    +0.000 A 
BRANCH  12  15
ATOM     15  O3* UNL     1     -24.571  44.584  21.887  0.00  0.00    +0.000 OA
ATOM     16  H3* UNL     1     -24.528  45.512  21.597  0.00  0.00    +0.000 HD
ENDBRANCH  12  15
BRANCH  14  17
ATOM     17  C5* UNL     1     -23.178  44.614  19.196  0.00  0.00    +0.000 C 
BRANCH  17  18
ATOM     18  O5* UNL     1     -22.280  45.491  18.757  0.00  0.00    +0.000 OA
ATOM     19  H5* UNL     1     -22.129  46.181  19.427  0.00  0.00    +0.000 HD
ENDBRANCH  17  18
ENDBRANCH  14  17
ENDBRANCH   3  11
BRANCH   7  23
ATOM     20  F   UNL     1     -22.082  37.856  19.509  0.00  0.00    +0.000 F 
ATOM     21  F   UNL     1     -23.388  36.123  19.437  0.00  0.00    +0.000 F 
ATOM     22  F   UNL     1     -22.964  37.217  17.611  0.00  0.00    +0.000 F 
ATOM     23  C   UNL     1     -23.213  37.376  18.934  0.00  0.00    +0.000 C 
ENDBRANCH   7  23
TORSDOF 5
ENDMDL
MODEL 7
REMARK VINA RESULT:      -4.9      3.849      6.646
REMARK  Name = 6256_Trifluridine.pdbqt.pdb
REMARK  5 active torsions:
REMARK  status: ('A' for Active; 'I' for Inactive)
REMARK    1  A    between atoms: N_3  and  C1*_11
REMARK    2  A    between atoms: C_7  and  C_23
REMARK    3  A    between atoms: C3*_12  and  O3*_15
REMARK    4  A    between atoms: C4*_14  and  C5*_17
REMARK    5  A    between atoms: C5*_17  and  O5*_18
REMARK                            x       y       z     vdW  Elec       q    Type
REMARK                         _______ _______ _______ _____ _____    ______ ____
ROOT
ATOM      1  O   UNL     1      -1.632  45.736  31.589  0.00  0.00    +0.000 OA
ATOM      2  O   UNL     1       2.823  44.729  31.132  0.00  0.00    +0.000 OA
ATOM      3  N   UNL     1      -0.763  45.498  29.399  0.00  0.00    +0.000 N 
ATOM      4  N   UNL     1       0.588  45.226  31.296  0.00  0.00    +0.000 N 
ATOM      5  C   UNL     1       0.387  45.227  28.751  0.00  0.00    +0.000 A 
ATOM      6  C   UNL     1      -0.712  45.512  30.811  0.00  0.00    +0.000 A 
ATOM      7  C   UNL     1       1.604  44.962  29.099  0.00  0.00    +0.000 A 
ATOM      8  C   UNL     1       1.757  44.953  30.576  0.00  0.00    +0.000 A 
ATOM      9  H   UNL     1       0.678  45.225  32.302  0.00  0.00    +0.000 HD
ENDROOT
BRANCH   3  11
ATOM     10  O4* UNL     1      -3.166  45.403  29.140  0.00  0.00    +0.000 OA
ATOM     11  C1* UNL     1      -1.892  45.745  28.673  0.00  0.00    +0.000 A 
ATOM     12  C3* UNL     1      -3.359  46.361  27.041  0.00  0.00    +0.000 A 
ATOM     13  C2* UNL     1      -1.998  46.320  27.391  0.00  0.00    +0.000 A 
ATOM     14  C4* UNL     1      -4.078  45.775  28.144  0.00  0.00    +0.000 A 
BRANCH  12  15
ATOM     15  O3* UNL     1      -3.825  46.253  25.761  0.00  0.00    +0.000 OA
ATOM     16  H3* UNL     1      -3.200  45.758  25.202  0.00  0.00    +0.000 HD
ENDBRANCH  12  15
BRANCH  14  17
ATOM     17  C5* UNL     1      -5.435  45.398  28.182  0.00  0.00    +0.000 C 
BRANCH  17  18
ATOM     18  O5* UNL     1      -6.715  45.042  28.214  0.00  0.00    +0.000 OA
ATOM     19  H5* UNL     1      -7.098  45.083  27.321  0.00  0.00    +0.000 HD
ENDBRANCH  17  18
ENDBRANCH  14  17
ENDBRANCH   3  11
BRANCH   7  23
ATOM     20  F   UNL     1       3.358  43.501  28.536  0.00  0.00    +0.000 F 
ATOM     21  F   UNL     1       2.484  44.693  26.944  0.00  0.00    +0.000 F 
ATOM     22  F   UNL     1       3.747  45.652  28.427  0.00  0.00    +0.000 F 
ATOM     23  C   UNL     1       2.790  44.705  28.272  0.00  0.00    +0.000 C 
ENDBRANCH   7  23
TORSDOF 5
ENDMDL
MODEL 8
REMARK VINA RESULT:      -4.7      6.106      8.694
REMARK  Name = 6256_Trifluridine.pdbqt.pdb
REMARK  5 active torsions:
REMARK  status: ('A' for Active; 'I' for Inactive)
REMARK    1  A    between atoms: N_3  and  C1*_11
REMARK    2  A    between atoms: C_7  and  C_23
REMARK    3  A    between atoms: C3*_12  and  O3*_15
REMARK    4  A    between atoms: C4*_14  and  C5*_17
REMARK    5  A    between atoms: C5*_17  and  O5*_18
REMARK                            x       y       z     vdW  Elec       q    Type
REMARK                         _______ _______ _______ _____ _____    ______ ____
ROOT
ATOM      1  O   UNL     1       0.848  40.655  35.526  0.00  0.00    +0.000 OA
ATOM      2  O   UNL     1       2.365  43.942  32.705  0.00  0.00    +0.000 OA
ATOM      3  N   UNL     1      -0.512  41.255  33.682  0.00  0.00    +0.000 N 
ATOM      4  N   UNL     1       1.556  42.288  34.075  0.00  0.00    +0.000 N 
ATOM      5  C   UNL     1      -0.538  42.093  32.627  0.00  0.00    +0.000 A 
ATOM      6  C   UNL     1       0.624  41.319  34.521  0.00  0.00    +0.000 A 
ATOM      7  C   UNL     1       0.249  42.999  32.148  0.00  0.00    +0.000 A 
ATOM      8  C   UNL     1       1.479  43.140  32.968  0.00  0.00    +0.000 A 
ATOM      9  H   UNL     1       2.387  42.374  34.643  0.00  0.00    +0.000 HD
ENDROOT
BRANCH   3  11
ATOM     10  O4* UNL     1      -2.711  40.804  34.584  0.00  0.00    +0.000 OA
ATOM     11  C1* UNL     1      -1.565  40.409  33.885  0.00  0.00    +0.000 A 
ATOM     12  C3* UNL     1      -2.941  38.593  33.935  0.00  0.00    +0.000 A 
ATOM     13  C2* UNL     1      -1.691  39.061  33.494  0.00  0.00    +0.000 A 
ATOM     14  C4* UNL     1      -3.566  39.695  34.623  0.00  0.00    +0.000 A 
BRANCH  12  15
ATOM     15  O3* UNL     1      -3.190  37.301  34.304  0.00  0.00    +0.000 OA
ATOM     16  H3* UNL     1      -4.146  37.141  34.388  0.00  0.00    +0.000 HD
ENDBRANCH  12  15
BRANCH  14  17
ATOM     17  C5* UNL     1      -4.727  39.663  35.419  0.00  0.00    +0.000 C 
BRANCH  17  18
ATOM     18  O5* UNL     1      -5.825  39.636  36.169  0.00  0.00    +0.000 OA
ATOM     19  H5* UNL     1      -5.703  39.031  36.921  0.00  0.00    +0.000 HD
ENDBRANCH  17  18
ENDBRANCH  14  17
ENDBRANCH   3  11
BRANCH   7  23
ATOM     20  F   UNL     1       1.020  43.647  30.023  0.00  0.00    +0.000 F 
ATOM     21  F   UNL     1      -1.123  43.685  30.377  0.00  0.00    +0.000 F 
ATOM     22  F   UNL     1       0.140  45.189  31.302  0.00  0.00    +0.000 F 
ATOM     23  C   UNL     1       0.084  43.873  30.979  0.00  0.00    +0.000 C 
ENDBRANCH   7  23
TORSDOF 5
ENDMDL
MODEL 9
REMARK VINA RESULT:      -4.7     15.292     16.050
REMARK  Name = 6256_Trifluridine.pdbqt.pdb
REMARK  5 active torsions:
REMARK  status: ('A' for Active; 'I' for Inactive)
REMARK    1  A    between atoms: N_3  and  C1*_11
REMARK    2  A    between atoms: C_7  and  C_23
REMARK    3  A    between atoms: C3*_12  and  O3*_15
REMARK    4  A    between atoms: C4*_14  and  C5*_17
REMARK    5  A    between atoms: C5*_17  and  O5*_18
REMARK                            x       y       z     vdW  Elec       q    Type
REMARK                         _______ _______ _______ _____ _____    ______ ____
ROOT
ATOM      1  O   UNL     1       5.568  58.260  18.132  0.00  0.00    +0.000 OA
ATOM      2  O   UNL     1       1.996  55.806  16.621  0.00  0.00    +0.000 OA
ATOM      3  N   UNL     1       5.775  55.901  18.091  0.00  0.00    +0.000 N 
ATOM      4  N   UNL     1       3.817  56.978  17.380  0.00  0.00    +0.000 N 
ATOM      5  C   UNL     1       5.081  54.793  17.765  0.00  0.00    +0.000 A 
ATOM      6  C   UNL     1       5.125  57.141  17.900  0.00  0.00    +0.000 A 
ATOM      7  C   UNL     1       3.902  54.546  17.295  0.00  0.00    +0.000 A 
ATOM      8  C   UNL     1       3.138  55.797  17.059  0.00  0.00    +0.000 A 
ATOM      9  H   UNL     1       3.309  57.837  17.226  0.00  0.00    +0.000 HD
ENDROOT
BRANCH   3  11
ATOM     10  O4* UNL     1       8.118  55.387  17.778  0.00  0.00    +0.000 OA
ATOM     11  C1* UNL     1       7.041  55.770  18.585  0.00  0.00    +0.000 A 
ATOM     12  C3* UNL     1       8.866  55.690  19.948  0.00  0.00    +0.000 A 
ATOM     13  C2* UNL     1       7.485  55.948  19.910  0.00  0.00    +0.000 A 
ATOM     14  C4* UNL     1       9.247  55.332  18.604  0.00  0.00    +0.000 A 
BRANCH  12  15
ATOM     15  O3* UNL     1       9.520  55.167  21.027  0.00  0.00    +0.000 OA
ATOM     16  H3* UNL     1       9.926  54.310  20.808  0.00  0.00    +0.000 HD
ENDBRANCH  12  15
BRANCH  14  17
ATOM     17  C5* UNL     1      10.473  54.786  18.176  0.00  0.00    +0.000 C 
BRANCH  17  18
ATOM     18  O5* UNL     1      11.628  54.266  17.772  0.00  0.00    +0.000 OA
ATOM     19  H5* UNL     1      12.366  54.663  18.266  0.00  0.00    +0.000 HD
ENDBRANCH  17  18
ENDBRANCH  14  17
ENDBRANCH   3  11
BRANCH   7  23
ATOM     20  F   UNL     1       4.103  52.212  17.096  0.00  0.00    +0.000 F 
ATOM     21  F   UNL     1       2.237  53.003  17.874  0.00  0.00    +0.000 F 
ATOM     22  F   UNL     1       2.697  53.231  15.765  0.00  0.00    +0.000 F 
ATOM     23  C   UNL     1       3.250  53.263  17.002  0.00  0.00    +0.000 C 
ENDBRANCH   7  23
TORSDOF 5
ENDMDL
