MODEL 1
REMARK VINA RESULT:      -5.3      0.000      0.000
REMARK  Name = 6323266_Tipiracil.pdbqt.pdb
REMARK  2 active torsions:
REMARK  status: ('A' for Active; 'I' for Inactive)
REMARK    1  A    between atoms: C_6  and  C_12
REMARK    2  A    between atoms: C_12  and  N_13
REMARK                            x       y       z     vdW  Elec       q    Type
REMARK                         _______ _______ _______ _____ _____    ______ ____
ROOT
ATOM      1 CL   UNL     1       9.950  37.487   5.808  0.00  0.00    +0.000 Cl
ATOM      2  O   UNL     1      10.721  36.075   8.345  0.00  0.00    +0.000 OA
ATOM      3  O   UNL     1       8.109  38.433  11.197  0.00  0.00    +0.000 OA
ATOM      4  N   UNL     1       8.059  38.958   8.990  0.00  0.00    +0.000 N 
ATOM      5  N   UNL     1       9.406  37.251   9.760  0.00  0.00    +0.000 N 
ATOM      6  C   UNL     1       8.475  38.755   7.699  0.00  0.00    +0.000 A 
ATOM      7  C   UNL     1       9.368  37.804   7.397  0.00  0.00    +0.000 A 
ATOM      8  C   UNL     1       9.896  36.967   8.512  0.00  0.00    +0.000 A 
ATOM      9  C   UNL     1       8.499  38.227  10.054  0.00  0.00    +0.000 A 
ATOM     10  H   UNL     1       7.382  39.690   9.193  0.00  0.00    +0.000 HD
ATOM     11  H   UNL     1       9.750  36.696  10.530  0.00  0.00    +0.000 HD
ENDROOT
BRANCH   6  12
ATOM     12  C   UNL     1       7.898  39.618   6.728  0.00  0.00    +0.000 C 
BRANCH  12  13
ATOM     13  N   UNL     1       7.384  40.439   5.649  0.00  0.00    +0.000 N 
ATOM     14  N   UNL     1       5.326  39.151   5.201  0.00  0.00    +0.000 NA
ATOM     15  C   UNL     1       7.361  41.889   5.848  0.00  0.00    +0.000 C 
ATOM     16  C   UNL     1       6.150  42.763   5.546  0.00  0.00    +0.000 C 
ATOM     17  C   UNL     1       5.408  41.479   5.172  0.00  0.00    +0.000 C 
ATOM     18  C   UNL     1       6.059  40.195   5.312  0.00  0.00    +0.000 C 
ATOM     19  H   UNL     1       4.361  39.408   4.963  0.00  0.00    +0.000 HD
ENDBRANCH  12  13
ENDBRANCH   6  12
TORSDOF 2
ENDMDL
MODEL 2
REMARK VINA RESULT:      -5.0     23.516     25.444
REMARK  Name = 6323266_Tipiracil.pdbqt.pdb
REMARK  2 active torsions:
REMARK  status: ('A' for Active; 'I' for Inactive)
REMARK    1  A    between atoms: C_6  and  C_12
REMARK    2  A    between atoms: C_12  and  N_13
REMARK                            x       y       z     vdW  Elec       q    Type
REMARK                         _______ _______ _______ _____ _____    ______ ____
ROOT
ATOM      1 CL   UNL     1     -19.108  40.612   6.022  0.00  0.00    +0.000 Cl
ATOM      2  O   UNL     1     -18.082  43.192   4.875  0.00  0.00    +0.000 OA
ATOM      3  O   UNL     1     -13.680  42.130   4.773  0.00  0.00    +0.000 OA
ATOM      4  N   UNL     1     -15.152  40.592   5.559  0.00  0.00    +0.000 N 
ATOM      5  N   UNL     1     -15.887  42.649   4.818  0.00  0.00    +0.000 N 
ATOM      6  C   UNL     1     -16.431  40.201   5.863  0.00  0.00    +0.000 A 
ATOM      7  C   UNL     1     -17.474  41.017   5.662  0.00  0.00    +0.000 A 
ATOM      8  C   UNL     1     -17.200  42.367   5.092  0.00  0.00    +0.000 A 
ATOM      9  C   UNL     1     -14.834  41.810   5.033  0.00  0.00    +0.000 A 
ATOM     10  H   UNL     1     -14.376  39.954   5.725  0.00  0.00    +0.000 HD
ATOM     11  H   UNL     1     -15.680  43.559   4.432  0.00  0.00    +0.000 HD
ENDROOT
BRANCH   6  12
ATOM     12  C   UNL     1     -16.559  38.892   6.401  0.00  0.00    +0.000 C 
BRANCH  12  13
ATOM     13  N   UNL     1     -16.602  37.518   6.863  0.00  0.00    +0.000 N 
ATOM     14  N   UNL     1     -18.915  37.530   7.727  0.00  0.00    +0.000 NA
ATOM     15  C   UNL     1     -16.122  36.478   5.953  0.00  0.00    +0.000 C 
ATOM     16  C   UNL     1     -16.886  35.191   5.664  0.00  0.00    +0.000 C 
ATOM     17  C   UNL     1     -17.991  35.729   6.574  0.00  0.00    +0.000 C 
ATOM     18  C   UNL     1     -17.873  37.045   7.163  0.00  0.00    +0.000 C 
ATOM     19  H   UNL     1     -19.683  36.849   7.719  0.00  0.00    +0.000 HD
ENDBRANCH  12  13
ENDBRANCH   6  12
TORSDOF 2
ENDMDL
MODEL 3
REMARK VINA RESULT:      -5.0     24.309     26.137
REMARK  Name = 6323266_Tipiracil.pdbqt.pdb
REMARK  2 active torsions:
REMARK  status: ('A' for Active; 'I' for Inactive)
REMARK    1  A    between atoms: C_6  and  C_12
REMARK    2  A    between atoms: C_12  and  N_13
REMARK                            x       y       z     vdW  Elec       q    Type
REMARK                         _______ _______ _______ _____ _____    ______ ____
ROOT
ATOM      1 CL   UNL     1     -15.941  37.220   6.084  0.00  0.00    +0.000 Cl
ATOM      2  O   UNL     1     -17.594  35.095   7.417  0.00  0.00    +0.000 OA
ATOM      3  O   UNL     1     -21.467  37.422   7.742  0.00  0.00    +0.000 OA
ATOM      4  N   UNL     1     -19.669  38.430   6.792  0.00  0.00    +0.000 N 
ATOM      5  N   UNL     1     -19.527  36.261   7.566  0.00  0.00    +0.000 N 
ATOM      6  C   UNL     1     -18.360  38.411   6.384  0.00  0.00    +0.000 A 
ATOM      7  C   UNL     1     -17.593  37.327   6.557  0.00  0.00    +0.000 A 
ATOM      8  C   UNL     1     -18.210  36.135   7.206  0.00  0.00    +0.000 A 
ATOM      9  C   UNL     1     -20.294  37.374   7.388  0.00  0.00    +0.000 A 
ATOM     10  H   UNL     1     -20.230  39.268   6.652  0.00  0.00    +0.000 HD
ATOM     11  H   UNL     1     -19.964  35.466   8.007  0.00  0.00    +0.000 HD
ENDROOT
BRANCH   6  12
ATOM     12  C   UNL     1     -17.890  39.609   5.780  0.00  0.00    +0.000 C 
BRANCH  12  13
ATOM     13  N   UNL     1     -17.307  40.764   5.126  0.00  0.00    +0.000 N 
ATOM     14  N   UNL     1     -18.479  42.508   6.423  0.00  0.00    +0.000 NA
ATOM     15  C   UNL     1     -15.856  40.782   4.941  0.00  0.00    +0.000 C 
ATOM     16  C   UNL     1     -14.976  41.977   5.288  0.00  0.00    +0.000 C 
ATOM     17  C   UNL     1     -16.241  42.669   5.795  0.00  0.00    +0.000 C 
ATOM     18  C   UNL     1     -17.507  41.969   5.786  0.00  0.00    +0.000 C 
ATOM     19  H   UNL     1     -18.203  43.420   6.805  0.00  0.00    +0.000 HD
ENDBRANCH  12  13
ENDBRANCH   6  12
TORSDOF 2
ENDMDL
MODEL 4
REMARK VINA RESULT:      -5.0     24.317     25.858
REMARK  Name = 6323266_Tipiracil.pdbqt.pdb
REMARK  2 active torsions:
REMARK  status: ('A' for Active; 'I' for Inactive)
REMARK    1  A    between atoms: C_6  and  C_12
REMARK    2  A    between atoms: C_12  and  N_13
REMARK                            x       y       z     vdW  Elec       q    Type
REMARK                         _______ _______ _______ _____ _____    ______ ____
ROOT
ATOM      1 CL   UNL     1     -14.695  41.568   5.357  0.00  0.00    +0.000 Cl
ATOM      2  O   UNL     1     -16.455  43.934   4.782  0.00  0.00    +0.000 OA
ATOM      3  O   UNL     1     -20.456  41.918   5.451  0.00  0.00    +0.000 OA
ATOM      4  N   UNL     1     -18.564  40.693   5.717  0.00  0.00    +0.000 N 
ATOM      5  N   UNL     1     -18.448  42.921   5.128  0.00  0.00    +0.000 N 
ATOM      6  C   UNL     1     -17.197  40.580   5.706  0.00  0.00    +0.000 A 
ATOM      7  C   UNL     1     -16.415  41.624   5.403  0.00  0.00    +0.000 A 
ATOM      8  C   UNL     1     -17.079  42.919   5.079  0.00  0.00    +0.000 A 
ATOM      9  C   UNL     1     -19.232  41.848   5.434  0.00  0.00    +0.000 A 
ATOM     10  H   UNL     1     -19.136  39.884   5.947  0.00  0.00    +0.000 HD
ATOM     11  H   UNL     1     -18.918  43.788   4.912  0.00  0.00    +0.000 HD
ENDROOT
BRANCH   6  12
ATOM     12  C   UNL     1     -16.687  39.294   6.031  0.00  0.00    +0.000 C 
BRANCH  12  13
ATOM     13  N   UNL     1     -16.226  37.994   6.477  0.00  0.00    +0.000 N 
ATOM     14  N   UNL     1     -18.219  37.367   7.793  0.00  0.00    +0.000 NA
ATOM     15  C   UNL     1     -15.647  37.096   5.477  0.00  0.00    +0.000 C 
ATOM     16  C   UNL     1     -16.034  35.629   5.334  0.00  0.00    +0.000 C 
ATOM     17  C   UNL     1     -17.047  35.863   6.456  0.00  0.00    +0.000 C 
ATOM     18  C   UNL     1     -17.213  37.183   7.024  0.00  0.00    +0.000 C 
ATOM     19  H   UNL     1     -18.735  36.491   7.934  0.00  0.00    +0.000 HD
ENDBRANCH  12  13
ENDBRANCH   6  12
TORSDOF 2
ENDMDL
MODEL 5
REMARK VINA RESULT:      -4.9     25.486     26.983
REMARK  Name = 6323266_Tipiracil.pdbqt.pdb
REMARK  2 active torsions:
REMARK  status: ('A' for Active; 'I' for Inactive)
REMARK    1  A    between atoms: C_6  and  C_12
REMARK    2  A    between atoms: C_12  and  N_13
REMARK                            x       y       z     vdW  Elec       q    Type
REMARK                         _______ _______ _______ _____ _____    ______ ____
ROOT
ATOM      1 CL   UNL     1      -8.212  48.947  29.128  0.00  0.00    +0.000 Cl
ATOM      2  O   UNL     1     -10.946  49.788  28.209  0.00  0.00    +0.000 OA
ATOM      3  O   UNL     1     -10.915  47.728  24.175  0.00  0.00    +0.000 OA
ATOM      4  N   UNL     1      -9.090  47.532  25.510  0.00  0.00    +0.000 N 
ATOM      5  N   UNL     1     -10.925  48.747  26.201  0.00  0.00    +0.000 N 
ATOM      6  C   UNL     1      -8.423  47.802  26.678  0.00  0.00    +0.000 A 
ATOM      7  C   UNL     1      -8.979  48.553  27.638  0.00  0.00    +0.000 A 
ATOM      8  C   UNL     1     -10.350  49.085  27.398  0.00  0.00    +0.000 A 
ATOM      9  C   UNL     1     -10.345  47.986  25.230  0.00  0.00    +0.000 A 
ATOM     10  H   UNL     1      -8.644  46.962  24.794  0.00  0.00    +0.000 HD
ATOM     11  H   UNL     1     -11.854  49.098  26.017  0.00  0.00    +0.000 HD
ENDROOT
BRANCH   6  12
ATOM     12  C   UNL     1      -7.124  47.238  26.785  0.00  0.00    +0.000 C 
BRANCH  12  13
ATOM     13  N   UNL     1      -5.800  46.646  26.767  0.00  0.00    +0.000 N 
ATOM     14  N   UNL     1      -6.216  44.850  28.409  0.00  0.00    +0.000 NA
ATOM     15  C   UNL     1      -5.192  46.377  25.464  0.00  0.00    +0.000 C 
ATOM     16  C   UNL     1      -4.529  45.054  25.099  0.00  0.00    +0.000 C 
ATOM     17  C   UNL     1      -4.939  44.550  26.483  0.00  0.00    +0.000 C 
ATOM     18  C   UNL     1      -5.714  45.396  27.366  0.00  0.00    +0.000 C 
ATOM     19  H   UNL     1      -5.925  43.868  28.481  0.00  0.00    +0.000 HD
ENDBRANCH  12  13
ENDBRANCH   6  12
TORSDOF 2
ENDMDL
MODEL 6
REMARK VINA RESULT:      -4.8     24.205     25.719
REMARK  Name = 6323266_Tipiracil.pdbqt.pdb
REMARK  2 active torsions:
REMARK  status: ('A' for Active; 'I' for Inactive)
REMARK    1  A    between atoms: C_6  and  C_12
REMARK    2  A    between atoms: C_12  and  N_13
REMARK                            x       y       z     vdW  Elec       q    Type
REMARK                         _______ _______ _______ _____ _____    ______ ____
ROOT
ATOM      1 CL   UNL     1      -7.214  49.998  26.682  0.00  0.00    +0.000 Cl
ATOM      2  O   UNL     1      -9.707  50.315  25.036  0.00  0.00    +0.000 OA
ATOM      3  O   UNL     1     -10.043  46.041  23.574  0.00  0.00    +0.000 OA
ATOM      4  N   UNL     1      -8.314  46.591  24.937  0.00  0.00    +0.000 N 
ATOM      5  N   UNL     1      -9.872  48.176  24.319  0.00  0.00    +0.000 N 
ATOM      6  C   UNL     1      -7.622  47.508  25.686  0.00  0.00    +0.000 A 
ATOM      7  C   UNL     1      -8.025  48.782  25.773  0.00  0.00    +0.000 A 
ATOM      8  C   UNL     1      -9.256  49.173  25.029  0.00  0.00    +0.000 A 
ATOM      9  C   UNL     1      -9.447  46.883  24.236  0.00  0.00    +0.000 A 
ATOM     10  H   UNL     1      -7.984  45.630  24.884  0.00  0.00    +0.000 HD
ATOM     11  H   UNL     1     -10.708  48.419  23.808  0.00  0.00    +0.000 HD
ENDROOT
BRANCH   6  12
ATOM     12  C   UNL     1      -6.465  47.011  26.346  0.00  0.00    +0.000 C 
BRANCH  12  13
ATOM     13  N   UNL     1      -5.246  46.626  27.030  0.00  0.00    +0.000 N 
ATOM     14  N   UNL     1      -5.114  44.306  26.196  0.00  0.00    +0.000 NA
ATOM     15  C   UNL     1      -4.106  47.540  26.957  0.00  0.00    +0.000 C 
ATOM     16  C   UNL     1      -2.688  47.096  26.616  0.00  0.00    +0.000 C 
ATOM     17  C   UNL     1      -3.252  45.686  26.434  0.00  0.00    +0.000 C 
ATOM     18  C   UNL     1      -4.672  45.446  26.576  0.00  0.00    +0.000 C 
ATOM     19  H   UNL     1      -4.343  43.700  25.891  0.00  0.00    +0.000 HD
ENDBRANCH  12  13
ENDBRANCH   6  12
TORSDOF 2
ENDMDL
MODEL 7
REMARK VINA RESULT:      -4.7      3.477      5.990
REMARK  Name = 6323266_Tipiracil.pdbqt.pdb
REMARK  2 active torsions:
REMARK  status: ('A' for Active; 'I' for Inactive)
REMARK    1  A    between atoms: C_6  and  C_12
REMARK    2  A    between atoms: C_12  and  N_13
REMARK                            x       y       z     vdW  Elec       q    Type
REMARK                         _______ _______ _______ _____ _____    ______ ____
ROOT
ATOM      1 CL   UNL     1       7.517  39.358   7.120  0.00  0.00    +0.000 Cl
ATOM      2  O   UNL     1       6.721  41.800   5.560  0.00  0.00    +0.000 OA
ATOM      3  O   UNL     1       9.140  44.846   7.882  0.00  0.00    +0.000 OA
ATOM      4  N   UNL     1       9.241  42.668   8.512  0.00  0.00    +0.000 N 
ATOM      5  N   UNL     1       7.940  43.312   6.719  0.00  0.00    +0.000 N 
ATOM      6  C   UNL     1       8.876  41.355   8.355  0.00  0.00    +0.000 A 
ATOM      7  C   UNL     1       8.033  40.980   7.384  0.00  0.00    +0.000 A 
ATOM      8  C   UNL     1       7.504  42.036   6.476  0.00  0.00    +0.000 A 
ATOM      9  C   UNL     1       8.796  43.681   7.715  0.00  0.00    +0.000 A 
ATOM     10  H   UNL     1       9.881  42.928   9.260  0.00  0.00    +0.000 HD
ATOM     11  H   UNL     1       7.594  44.044   6.115  0.00  0.00    +0.000 HD
ENDROOT
BRANCH   6  12
ATOM     12  C   UNL     1       9.449  40.445   9.284  0.00  0.00    +0.000 C 
BRANCH  12  13
ATOM     13  N   UNL     1      10.099  39.467  10.134  0.00  0.00    +0.000 N 
ATOM     14  N   UNL     1       8.100  38.131  10.695  0.00  0.00    +0.000 NA
ATOM     15  C   UNL     1      11.329  38.848   9.641  0.00  0.00    +0.000 C 
ATOM     16  C   UNL     1      11.591  37.346   9.674  0.00  0.00    +0.000 C 
ATOM     17  C   UNL     1      10.183  37.188  10.252  0.00  0.00    +0.000 C 
ATOM     18  C   UNL     1       9.332  38.346  10.423  0.00  0.00    +0.000 C 
ATOM     19  H   UNL     1       7.922  37.127  10.810  0.00  0.00    +0.000 HD
ENDBRANCH  12  13
ENDBRANCH   6  12
TORSDOF 2
ENDMDL
MODEL 8
REMARK VINA RESULT:      -4.7     17.783     19.706
REMARK  Name = 6323266_Tipiracil.pdbqt.pdb
REMARK  2 active torsions:
REMARK  status: ('A' for Active; 'I' for Inactive)
REMARK    1  A    between atoms: C_6  and  C_12
REMARK    2  A    between atoms: C_12  and  N_13
REMARK                            x       y       z     vdW  Elec       q    Type
REMARK                         _______ _______ _______ _____ _____    ______ ____
ROOT
ATOM      1 CL   UNL     1      -0.048  27.987  21.081  0.00  0.00    +0.000 Cl
ATOM      2  O   UNL     1       1.672  29.658  19.270  0.00  0.00    +0.000 OA
ATOM      3  O   UNL     1      -0.729  29.136  15.465  0.00  0.00    +0.000 OA
ATOM      4  N   UNL     1      -1.452  28.111  17.356  0.00  0.00    +0.000 N 
ATOM      5  N   UNL     1       0.461  29.400  17.377  0.00  0.00    +0.000 N 
ATOM      6  C   UNL     1      -1.319  27.822  18.690  0.00  0.00    +0.000 A 
ATOM      7  C   UNL     1      -0.295  28.305  19.407  0.00  0.00    +0.000 A 
ATOM      8  C   UNL     1       0.696  29.171  18.708  0.00  0.00    +0.000 A 
ATOM      9  C   UNL     1      -0.583  28.898  16.658  0.00  0.00    +0.000 A 
ATOM     10  H   UNL     1      -2.236  27.729  16.833  0.00  0.00    +0.000 HD
ATOM     11  H   UNL     1       1.121  29.984  16.884  0.00  0.00    +0.000 HD
ENDROOT
BRANCH   6  12
ATOM     12  C   UNL     1      -2.328  26.986  19.239  0.00  0.00    +0.000 C 
BRANCH  12  13
ATOM     13  N   UNL     1      -3.443  26.200  19.730  0.00  0.00    +0.000 N 
ATOM     14  N   UNL     1      -3.047  26.532  22.145  0.00  0.00    +0.000 NA
ATOM     15  C   UNL     1      -4.755  26.427  19.124  0.00  0.00    +0.000 C 
ATOM     16  C   UNL     1      -6.035  26.624  19.929  0.00  0.00    +0.000 C 
ATOM     17  C   UNL     1      -5.171  26.529  21.187  0.00  0.00    +0.000 C 
ATOM     18  C   UNL     1      -3.735  26.383  21.076  0.00  0.00    +0.000 C 
ATOM     19  H   UNL     1      -3.660  26.681  22.955  0.00  0.00    +0.000 HD
ENDBRANCH  12  13
ENDBRANCH   6  12
TORSDOF 2
ENDMDL
MODEL 9
REMARK VINA RESULT:      -4.7     19.196     20.997
REMARK  Name = 6323266_Tipiracil.pdbqt.pdb
REMARK  2 active torsions:
REMARK  status: ('A' for Active; 'I' for Inactive)
REMARK    1  A    between atoms: C_6  and  C_12
REMARK    2  A    between atoms: C_12  and  N_13
REMARK                            x       y       z     vdW  Elec       q    Type
REMARK                         _______ _______ _______ _____ _____    ______ ____
ROOT
ATOM      1 CL   UNL     1      -1.516  27.602  22.576  0.00  0.00    +0.000 Cl
ATOM      2  O   UNL     1       0.893  28.535  21.041  0.00  0.00    +0.000 OA
ATOM      3  O   UNL     1      -1.015  28.737  16.938  0.00  0.00    +0.000 OA
ATOM      4  N   UNL     1      -2.288  28.077  18.697  0.00  0.00    +0.000 N 
ATOM      5  N   UNL     1      -0.071  28.643  18.998  0.00  0.00    +0.000 N 
ATOM      6  C   UNL     1      -2.438  27.802  20.032  0.00  0.00    +0.000 A 
ATOM      7  C   UNL     1      -1.417  27.932  20.889  0.00  0.00    +0.000 A 
ATOM      8  C   UNL     1      -0.107  28.389  20.344  0.00  0.00    +0.000 A 
ATOM      9  C   UNL     1      -1.119  28.501  18.136  0.00  0.00    +0.000 A 
ATOM     10  H   UNL     1      -3.079  27.966  18.067  0.00  0.00    +0.000 HD
ATOM     11  H   UNL     1       0.807  28.953  18.608  0.00  0.00    +0.000 HD
ENDROOT
BRANCH   6  12
ATOM     12  C   UNL     1      -3.735  27.374  20.426  0.00  0.00    +0.000 C 
BRANCH  12  13
ATOM     13  N   UNL     1      -5.083  27.061  20.857  0.00  0.00    +0.000 N 
ATOM     14  N   UNL     1      -6.041  26.581  18.633  0.00  0.00    +0.000 NA
ATOM     15  C   UNL     1      -5.242  26.139  21.982  0.00  0.00    +0.000 C 
ATOM     16  C   UNL     1      -6.206  24.958  21.976  0.00  0.00    +0.000 C 
ATOM     17  C   UNL     1      -6.555  25.344  20.538  0.00  0.00    +0.000 C 
ATOM     18  C   UNL     1      -5.874  26.446  19.895  0.00  0.00    +0.000 C 
ATOM     19  H   UNL     1      -6.709  25.887  18.278  0.00  0.00    +0.000 HD
ENDBRANCH  12  13
ENDBRANCH   6  12
TORSDOF 2
ENDMDL
