MODEL 1
REMARK VINA RESULT:      -6.4      0.000      0.000
REMARK  Name = 6325056_Deoxyelephantopin.pdbqt.pdb
REMARK  3 active torsions:
REMARK  status: ('A' for Active; 'I' for Inactive)
REMARK    1  A    between atoms: C_6  and  O_20
REMARK    2  A    between atoms: O_20  and  C_22
REMARK    3  A    between atoms: C_22  and  C_23
REMARK                            x       y       z     vdW  Elec       q    Type
REMARK                         _______ _______ _______ _____ _____    ______ ____
ROOT
ATOM      1  O   UNL     1     -19.280  43.012   5.140  0.00  0.00    +0.000 OA
ATOM      2  O   UNL     1     -15.628  37.813   6.606  0.00  0.00    +0.000 OA
ATOM      3  O   UNL     1     -21.316  43.914   4.575  0.00  0.00    +0.000 OA
ATOM      4  O   UNL     1     -17.404  36.674   7.574  0.00  0.00    +0.000 OA
ATOM      5  C   UNL     1     -19.924  40.767   5.482  0.00  0.00    +0.000 C 
ATOM      6  C   UNL     1     -19.895  39.351   5.848  0.00  0.00    +0.000 C 
ATOM      7  C   UNL     1     -18.836  41.729   5.484  0.00  0.00    +0.000 C 
ATOM      8  C   UNL     1     -18.806  38.489   5.553  0.00  0.00    +0.000 C 
ATOM      9  C   UNL     1     -21.081  41.548   5.099  0.00  0.00    +0.000 C 
ATOM     10  C   UNL     1     -17.623  37.701   5.389  0.00  0.00    +0.000 C 
ATOM     11  C   UNL     1     -17.453  41.525   5.695  0.00  0.00    +0.000 C 
ATOM     12  C   UNL     1     -15.577  38.588   5.428  0.00  0.00    +0.000 C 
ATOM     13  C   UNL     1     -15.534  39.996   5.650  0.00  0.00    +0.000 C 
ATOM     14  C   UNL     1     -16.051  41.300   5.828  0.00  0.00    +0.000 C 
ATOM     15  C   UNL     1     -16.592  38.155   4.552  0.00  0.00    +0.000 C 
ATOM     16  C   UNL     1     -20.638  42.954   4.902  0.00  0.00    +0.000 C 
ATOM     17  C   UNL     1     -16.910  37.284   6.643  0.00  0.00    +0.000 C 
ATOM     18  C   UNL     1     -22.319  41.091   4.880  0.00  0.00    +0.000 C 
ATOM     19  C   UNL     1     -15.119  42.467   5.886  0.00  0.00    +0.000 C 
ENDROOT
BRANCH   6  20
ATOM     20  O   UNL     1     -21.070  38.718   6.288  0.00  0.00    +0.000 OA
BRANCH  20  22
ATOM     21  O   UNL     1     -20.499  38.480   8.505  0.00  0.00    +0.000 OA
ATOM     22  C   UNL     1     -20.953  38.011   7.464  0.00  0.00    +0.000 C 
BRANCH  22  23
ATOM     23  C   UNL     1     -21.467  36.606   7.275  0.00  0.00    +0.000 C 
ATOM     24  C   UNL     1     -20.554  35.412   7.045  0.00  0.00    +0.000 C 
ATOM     25  C   UNL     1     -22.770  36.312   7.361  0.00  0.00    +0.000 C 
ENDBRANCH  22  23
ENDBRANCH  20  22
ENDBRANCH   6  20
TORSDOF 3
ENDMDL
MODEL 2
REMARK VINA RESULT:      -6.3      2.249      5.635
REMARK  Name = 6325056_Deoxyelephantopin.pdbqt.pdb
REMARK  3 active torsions:
REMARK  status: ('A' for Active; 'I' for Inactive)
REMARK    1  A    between atoms: C_6  and  O_20
REMARK    2  A    between atoms: O_20  and  C_22
REMARK    3  A    between atoms: C_22  and  C_23
REMARK                            x       y       z     vdW  Elec       q    Type
REMARK                         _______ _______ _______ _____ _____    ______ ____
ROOT
ATOM      1  O   UNL     1     -19.153  38.480   6.490  0.00  0.00    +0.000 OA
ATOM      2  O   UNL     1     -14.443  42.214   3.961  0.00  0.00    +0.000 OA
ATOM      3  O   UNL     1     -21.352  38.190   7.088  0.00  0.00    +0.000 OA
ATOM      4  O   UNL     1     -15.905  43.323   2.538  0.00  0.00    +0.000 OA
ATOM      5  C   UNL     1     -19.300  40.597   5.458  0.00  0.00    +0.000 C 
ATOM      6  C   UNL     1     -18.963  41.806   4.706  0.00  0.00    +0.000 C 
ATOM      7  C   UNL     1     -18.438  39.493   5.839  0.00  0.00    +0.000 C 
ATOM      8  C   UNL     1     -17.730  42.496   4.846  0.00  0.00    +0.000 C 
ATOM      9  C   UNL     1     -20.609  40.200   5.933  0.00  0.00    +0.000 C 
ATOM     10  C   UNL     1     -16.416  43.060   4.894  0.00  0.00    +0.000 C 
ATOM     11  C   UNL     1     -17.036  39.361   5.714  0.00  0.00    +0.000 C 
ATOM     12  C   UNL     1     -14.599  41.835   5.311  0.00  0.00    +0.000 C 
ATOM     13  C   UNL     1     -14.843  40.442   5.507  0.00  0.00    +0.000 C 
ATOM     14  C   UNL     1     -15.614  39.268   5.660  0.00  0.00    +0.000 C 
ATOM     15  C   UNL     1     -15.535  42.693   5.922  0.00  0.00    +0.000 C 
ATOM     16  C   UNL     1     -20.477  38.861   6.568  0.00  0.00    +0.000 C 
ATOM     17  C   UNL     1     -15.585  42.939   3.649  0.00  0.00    +0.000 C 
ATOM     18  C   UNL     1     -21.732  40.926   5.890  0.00  0.00    +0.000 C 
ATOM     19  C   UNL     1     -14.944  37.984   6.031  0.00  0.00    +0.000 C 
ENDROOT
BRANCH   6  20
ATOM     20  O   UNL     1     -19.962  42.488   3.990  0.00  0.00    +0.000 OA
BRANCH  20  22
ATOM     21  O   UNL     1     -19.452  41.992   1.801  0.00  0.00    +0.000 OA
ATOM     22  C   UNL     1     -19.637  42.817   2.693  0.00  0.00    +0.000 C 
BRANCH  22  23
ATOM     23  C   UNL     1     -19.555  44.315   2.546  0.00  0.00    +0.000 C 
ATOM     24  C   UNL     1     -18.810  44.999   1.412  0.00  0.00    +0.000 C 
ATOM     25  C   UNL     1     -20.195  45.143   3.382  0.00  0.00    +0.000 C 
ENDBRANCH  22  23
ENDBRANCH  20  22
ENDBRANCH   6  20
TORSDOF 3
ENDMDL
MODEL 3
REMARK VINA RESULT:      -6.2     25.451     27.892
REMARK  Name = 6325056_Deoxyelephantopin.pdbqt.pdb
REMARK  3 active torsions:
REMARK  status: ('A' for Active; 'I' for Inactive)
REMARK    1  A    between atoms: C_6  and  O_20
REMARK    2  A    between atoms: O_20  and  C_22
REMARK    3  A    between atoms: C_22  and  C_23
REMARK                            x       y       z     vdW  Elec       q    Type
REMARK                         _______ _______ _______ _____ _____    ______ ____
ROOT
ATOM      1  O   UNL     1      -7.902  49.012  28.892  0.00  0.00    +0.000 OA
ATOM      2  O   UNL     1      -3.796  45.400  25.340  0.00  0.00    +0.000 OA
ATOM      3  O   UNL     1      -8.336  50.249  30.778  0.00  0.00    +0.000 OA
ATOM      4  O   UNL     1      -1.923  46.537  26.108  0.00  0.00    +0.000 OA
ATOM      5  C   UNL     1      -5.613  48.553  29.239  0.00  0.00    +0.000 C 
ATOM      6  C   UNL     1      -4.234  48.109  29.029  0.00  0.00    +0.000 C 
ATOM      7  C   UNL     1      -6.767  48.375  28.376  0.00  0.00    +0.000 C 
ATOM      8  C   UNL     1      -3.894  46.873  28.420  0.00  0.00    +0.000 C 
ATOM      9  C   UNL     1      -6.119  49.342  30.342  0.00  0.00    +0.000 C 
ATOM     10  C   UNL     1      -3.597  45.703  27.652  0.00  0.00    +0.000 C 
ATOM     11  C   UNL     1      -6.896  47.613  27.191  0.00  0.00    +0.000 C 
ATOM     12  C   UNL     1      -4.941  44.956  26.035  0.00  0.00    +0.000 C 
ATOM     13  C   UNL     1      -6.109  45.744  25.811  0.00  0.00    +0.000 C 
ATOM     14  C   UNL     1      -7.044  46.778  26.045  0.00  0.00    +0.000 C 
ATOM     15  C   UNL     1      -4.606  44.764  27.391  0.00  0.00    +0.000 C 
ATOM     16  C   UNL     1      -7.558  49.618  30.084  0.00  0.00    +0.000 C 
ATOM     17  C   UNL     1      -2.954  45.921  26.312  0.00  0.00    +0.000 C 
ATOM     18  C   UNL     1      -5.451  49.702  31.444  0.00  0.00    +0.000 C 
ATOM     19  C   UNL     1      -8.313  46.825  25.257  0.00  0.00    +0.000 C 
ENDROOT
BRANCH   6  20
ATOM     20  O   UNL     1      -3.178  48.786  29.663  0.00  0.00    +0.000 OA
BRANCH  20  22
ATOM     21  O   UNL     1      -0.997  48.692  28.932  0.00  0.00    +0.000 OA
ATOM     22  C   UNL     1      -2.134  49.149  28.841  0.00  0.00    +0.000 C 
BRANCH  22  23
ATOM     23  C   UNL     1      -2.604  50.165  27.831  0.00  0.00    +0.000 C 
ATOM     24  C   UNL     1      -3.175  51.519  28.219  0.00  0.00    +0.000 C 
ATOM     25  C   UNL     1      -2.486  49.959  26.513  0.00  0.00    +0.000 C 
ENDBRANCH  22  23
ENDBRANCH  20  22
ENDBRANCH   6  20
TORSDOF 3
ENDMDL
MODEL 4
REMARK VINA RESULT:      -6.2     28.334     31.457
REMARK  Name = 6325056_Deoxyelephantopin.pdbqt.pdb
REMARK  3 active torsions:
REMARK  status: ('A' for Active; 'I' for Inactive)
REMARK    1  A    between atoms: C_6  and  O_20
REMARK    2  A    between atoms: O_20  and  C_22
REMARK    3  A    between atoms: C_22  and  C_23
REMARK                            x       y       z     vdW  Elec       q    Type
REMARK                         _______ _______ _______ _____ _____    ______ ____
ROOT
ATOM      1  O   UNL     1       6.282  54.109  17.588  0.00  0.00    +0.000 OA
ATOM      2  O   UNL     1       3.762  58.830  21.315  0.00  0.00    +0.000 OA
ATOM      3  O   UNL     1       6.009  52.482  15.989  0.00  0.00    +0.000 OA
ATOM      4  O   UNL     1       2.146  59.389  19.744  0.00  0.00    +0.000 OA
ATOM      5  C   UNL     1       4.111  55.034  17.584  0.00  0.00    +0.000 C 
ATOM      6  C   UNL     1       2.971  55.914  17.848  0.00  0.00    +0.000 C 
ATOM      7  C   UNL     1       5.445  55.079  18.154  0.00  0.00    +0.000 C 
ATOM      8  C   UNL     1       2.670  56.440  19.132  0.00  0.00    +0.000 C 
ATOM      9  C   UNL     1       4.175  53.952  16.625  0.00  0.00    +0.000 C 
ATOM     10  C   UNL     1       2.503  57.081  20.400  0.00  0.00    +0.000 C 
ATOM     11  C   UNL     1       5.949  55.879  19.206  0.00  0.00    +0.000 C 
ATOM     12  C   UNL     1       4.223  57.564  21.736  0.00  0.00    +0.000 C 
ATOM     13  C   UNL     1       5.505  57.204  21.223  0.00  0.00    +0.000 C 
ATOM     14  C   UNL     1       6.428  56.629  20.320  0.00  0.00    +0.000 C 
ATOM     15  C   UNL     1       3.208  56.612  21.519  0.00  0.00    +0.000 C 
ATOM     16  C   UNL     1       5.557  53.401  16.651  0.00  0.00    +0.000 C 
ATOM     17  C   UNL     1       2.719  58.567  20.438  0.00  0.00    +0.000 C 
ATOM     18  C   UNL     1       3.165  53.466  15.895  0.00  0.00    +0.000 C 
ATOM     19  C   UNL     1       7.879  56.578  20.674  0.00  0.00    +0.000 C 
ENDROOT
BRANCH   6  20
ATOM     20  O   UNL     1       1.967  56.069  16.877  0.00  0.00    +0.000 OA
BRANCH  20  22
ATOM     21  O   UNL     1       0.682  57.974  16.737  0.00  0.00    +0.000 OA
ATOM     22  C   UNL     1       1.721  57.367  16.487  0.00  0.00    +0.000 C 
BRANCH  22  23
ATOM     23  C   UNL     1       2.907  57.912  15.732  0.00  0.00    +0.000 C 
ATOM     24  C   UNL     1       3.719  59.105  16.210  0.00  0.00    +0.000 C 
ATOM     25  C   UNL     1       3.360  57.331  14.614  0.00  0.00    +0.000 C 
ENDBRANCH  22  23
ENDBRANCH  20  22
ENDBRANCH   6  20
TORSDOF 3
ENDMDL
MODEL 5
REMARK VINA RESULT:      -6.1      2.735      5.950
REMARK  Name = 6325056_Deoxyelephantopin.pdbqt.pdb
REMARK  3 active torsions:
REMARK  status: ('A' for Active; 'I' for Inactive)
REMARK    1  A    between atoms: C_6  and  O_20
REMARK    2  A    between atoms: O_20  and  C_22
REMARK    3  A    between atoms: C_22  and  C_23
REMARK                            x       y       z     vdW  Elec       q    Type
REMARK                         _______ _______ _______ _____ _____    ______ ____
ROOT
ATOM      1  O   UNL     1     -21.347  41.256   5.046  0.00  0.00    +0.000 OA
ATOM      2  O   UNL     1     -14.846  40.741   4.992  0.00  0.00    +0.000 OA
ATOM      3  O   UNL     1     -23.240  42.537   4.817  0.00  0.00    +0.000 OA
ATOM      4  O   UNL     1     -14.595  42.426   3.414  0.00  0.00    +0.000 OA
ATOM      5  C   UNL     1     -19.714  42.856   4.460  0.00  0.00    +0.000 C 
ATOM      6  C   UNL     1     -18.435  43.478   4.114  0.00  0.00    +0.000 C 
ATOM      7  C   UNL     1     -19.977  41.491   4.878  0.00  0.00    +0.000 C 
ATOM      8  C   UNL     1     -17.218  43.190   4.785  0.00  0.00    +0.000 C 
ATOM      9  C   UNL     1     -21.028  43.460   4.390  0.00  0.00    +0.000 C 
ATOM     10  C   UNL     1     -15.991  42.747   5.371  0.00  0.00    +0.000 C 
ATOM     11  C   UNL     1     -19.067  40.455   5.198  0.00  0.00    +0.000 C 
ATOM     12  C   UNL     1     -15.700  40.663   6.113  0.00  0.00    +0.000 C 
ATOM     13  C   UNL     1     -16.822  39.800   5.940  0.00  0.00    +0.000 C 
ATOM     14  C   UNL     1     -18.146  39.443   5.598  0.00  0.00    +0.000 C 
ATOM     15  C   UNL     1     -16.015  41.969   6.539  0.00  0.00    +0.000 C 
ATOM     16  C   UNL     1     -22.028  42.421   4.757  0.00  0.00    +0.000 C 
ATOM     17  C   UNL     1     -15.039  42.013   4.471  0.00  0.00    +0.000 C 
ATOM     18  C   UNL     1     -21.308  44.740   4.124  0.00  0.00    +0.000 C 
ATOM     19  C   UNL     1     -18.649  38.070   5.908  0.00  0.00    +0.000 C 
ENDROOT
BRANCH   6  20
ATOM     20  O   UNL     1     -18.409  44.593   3.258  0.00  0.00    +0.000 OA
BRANCH  20  22
ATOM     21  O   UNL     1     -17.331  43.608   1.479  0.00  0.00    +0.000 OA
ATOM     22  C   UNL     1     -18.241  44.305   1.921  0.00  0.00    +0.000 C 
BRANCH  22  23
ATOM     23  C   UNL     1     -19.332  44.959   1.112  0.00  0.00    +0.000 C 
ATOM     24  C   UNL     1     -20.433  44.175   0.417  0.00  0.00    +0.000 C 
ATOM     25  C   UNL     1     -19.433  46.290   1.007  0.00  0.00    +0.000 C 
ENDBRANCH  22  23
ENDBRANCH  20  22
ENDBRANCH   6  20
TORSDOF 3
ENDMDL
MODEL 6
REMARK VINA RESULT:      -6.1      2.507      5.370
REMARK  Name = 6325056_Deoxyelephantopin.pdbqt.pdb
REMARK  3 active torsions:
REMARK  status: ('A' for Active; 'I' for Inactive)
REMARK    1  A    between atoms: C_6  and  O_20
REMARK    2  A    between atoms: O_20  and  C_22
REMARK    3  A    between atoms: C_22  and  C_23
REMARK                            x       y       z     vdW  Elec       q    Type
REMARK                         _______ _______ _______ _____ _____    ______ ____
ROOT
ATOM      1  O   UNL     1     -15.533  37.995   2.213  0.00  0.00    +0.000 OA
ATOM      2  O   UNL     1     -17.251  43.638   4.995  0.00  0.00    +0.000 OA
ATOM      3  O   UNL     1     -14.954  35.781   2.406  0.00  0.00    +0.000 OA
ATOM      4  O   UNL     1     -18.326  42.589   6.765  0.00  0.00    +0.000 OA
ATOM      5  C   UNL     1     -16.030  38.472   4.470  0.00  0.00    +0.000 C 
ATOM      6  C   UNL     1     -16.485  39.156   5.682  0.00  0.00    +0.000 C 
ATOM      7  C   UNL     1     -15.948  38.983   3.114  0.00  0.00    +0.000 C 
ATOM      8  C   UNL     1     -16.223  40.524   5.953  0.00  0.00    +0.000 C 
ATOM      9  C   UNL     1     -15.623  37.088   4.348  0.00  0.00    +0.000 C 
ATOM     10  C   UNL     1     -16.084  41.940   6.105  0.00  0.00    +0.000 C 
ATOM     11  C   UNL     1     -16.144  40.300   2.634  0.00  0.00    +0.000 C 
ATOM     12  C   UNL     1     -16.025  43.334   4.365  0.00  0.00    +0.000 C 
ATOM     13  C   UNL     1     -16.156  42.711   3.088  0.00  0.00    +0.000 C 
ATOM     14  C   UNL     1     -16.261  41.642   2.169  0.00  0.00    +0.000 C 
ATOM     15  C   UNL     1     -15.199  42.649   5.278  0.00  0.00    +0.000 C 
ATOM     16  C   UNL     1     -15.327  36.825   2.914  0.00  0.00    +0.000 C 
ATOM     17  C   UNL     1     -17.347  42.751   6.058  0.00  0.00    +0.000 C 
ATOM     18  C   UNL     1     -15.458  36.210   5.344  0.00  0.00    +0.000 C 
ATOM     19  C   UNL     1     -16.226  41.920   0.701  0.00  0.00    +0.000 C 
ENDROOT
BRANCH   6  20
ATOM     20  O   UNL     1     -16.988  38.408   6.760  0.00  0.00    +0.000 OA
BRANCH  20  22
ATOM     21  O   UNL     1     -19.193  39.063   6.684  0.00  0.00    +0.000 OA
ATOM     22  C   UNL     1     -18.346  38.175   6.733  0.00  0.00    +0.000 C 
BRANCH  22  23
ATOM     23  C   UNL     1     -18.615  36.692   6.761  0.00  0.00    +0.000 C 
ATOM     24  C   UNL     1     -19.235  35.938   5.596  0.00  0.00    +0.000 C 
ATOM     25  C   UNL     1     -18.261  35.929   7.803  0.00  0.00    +0.000 C 
ENDBRANCH  22  23
ENDBRANCH  20  22
ENDBRANCH   6  20
TORSDOF 3
ENDMDL
MODEL 7
REMARK VINA RESULT:      -5.7      2.713      6.041
REMARK  Name = 6325056_Deoxyelephantopin.pdbqt.pdb
REMARK  3 active torsions:
REMARK  status: ('A' for Active; 'I' for Inactive)
REMARK    1  A    between atoms: C_6  and  O_20
REMARK    2  A    between atoms: O_20  and  C_22
REMARK    3  A    between atoms: C_22  and  C_23
REMARK                            x       y       z     vdW  Elec       q    Type
REMARK                         _______ _______ _______ _____ _____    ______ ____
ROOT
ATOM      1  O   UNL     1     -17.209  32.821   5.383  0.00  0.00    +0.000 OA
ATOM      2  O   UNL     1     -16.455  39.258   4.663  0.00  0.00    +0.000 OA
ATOM      3  O   UNL     1     -17.996  31.037   6.597  0.00  0.00    +0.000 OA
ATOM      4  O   UNL     1     -18.428  39.747   5.785  0.00  0.00    +0.000 OA
ATOM      5  C   UNL     1     -18.077  34.593   6.678  0.00  0.00    +0.000 C 
ATOM      6  C   UNL     1     -18.462  35.933   7.125  0.00  0.00    +0.000 C 
ATOM      7  C   UNL     1     -17.301  34.212   5.511  0.00  0.00    +0.000 C 
ATOM      8  C   UNL     1     -17.617  37.068   7.013  0.00  0.00    +0.000 C 
ATOM      9  C   UNL     1     -18.454  33.330   7.275  0.00  0.00    +0.000 C 
ATOM     10  C   UNL     1     -16.805  38.210   6.727  0.00  0.00    +0.000 C 
ATOM     11  C   UNL     1     -16.598  35.026   4.592  0.00  0.00    +0.000 C 
ATOM     12  C   UNL     1     -15.453  38.308   4.955  0.00  0.00    +0.000 C 
ATOM     13  C   UNL     1     -15.473  37.154   4.117  0.00  0.00    +0.000 C 
ATOM     14  C   UNL     1     -15.825  35.845   3.717  0.00  0.00    +0.000 C 
ATOM     15  C   UNL     1     -15.468  38.038   6.338  0.00  0.00    +0.000 C 
ATOM     16  C   UNL     1     -17.898  32.240   6.429  0.00  0.00    +0.000 C 
ATOM     17  C   UNL     1     -17.347  39.189   5.725  0.00  0.00    +0.000 C 
ATOM     18  C   UNL     1     -19.115  33.152   8.424  0.00  0.00    +0.000 C 
ATOM     19  C   UNL     1     -15.174  35.234   2.518  0.00  0.00    +0.000 C 
ENDROOT
BRANCH   6  20
ATOM     20  O   UNL     1     -19.603  36.101   7.928  0.00  0.00    +0.000 OA
BRANCH  20  22
ATOM     21  O   UNL     1     -20.653  38.144   8.069  0.00  0.00    +0.000 OA
ATOM     22  C   UNL     1     -20.486  37.068   7.501  0.00  0.00    +0.000 C 
BRANCH  22  23
ATOM     23  C   UNL     1     -21.189  36.607   6.249  0.00  0.00    +0.000 C 
ATOM     24  C   UNL     1     -22.054  35.358   6.195  0.00  0.00    +0.000 C 
ATOM     25  C   UNL     1     -21.145  37.313   5.112  0.00  0.00    +0.000 C 
ENDBRANCH  22  23
ENDBRANCH  20  22
ENDBRANCH   6  20
TORSDOF 3
ENDMDL
MODEL 8
REMARK VINA RESULT:      -5.7      2.099      4.929
REMARK  Name = 6325056_Deoxyelephantopin.pdbqt.pdb
REMARK  3 active torsions:
REMARK  status: ('A' for Active; 'I' for Inactive)
REMARK    1  A    between atoms: C_6  and  O_20
REMARK    2  A    between atoms: O_20  and  C_22
REMARK    3  A    between atoms: C_22  and  C_23
REMARK                            x       y       z     vdW  Elec       q    Type
REMARK                         _______ _______ _______ _____ _____    ______ ____
ROOT
ATOM      1  O   UNL     1     -18.242  36.076   6.909  0.00  0.00    +0.000 OA
ATOM      2  O   UNL     1     -15.298  41.280   4.308  0.00  0.00    +0.000 OA
ATOM      3  O   UNL     1     -20.142  35.062   7.709  0.00  0.00    +0.000 OA
ATOM      4  O   UNL     1     -17.212  41.967   3.187  0.00  0.00    +0.000 OA
ATOM      5  C   UNL     1     -19.171  38.105   6.142  0.00  0.00    +0.000 C 
ATOM      6  C   UNL     1     -19.326  39.410   5.497  0.00  0.00    +0.000 C 
ATOM      7  C   UNL     1     -17.969  37.307   6.300  0.00  0.00    +0.000 C 
ATOM      8  C   UNL     1     -18.356  40.443   5.577  0.00  0.00    +0.000 C 
ATOM      9  C   UNL     1     -20.216  37.281   6.711  0.00  0.00    +0.000 C 
ATOM     10  C   UNL     1     -17.283  41.389   5.541  0.00  0.00    +0.000 C 
ATOM     11  C   UNL     1     -16.624  37.635   6.007  0.00  0.00    +0.000 C 
ATOM     12  C   UNL     1     -15.140  40.775   5.616  0.00  0.00    +0.000 C 
ATOM     13  C   UNL     1     -14.918  39.367   5.681  0.00  0.00    +0.000 C 
ATOM     14  C   UNL     1     -15.264  38.001   5.787  0.00  0.00    +0.000 C 
ATOM     15  C   UNL     1     -16.198  41.247   6.419  0.00  0.00    +0.000 C 
ATOM     16  C   UNL     1     -19.595  36.011   7.174  0.00  0.00    +0.000 C 
ATOM     17  C   UNL     1     -16.638  41.627   4.206  0.00  0.00    +0.000 C 
ATOM     18  C   UNL     1     -21.501  37.615   6.874  0.00  0.00    +0.000 C 
ATOM     19  C   UNL     1     -14.190  36.972   5.936  0.00  0.00    +0.000 C 
ENDROOT
BRANCH   6  20
ATOM     20  O   UNL     1     -20.576  39.788   4.977  0.00  0.00    +0.000 OA
BRANCH  20  22
ATOM     21  O   UNL     1     -20.745  41.331   3.277  0.00  0.00    +0.000 OA
ATOM     22  C   UNL     1     -20.570  40.175   3.654  0.00  0.00    +0.000 C 
BRANCH  22  23
ATOM     23  C   UNL     1     -20.312  38.982   2.769  0.00  0.00    +0.000 C 
ATOM     24  C   UNL     1     -21.183  37.736   2.782  0.00  0.00    +0.000 C 
ATOM     25  C   UNL     1     -19.326  38.973   1.863  0.00  0.00    +0.000 C 
ENDBRANCH  22  23
ENDBRANCH  20  22
ENDBRANCH   6  20
TORSDOF 3
ENDMDL
MODEL 9
REMARK VINA RESULT:      -5.6     12.525     16.246
REMARK  Name = 6325056_Deoxyelephantopin.pdbqt.pdb
REMARK  3 active torsions:
REMARK  status: ('A' for Active; 'I' for Inactive)
REMARK    1  A    between atoms: C_6  and  O_20
REMARK    2  A    between atoms: O_20  and  C_22
REMARK    3  A    between atoms: C_22  and  C_23
REMARK                            x       y       z     vdW  Elec       q    Type
REMARK                         _______ _______ _______ _____ _____    ______ ____
ROOT
ATOM      1  O   UNL     1      -2.920  41.704   0.089  0.00  0.00    +0.000 OA
ATOM      2  O   UNL     1      -7.938  38.231   2.387  0.00  0.00    +0.000 OA
ATOM      3  O   UNL     1      -0.687  42.243   0.142  0.00  0.00    +0.000 OA
ATOM      4  O   UNL     1      -6.598  36.418   2.943  0.00  0.00    +0.000 OA
ATOM      5  C   UNL     1      -2.940  39.950   1.668  0.00  0.00    +0.000 C 
ATOM      6  C   UNL     1      -3.379  38.821   2.489  0.00  0.00    +0.000 C 
ATOM      7  C   UNL     1      -3.718  40.763   0.750  0.00  0.00    +0.000 C 
ATOM      8  C   UNL     1      -4.646  38.762   3.127  0.00  0.00    +0.000 C 
ATOM      9  C   UNL     1      -1.594  40.465   1.536  0.00  0.00    +0.000 C 
ATOM     10  C   UNL     1      -5.990  38.669   3.608  0.00  0.00    +0.000 C 
ATOM     11  C   UNL     1      -5.114  40.775   0.519  0.00  0.00    +0.000 C 
ATOM     12  C   UNL     1      -7.711  39.614   2.550  0.00  0.00    +0.000 C 
ATOM     13  C   UNL     1      -7.375  40.302   1.346  0.00  0.00    +0.000 C 
ATOM     14  C   UNL     1      -6.528  40.839   0.350  0.00  0.00    +0.000 C 
ATOM     15  C   UNL     1      -6.810  39.808   3.616  0.00  0.00    +0.000 C 
ATOM     16  C   UNL     1      -1.620  41.560   0.530  0.00  0.00    +0.000 C 
ATOM     17  C   UNL     1      -6.855  37.608   2.992  0.00  0.00    +0.000 C 
ATOM     18  C   UNL     1      -0.520  40.091   2.242  0.00  0.00    +0.000 C 
ATOM     19  C   UNL     1      -7.103  41.699  -0.729  0.00  0.00    +0.000 C 
ENDROOT
BRANCH   6  20
ATOM     20  O   UNL     1      -2.448  37.848   2.895  0.00  0.00    +0.000 OA
BRANCH  20  22
ATOM     21  O   UNL     1      -3.176  35.672   2.718  0.00  0.00    +0.000 OA
ATOM     22  C   UNL     1      -2.557  36.630   2.262  0.00  0.00    +0.000 C 
BRANCH  22  23
ATOM     23  C   UNL     1      -1.820  36.665   0.947  0.00  0.00    +0.000 C 
ATOM     24  C   UNL     1      -2.523  36.765  -0.396  0.00  0.00    +0.000 C 
ATOM     25  C   UNL     1      -0.482  36.673   0.886  0.00  0.00    +0.000 C 
ENDBRANCH  22  23
ENDBRANCH  20  22
ENDBRANCH   6  20
TORSDOF 3
ENDMDL
