MODEL 1
REMARK VINA RESULT:      -5.7      0.000      0.000
REMARK  Name = 641785_Cardamonin.pdbqt.pdb
REMARK  6 active torsions:
REMARK  status: ('A' for Active; 'I' for Inactive)
REMARK    1  A    between atoms: C_1  and  C_14
REMARK    2  A    between atoms: C_2  and  O_7
REMARK    3  A    between atoms: C_3  and  O_9
REMARK    4  A    between atoms: C_6  and  O_11
REMARK    5  A    between atoms: C_14  and  C_15
REMARK    6  A    between atoms: C_16  and  C_17
REMARK                            x       y       z     vdW  Elec       q    Type
REMARK                         _______ _______ _______ _____ _____    ______ ____
ROOT
ATOM      1  C   UNL     1     -24.576  43.209  19.088  0.00  0.00    +0.000 A 
ATOM      2  C   UNL     1     -25.551  43.487  18.110  0.00  0.00    +0.000 A 
ATOM      3  C   UNL     1     -23.336  43.875  19.019  0.00  0.00    +0.000 A 
ATOM      4  C   UNL     1     -25.253  44.395  17.083  0.00  0.00    +0.000 A 
ATOM      5  C   UNL     1     -23.052  44.767  17.985  0.00  0.00    +0.000 A 
ATOM      6  C   UNL     1     -24.013  45.017  17.019  0.00  0.00    +0.000 A 
ENDROOT
BRANCH   2   7
ATOM      7  O   UNL     1     -26.798  42.919  18.230  0.00  0.00    +0.000 OA
ATOM      8  C   UNL     1     -27.140  41.976  17.254  0.00  0.00    +0.000 C 
ENDBRANCH   2   7
BRANCH   3   9
ATOM      9  O   UNL     1     -22.330  43.703  19.936  0.00  0.00    +0.000 OA
ATOM     10  H   UNL     1     -21.509  44.136  19.612  0.00  0.00    +0.000 HD
ENDBRANCH   3   9
BRANCH   6  11
ATOM     11  O   UNL     1     -23.722  45.890  16.015  0.00  0.00    +0.000 OA
ATOM     12  H   UNL     1     -22.820  46.232  16.147  0.00  0.00    +0.000 HD
ENDBRANCH   6  11
BRANCH   1  14
ATOM     13  O   UNL     1     -25.047  42.654  21.328  0.00  0.00    +0.000 OA
ATOM     14  C   UNL     1     -24.783  42.248  20.201  0.00  0.00    +0.000 C 
BRANCH  14  15
ATOM     15  C   UNL     1     -24.604  40.833  19.992  0.00  0.00    +0.000 C 
ATOM     16  C   UNL     1     -24.470  39.650  19.826  0.00  0.00    +0.000 C 
BRANCH  16  17
ATOM     17  C   UNL     1     -24.305  38.247  19.628  0.00  0.00    +0.000 A 
ATOM     18  C   UNL     1     -25.369  37.381  19.873  0.00  0.00    +0.000 A 
ATOM     19  C   UNL     1     -23.081  37.745  19.192  0.00  0.00    +0.000 A 
ATOM     20  C   UNL     1     -25.208  36.011  19.681  0.00  0.00    +0.000 A 
ATOM     21  C   UNL     1     -22.921  36.374  19.001  0.00  0.00    +0.000 A 
ATOM     22  C   UNL     1     -23.984  35.509  19.246  0.00  0.00    +0.000 A 
ENDBRANCH  16  17
ENDBRANCH  14  15
ENDBRANCH   1  14
TORSDOF 6
ENDMDL
MODEL 2
REMARK VINA RESULT:      -5.5     20.397     22.806
REMARK  Name = 641785_Cardamonin.pdbqt.pdb
REMARK  6 active torsions:
REMARK  status: ('A' for Active; 'I' for Inactive)
REMARK    1  A    between atoms: C_1  and  C_14
REMARK    2  A    between atoms: C_2  and  O_7
REMARK    3  A    between atoms: C_3  and  O_9
REMARK    4  A    between atoms: C_6  and  O_11
REMARK    5  A    between atoms: C_14  and  C_15
REMARK    6  A    between atoms: C_16  and  C_17
REMARK                            x       y       z     vdW  Elec       q    Type
REMARK                         _______ _______ _______ _____ _____    ______ ____
ROOT
ATOM      1  C   UNL     1      -3.154  46.555  27.242  0.00  0.00    +0.000 A 
ATOM      2  C   UNL     1      -2.510  47.797  27.402  0.00  0.00    +0.000 A 
ATOM      3  C   UNL     1      -3.201  45.669  28.337  0.00  0.00    +0.000 A 
ATOM      4  C   UNL     1      -1.913  48.107  28.633  0.00  0.00    +0.000 A 
ATOM      5  C   UNL     1      -2.593  45.988  29.551  0.00  0.00    +0.000 A 
ATOM      6  C   UNL     1      -1.946  47.205  29.688  0.00  0.00    +0.000 A 
ENDROOT
BRANCH   2   7
ATOM      7  O   UNL     1      -2.550  48.708  26.371  0.00  0.00    +0.000 OA
ATOM      8  C   UNL     1      -1.877  49.915  26.592  0.00  0.00    +0.000 C 
ENDBRANCH   2   7
BRANCH   3   9
ATOM      9  O   UNL     1      -3.829  44.449  28.300  0.00  0.00    +0.000 OA
ATOM     10  H   UNL     1      -4.169  44.224  29.194  0.00  0.00    +0.000 HD
ENDBRANCH   3   9
BRANCH   6  11
ATOM     11  O   UNL     1      -1.356  47.503  30.879  0.00  0.00    +0.000 OA
ATOM     12  H   UNL     1      -2.005  47.954  31.448  0.00  0.00    +0.000 HD
ENDBRANCH   6  11
BRANCH   1  14
ATOM     13  O   UNL     1      -3.208  45.367  25.209  0.00  0.00    +0.000 OA
ATOM     14  C   UNL     1      -3.796  46.122  25.975  0.00  0.00    +0.000 C 
BRANCH  14  15
ATOM     15  C   UNL     1      -5.086  46.642  25.591  0.00  0.00    +0.000 C 
ATOM     16  C   UNL     1      -6.153  47.082  25.256  0.00  0.00    +0.000 C 
BRANCH  16  17
ATOM     17  C   UNL     1      -7.421  47.603  24.865  0.00  0.00    +0.000 A 
ATOM     18  C   UNL     1      -8.568  46.824  25.013  0.00  0.00    +0.000 A 
ATOM     19  C   UNL     1      -7.513  48.888  24.334  0.00  0.00    +0.000 A 
ATOM     20  C   UNL     1      -9.807  47.332  24.629  0.00  0.00    +0.000 A 
ATOM     21  C   UNL     1      -8.753  49.394  23.950  0.00  0.00    +0.000 A 
ATOM     22  C   UNL     1      -9.898  48.616  24.098  0.00  0.00    +0.000 A 
ENDBRANCH  16  17
ENDBRANCH  14  15
ENDBRANCH   1  14
TORSDOF 6
ENDMDL
MODEL 3
REMARK VINA RESULT:      -5.3     26.801     28.781
REMARK  Name = 641785_Cardamonin.pdbqt.pdb
REMARK  6 active torsions:
REMARK  status: ('A' for Active; 'I' for Inactive)
REMARK    1  A    between atoms: C_1  and  C_14
REMARK    2  A    between atoms: C_2  and  O_7
REMARK    3  A    between atoms: C_3  and  O_9
REMARK    4  A    between atoms: C_6  and  O_11
REMARK    5  A    between atoms: C_14  and  C_15
REMARK    6  A    between atoms: C_16  and  C_17
REMARK                            x       y       z     vdW  Elec       q    Type
REMARK                         _______ _______ _______ _____ _____    ______ ____
ROOT
ATOM      1  C   UNL     1       0.232  40.743  33.294  0.00  0.00    +0.000 A 
ATOM      2  C   UNL     1      -0.400  39.488  33.207  0.00  0.00    +0.000 A 
ATOM      3  C   UNL     1       1.615  40.790  33.564  0.00  0.00    +0.000 A 
ATOM      4  C   UNL     1       0.355  38.324  33.415  0.00  0.00    +0.000 A 
ATOM      5  C   UNL     1       2.348  39.624  33.779  0.00  0.00    +0.000 A 
ATOM      6  C   UNL     1       1.711  38.397  33.709  0.00  0.00    +0.000 A 
ENDROOT
BRANCH   2   7
ATOM      7  O   UNL     1      -1.725  39.431  32.842  0.00  0.00    +0.000 OA
ATOM      8  C   UNL     1      -2.607  38.933  33.809  0.00  0.00    +0.000 C 
ENDBRANCH   2   7
BRANCH   3   9
ATOM      9  O   UNL     1       2.334  41.957  33.639  0.00  0.00    +0.000 OA
ATOM     10  H   UNL     1       3.286  41.769  33.485  0.00  0.00    +0.000 HD
ENDBRANCH   3   9
BRANCH   6  11
ATOM     11  O   UNL     1       2.440  37.266  33.922  0.00  0.00    +0.000 OA
ATOM     12  H   UNL     1       1.930  36.499  33.606  0.00  0.00    +0.000 HD
ENDBRANCH   6  11
BRANCH   1  14
ATOM     13  O   UNL     1      -1.334  42.388  33.920  0.00  0.00    +0.000 OA
ATOM     14  C   UNL     1      -0.481  42.033  33.113  0.00  0.00    +0.000 C 
BRANCH  14  15
ATOM     15  C   UNL     1      -0.237  42.849  31.950  0.00  0.00    +0.000 C 
ATOM     16  C   UNL     1      -0.014  43.527  30.981  0.00  0.00    +0.000 C 
BRANCH  16  17
ATOM     17  C   UNL     1       0.244  44.333  29.834  0.00  0.00    +0.000 A 
ATOM     18  C   UNL     1      -0.692  45.283  29.429  0.00  0.00    +0.000 A 
ATOM     19  C   UNL     1       1.427  44.167  29.118  0.00  0.00    +0.000 A 
ATOM     20  C   UNL     1      -0.442  46.069  28.306  0.00  0.00    +0.000 A 
ATOM     21  C   UNL     1       1.676  44.954  27.996  0.00  0.00    +0.000 A 
ATOM     22  C   UNL     1       0.742  45.904  27.591  0.00  0.00    +0.000 A 
ENDBRANCH  16  17
ENDBRANCH  14  15
ENDBRANCH   1  14
TORSDOF 6
ENDMDL
MODEL 4
REMARK VINA RESULT:      -5.2     14.428     15.844
REMARK  Name = 641785_Cardamonin.pdbqt.pdb
REMARK  6 active torsions:
REMARK  status: ('A' for Active; 'I' for Inactive)
REMARK    1  A    between atoms: C_1  and  C_14
REMARK    2  A    between atoms: C_2  and  O_7
REMARK    3  A    between atoms: C_3  and  O_9
REMARK    4  A    between atoms: C_6  and  O_11
REMARK    5  A    between atoms: C_14  and  C_15
REMARK    6  A    between atoms: C_16  and  C_17
REMARK                            x       y       z     vdW  Elec       q    Type
REMARK                         _______ _______ _______ _____ _____    ______ ____
ROOT
ATOM      1  C   UNL     1     -16.393  42.451   4.807  0.00  0.00    +0.000 A 
ATOM      2  C   UNL     1     -17.602  43.042   4.392  0.00  0.00    +0.000 A 
ATOM      3  C   UNL     1     -15.275  42.519   3.950  0.00  0.00    +0.000 A 
ATOM      4  C   UNL     1     -17.669  43.657   3.133  0.00  0.00    +0.000 A 
ATOM      5  C   UNL     1     -15.362  43.124   2.697  0.00  0.00    +0.000 A 
ATOM      6  C   UNL     1     -16.562  43.685   2.294  0.00  0.00    +0.000 A 
ENDROOT
BRANCH   2   7
ATOM      7  O   UNL     1     -18.666  43.070   5.264  0.00  0.00    +0.000 OA
ATOM      8  C   UNL     1     -19.881  43.522   4.737  0.00  0.00    +0.000 C 
ENDBRANCH   2   7
BRANCH   3   9
ATOM      9  O   UNL     1     -14.043  42.005   4.269  0.00  0.00    +0.000 OA
ATOM     10  H   UNL     1     -14.080  41.585   5.156  0.00  0.00    +0.000 HD
ENDBRANCH   3   9
BRANCH   6  11
ATOM     11  O   UNL     1     -16.633  44.272   1.067  0.00  0.00    +0.000 OA
ATOM     12  H   UNL     1     -16.262  43.662   0.405  0.00  0.00    +0.000 HD
ENDBRANCH   6  11
BRANCH   1  14
ATOM     13  O   UNL     1     -15.771  42.358   7.076  0.00  0.00    +0.000 OA
ATOM     14  C   UNL     1     -16.225  41.757   6.109  0.00  0.00    +0.000 C 
BRANCH  14  15
ATOM     15  C   UNL     1     -16.522  40.351   6.234  0.00  0.00    +0.000 C 
ATOM     16  C   UNL     1     -16.768  39.181   6.358  0.00  0.00    +0.000 C 
BRANCH  16  17
ATOM     17  C   UNL     1     -17.059  37.792   6.497  0.00  0.00    +0.000 A 
ATOM     18  C   UNL     1     -16.369  36.857   5.727  0.00  0.00    +0.000 A 
ATOM     19  C   UNL     1     -18.033  37.372   7.400  0.00  0.00    +0.000 A 
ATOM     20  C   UNL     1     -16.654  35.500   5.862  0.00  0.00    +0.000 A 
ATOM     21  C   UNL     1     -18.317  36.015   7.534  0.00  0.00    +0.000 A 
ATOM     22  C   UNL     1     -17.628  35.081   6.765  0.00  0.00    +0.000 A 
ENDBRANCH  16  17
ENDBRANCH  14  15
ENDBRANCH   1  14
TORSDOF 6
ENDMDL
MODEL 5
REMARK VINA RESULT:      -5.2     22.312     24.057
REMARK  Name = 641785_Cardamonin.pdbqt.pdb
REMARK  6 active torsions:
REMARK  status: ('A' for Active; 'I' for Inactive)
REMARK    1  A    between atoms: C_1  and  C_14
REMARK    2  A    between atoms: C_2  and  O_7
REMARK    3  A    between atoms: C_3  and  O_9
REMARK    4  A    between atoms: C_6  and  O_11
REMARK    5  A    between atoms: C_14  and  C_15
REMARK    6  A    between atoms: C_16  and  C_17
REMARK                            x       y       z     vdW  Elec       q    Type
REMARK                         _______ _______ _______ _____ _____    ______ ____
ROOT
ATOM      1  C   UNL     1      -4.713  47.341  27.525  0.00  0.00    +0.000 A 
ATOM      2  C   UNL     1      -5.024  46.389  26.535  0.00  0.00    +0.000 A 
ATOM      3  C   UNL     1      -5.064  48.689  27.305  0.00  0.00    +0.000 A 
ATOM      4  C   UNL     1      -5.648  46.809  25.352  0.00  0.00    +0.000 A 
ATOM      5  C   UNL     1      -5.675  49.091  26.118  0.00  0.00    +0.000 A 
ATOM      6  C   UNL     1      -5.958  48.147  25.145  0.00  0.00    +0.000 A 
ENDROOT
BRANCH   2   7
ATOM      7  O   UNL     1      -4.778  45.059  26.787  0.00  0.00    +0.000 OA
ATOM      8  C   UNL     1      -4.491  44.265  25.670  0.00  0.00    +0.000 C 
ENDBRANCH   2   7
BRANCH   3   9
ATOM      9  O   UNL     1      -4.837  49.690  28.216  0.00  0.00    +0.000 OA
ATOM     10  H   UNL     1      -5.102  49.388  29.113  0.00  0.00    +0.000 HD
ENDBRANCH   3   9
BRANCH   6  11
ATOM     11  O   UNL     1      -6.554  48.554  23.990  0.00  0.00    +0.000 OA
ATOM     12  H   UNL     1      -5.903  49.045  23.456  0.00  0.00    +0.000 HD
ENDBRANCH   6  11
BRANCH   1  14
ATOM     13  O   UNL     1      -4.572  47.253  29.875  0.00  0.00    +0.000 OA
ATOM     14  C   UNL     1      -4.034  47.003  28.802  0.00  0.00    +0.000 C 
BRANCH  14  15
ATOM     15  C   UNL     1      -2.703  46.448  28.800  0.00  0.00    +0.000 C 
ATOM     16  C   UNL     1      -1.600  45.969  28.788  0.00  0.00    +0.000 C 
BRANCH  16  17
ATOM     17  C   UNL     1      -0.290  45.406  28.780  0.00  0.00    +0.000 A 
ATOM     18  C   UNL     1       0.575  45.678  27.721  0.00  0.00    +0.000 A 
ATOM     19  C   UNL     1       0.122  44.586  29.827  0.00  0.00    +0.000 A 
ATOM     20  C   UNL     1       1.855  45.127  27.711  0.00  0.00    +0.000 A 
ATOM     21  C   UNL     1       1.402  44.035  29.816  0.00  0.00    +0.000 A 
ATOM     22  C   UNL     1       2.267  44.306  28.758  0.00  0.00    +0.000 A 
ENDBRANCH  16  17
ENDBRANCH  14  15
ENDBRANCH   1  14
TORSDOF 6
ENDMDL
MODEL 6
REMARK VINA RESULT:      -5.0     20.861     23.437
REMARK  Name = 641785_Cardamonin.pdbqt.pdb
REMARK  6 active torsions:
REMARK  status: ('A' for Active; 'I' for Inactive)
REMARK    1  A    between atoms: C_1  and  C_14
REMARK    2  A    between atoms: C_2  and  O_7
REMARK    3  A    between atoms: C_3  and  O_9
REMARK    4  A    between atoms: C_6  and  O_11
REMARK    5  A    between atoms: C_14  and  C_15
REMARK    6  A    between atoms: C_16  and  C_17
REMARK                            x       y       z     vdW  Elec       q    Type
REMARK                         _______ _______ _______ _____ _____    ______ ____
ROOT
ATOM      1  C   UNL     1      -6.565  49.199  26.506  0.00  0.00    +0.000 A 
ATOM      2  C   UNL     1      -6.442  48.387  25.362  0.00  0.00    +0.000 A 
ATOM      3  C   UNL     1      -7.637  50.112  26.580  0.00  0.00    +0.000 A 
ATOM      4  C   UNL     1      -7.371  48.526  24.320  0.00  0.00    +0.000 A 
ATOM      5  C   UNL     1      -8.545  50.244  25.530  0.00  0.00    +0.000 A 
ATOM      6  C   UNL     1      -8.401  49.453  24.402  0.00  0.00    +0.000 A 
ENDROOT
BRANCH   2   7
ATOM      7  O   UNL     1      -5.460  47.424  25.328  0.00  0.00    +0.000 OA
ATOM      8  C   UNL     1      -5.856  46.130  25.688  0.00  0.00    +0.000 C 
ENDBRANCH   2   7
BRANCH   3   9
ATOM      9  O   UNL     1      -7.867  50.926  27.660  0.00  0.00    +0.000 OA
ATOM     10  H   UNL     1      -8.826  51.129  27.723  0.00  0.00    +0.000 HD
ENDBRANCH   3   9
BRANCH   6  11
ATOM     11  O   UNL     1      -9.295  49.594  23.384  0.00  0.00    +0.000 OA
ATOM     12  H   UNL     1      -9.433  48.726  22.964  0.00  0.00    +0.000 HD
ENDBRANCH   6  11
BRANCH   1  14
ATOM     13  O   UNL     1      -5.911  48.511  28.662  0.00  0.00    +0.000 OA
ATOM     14  C   UNL     1      -5.622  49.146  27.653  0.00  0.00    +0.000 C 
BRANCH  14  15
ATOM     15  C   UNL     1      -4.392  49.898  27.627  0.00  0.00    +0.000 C 
ATOM     16  C   UNL     1      -3.372  50.534  27.589  0.00  0.00    +0.000 C 
BRANCH  16  17
ATOM     17  C   UNL     1      -2.160  51.283  27.549  0.00  0.00    +0.000 A 
ATOM     18  C   UNL     1      -1.079  50.816  26.803  0.00  0.00    +0.000 A 
ATOM     19  C   UNL     1      -2.057  52.478  28.256  0.00  0.00    +0.000 A 
ATOM     20  C   UNL     1       0.106  51.546  26.765  0.00  0.00    +0.000 A 
ATOM     21  C   UNL     1      -0.871  53.209  28.218  0.00  0.00    +0.000 A 
ATOM     22  C   UNL     1       0.209  52.742  27.472  0.00  0.00    +0.000 A 
ENDBRANCH  16  17
ENDBRANCH  14  15
ENDBRANCH   1  14
TORSDOF 6
ENDMDL
MODEL 7
REMARK VINA RESULT:      -5.0     20.646     23.323
REMARK  Name = 641785_Cardamonin.pdbqt.pdb
REMARK  6 active torsions:
REMARK  status: ('A' for Active; 'I' for Inactive)
REMARK    1  A    between atoms: C_1  and  C_14
REMARK    2  A    between atoms: C_2  and  O_7
REMARK    3  A    between atoms: C_3  and  O_9
REMARK    4  A    between atoms: C_6  and  O_11
REMARK    5  A    between atoms: C_14  and  C_15
REMARK    6  A    between atoms: C_16  and  C_17
REMARK                            x       y       z     vdW  Elec       q    Type
REMARK                         _______ _______ _______ _____ _____    ______ ____
ROOT
ATOM      1  C   UNL     1      -6.189  47.294  27.167  0.00  0.00    +0.000 A 
ATOM      2  C   UNL     1      -5.672  47.200  25.861  0.00  0.00    +0.000 A 
ATOM      3  C   UNL     1      -6.157  46.153  27.995  0.00  0.00    +0.000 A 
ATOM      4  C   UNL     1      -5.163  45.972  25.413  0.00  0.00    +0.000 A 
ATOM      5  C   UNL     1      -5.657  44.938  27.529  0.00  0.00    +0.000 A 
ATOM      6  C   UNL     1      -5.168  44.854  26.236  0.00  0.00    +0.000 A 
ENDROOT
BRANCH   2   7
ATOM      7  O   UNL     1      -5.606  48.334  25.085  0.00  0.00    +0.000 OA
ATOM      8  C   UNL     1      -6.647  48.509  24.166  0.00  0.00    +0.000 C 
ENDBRANCH   2   7
BRANCH   3   9
ATOM      9  O   UNL     1      -6.605  46.144  29.292  0.00  0.00    +0.000 OA
ATOM     10  H   UNL     1      -6.881  47.050  29.553  0.00  0.00    +0.000 HD
ENDBRANCH   3   9
BRANCH   6  11
ATOM     11  O   UNL     1      -4.684  43.660  25.794  0.00  0.00    +0.000 OA
ATOM     12  H   UNL     1      -4.141  43.261  26.497  0.00  0.00    +0.000 HD
ENDBRANCH   6  11
BRANCH   1  14
ATOM     13  O   UNL     1      -7.983  48.644  27.881  0.00  0.00    +0.000 OA
ATOM     14  C   UNL     1      -6.771  48.540  27.730  0.00  0.00    +0.000 C 
BRANCH  14  15
ATOM     15  C   UNL     1      -5.928  49.670  28.036  0.00  0.00    +0.000 C 
ATOM     16  C   UNL     1      -5.240  50.623  28.286  0.00  0.00    +0.000 C 
BRANCH  16  17
ATOM     17  C   UNL     1      -4.418  51.750  28.583  0.00  0.00    +0.000 A 
ATOM     18  C   UNL     1      -4.984  52.895  29.138  0.00  0.00    +0.000 A 
ATOM     19  C   UNL     1      -3.051  51.704  28.316  0.00  0.00    +0.000 A 
ATOM     20  C   UNL     1      -4.182  53.997  29.427  0.00  0.00    +0.000 A 
ATOM     21  C   UNL     1      -2.250  52.806  28.605  0.00  0.00    +0.000 A 
ATOM     22  C   UNL     1      -2.816  53.952  29.160  0.00  0.00    +0.000 A 
ENDBRANCH  16  17
ENDBRANCH  14  15
ENDBRANCH   1  14
TORSDOF 6
ENDMDL
MODEL 8
REMARK VINA RESULT:      -4.9     28.675     31.328
REMARK  Name = 641785_Cardamonin.pdbqt.pdb
REMARK  6 active torsions:
REMARK  status: ('A' for Active; 'I' for Inactive)
REMARK    1  A    between atoms: C_1  and  C_14
REMARK    2  A    between atoms: C_2  and  O_7
REMARK    3  A    between atoms: C_3  and  O_9
REMARK    4  A    between atoms: C_6  and  O_11
REMARK    5  A    between atoms: C_14  and  C_15
REMARK    6  A    between atoms: C_16  and  C_17
REMARK                            x       y       z     vdW  Elec       q    Type
REMARK                         _______ _______ _______ _____ _____    ______ ____
ROOT
ATOM      1  C   UNL     1       2.340  31.269  27.524  0.00  0.00    +0.000 A 
ATOM      2  C   UNL     1       1.980  30.829  28.812  0.00  0.00    +0.000 A 
ATOM      3  C   UNL     1       1.352  31.313  26.519  0.00  0.00    +0.000 A 
ATOM      4  C   UNL     1       0.658  30.424  29.053  0.00  0.00    +0.000 A 
ATOM      5  C   UNL     1       0.046  30.896  26.774  0.00  0.00    +0.000 A 
ATOM      6  C   UNL     1      -0.291  30.448  28.040  0.00  0.00    +0.000 A 
ENDROOT
BRANCH   2   7
ATOM      7  O   UNL     1       2.913  30.881  29.821  0.00  0.00    +0.000 OA
ATOM      8  C   UNL     1       2.525  30.325  31.046  0.00  0.00    +0.000 C 
ENDBRANCH   2   7
BRANCH   3   9
ATOM      9  O   UNL     1       1.588  31.754  25.242  0.00  0.00    +0.000 OA
ATOM     10  H   UNL     1       0.818  32.276  24.924  0.00  0.00    +0.000 HD
ENDBRANCH   3   9
BRANCH   6  11
ATOM     11  O   UNL     1      -1.570  30.043  28.274  0.00  0.00    +0.000 OA
ATOM     12  H   UNL     1      -1.854  30.383  29.141  0.00  0.00    +0.000 HD
ENDBRANCH   6  11
BRANCH   1  14
ATOM     13  O   UNL     1       4.342  31.096  26.295  0.00  0.00    +0.000 OA
ATOM     14  C   UNL     1       3.715  31.697  27.160  0.00  0.00    +0.000 C 
BRANCH  14  15
ATOM     15  C   UNL     1       4.359  32.776  27.868  0.00  0.00    +0.000 C 
ATOM     16  C   UNL     1       4.879  33.680  28.467  0.00  0.00    +0.000 C 
BRANCH  16  17
ATOM     17  C   UNL     1       5.502  34.751  29.173  0.00  0.00    +0.000 A 
ATOM     18  C   UNL     1       6.750  34.560  29.764  0.00  0.00    +0.000 A 
ATOM     19  C   UNL     1       4.862  35.984  29.273  0.00  0.00    +0.000 A 
ATOM     20  C   UNL     1       7.358  35.605  30.455  0.00  0.00    +0.000 A 
ATOM     21  C   UNL     1       5.471  37.029  29.964  0.00  0.00    +0.000 A 
ATOM     22  C   UNL     1       6.718  36.838  30.555  0.00  0.00    +0.000 A 
ENDBRANCH  16  17
ENDBRANCH  14  15
ENDBRANCH   1  14
TORSDOF 6
ENDMDL
MODEL 9
REMARK VINA RESULT:      -4.9     15.232     17.550
REMARK  Name = 641785_Cardamonin.pdbqt.pdb
REMARK  6 active torsions:
REMARK  status: ('A' for Active; 'I' for Inactive)
REMARK    1  A    between atoms: C_1  and  C_14
REMARK    2  A    between atoms: C_2  and  O_7
REMARK    3  A    between atoms: C_3  and  O_9
REMARK    4  A    between atoms: C_6  and  O_11
REMARK    5  A    between atoms: C_14  and  C_15
REMARK    6  A    between atoms: C_16  and  C_17
REMARK                            x       y       z     vdW  Elec       q    Type
REMARK                         _______ _______ _______ _____ _____    ______ ____
ROOT
ATOM      1  C   UNL     1     -16.114  36.361   5.871  0.00  0.00    +0.000 A 
ATOM      2  C   UNL     1     -16.022  35.287   4.965  0.00  0.00    +0.000 A 
ATOM      3  C   UNL     1     -17.240  36.444   6.715  0.00  0.00    +0.000 A 
ATOM      4  C   UNL     1     -17.062  34.347   4.908  0.00  0.00    +0.000 A 
ATOM      5  C   UNL     1     -18.270  35.507   6.638  0.00  0.00    +0.000 A 
ATOM      6  C   UNL     1     -18.176  34.466   5.728  0.00  0.00    +0.000 A 
ENDROOT
BRANCH   2   7
ATOM      7  O   UNL     1     -14.879  35.144   4.213  0.00  0.00    +0.000 OA
ATOM      8  C   UNL     1     -14.064  34.053   4.537  0.00  0.00    +0.000 C 
ENDBRANCH   2   7
BRANCH   3   9
ATOM      9  O   UNL     1     -17.414  37.429   7.654  0.00  0.00    +0.000 OA
ATOM     10  H   UNL     1     -16.664  37.417   8.289  0.00  0.00    +0.000 HD
ENDBRANCH   3   9
BRANCH   6  11
ATOM     11  O   UNL     1     -19.190  33.559   5.663  0.00  0.00    +0.000 OA
ATOM     12  H   UNL     1     -19.036  32.867   6.331  0.00  0.00    +0.000 HD
ENDBRANCH   6  11
BRANCH   1  14
ATOM     13  O   UNL     1     -13.978  37.158   6.462  0.00  0.00    +0.000 OA
ATOM     14  C   UNL     1     -15.080  37.420   5.993  0.00  0.00    +0.000 C 
BRANCH  14  15
ATOM     15  C   UNL     1     -15.381  38.784   5.634  0.00  0.00    +0.000 C 
ATOM     16  C   UNL     1     -15.644  39.922   5.349  0.00  0.00    +0.000 C 
BRANCH  16  17
ATOM     17  C   UNL     1     -15.953  41.271   5.004  0.00  0.00    +0.000 A 
ATOM     18  C   UNL     1     -17.075  41.888   5.555  0.00  0.00    +0.000 A 
ATOM     19  C   UNL     1     -15.136  41.967   4.117  0.00  0.00    +0.000 A 
ATOM     20  C   UNL     1     -17.378  43.205   5.217  0.00  0.00    +0.000 A 
ATOM     21  C   UNL     1     -15.440  43.285   3.781  0.00  0.00    +0.000 A 
ATOM     22  C   UNL     1     -16.561  43.902   4.331  0.00  0.00    +0.000 A 
ENDBRANCH  16  17
ENDBRANCH  14  15
ENDBRANCH   1  14
TORSDOF 6
ENDMDL
