MODEL 1
REMARK VINA RESULT:      -6.0      0.000      0.000
REMARK  Name = 6440856_Goniothalamin.pdbqt.pdb
REMARK  2 active torsions:
REMARK  status: ('A' for Active; 'I' for Inactive)
REMARK    1  A    between atoms: C_1  and  C_5
REMARK    2  A    between atoms: C_2  and  C_10
REMARK                            x       y       z     vdW  Elec       q    Type
REMARK                         _______ _______ _______ _____ _____    ______ ____
ROOT
ATOM      1  C   UNL     1      -4.224  46.783  26.435  0.00  0.00    +0.000 C 
ATOM      2  C   UNL     1      -5.253  47.053  25.878  0.00  0.00    +0.000 C 
ENDROOT
BRANCH   1   5
ATOM      3  O   UNL     1      -3.068  45.778  28.352  0.00  0.00    +0.000 OA
ATOM      4  O   UNL     1      -1.776  44.891  30.062  0.00  0.00    +0.000 OA
ATOM      5  C   UNL     1      -3.011  46.467  27.090  0.00  0.00    +0.000 A 
ATOM      6  C   UNL     1      -1.704  46.767  26.618  0.00  0.00    +0.000 A 
ATOM      7  C   UNL     1      -0.365  46.467  27.252  0.00  0.00    +0.000 A 
ATOM      8  C   UNL     1      -0.685  45.908  28.261  0.00  0.00    +0.000 A 
ATOM      9  C   UNL     1      -1.860  45.472  28.990  0.00  0.00    +0.000 A 
ENDBRANCH   1   5
BRANCH   2  10
ATOM     10  C   UNL     1      -6.474  47.375  25.217  0.00  0.00    +0.000 A 
ATOM     11  C   UNL     1      -6.532  48.468  24.355  0.00  0.00    +0.000 A 
ATOM     12  C   UNL     1      -7.608  46.595  25.433  0.00  0.00    +0.000 A 
ATOM     13  C   UNL     1      -7.727  48.782  23.710  0.00  0.00    +0.000 A 
ATOM     14  C   UNL     1      -8.802  46.910  24.787  0.00  0.00    +0.000 A 
ATOM     15  C   UNL     1      -8.860  48.003  23.926  0.00  0.00    +0.000 A 
ENDBRANCH   2  10
TORSDOF 2
ENDMDL
MODEL 2
REMARK VINA RESULT:      -5.7      2.523      3.979
REMARK  Name = 6440856_Goniothalamin.pdbqt.pdb
REMARK  2 active torsions:
REMARK  status: ('A' for Active; 'I' for Inactive)
REMARK    1  A    between atoms: C_1  and  C_5
REMARK    2  A    between atoms: C_2  and  C_10
REMARK                            x       y       z     vdW  Elec       q    Type
REMARK                         _______ _______ _______ _____ _____    ______ ____
ROOT
ATOM      1  C   UNL     1      -0.698  46.404  27.550  0.00  0.00    +0.000 C 
ATOM      2  C   UNL     1      -1.794  46.522  27.076  0.00  0.00    +0.000 C 
ENDROOT
BRANCH   1   5
ATOM      3  O   UNL     1       1.206  44.960  28.109  0.00  0.00    +0.000 OA
ATOM      4  O   UNL     1       3.108  43.785  28.724  0.00  0.00    +0.000 OA
ATOM      5  C   UNL     1       0.595  46.264  28.106  0.00  0.00    +0.000 A 
ATOM      6  C   UNL     1       1.377  47.304  28.676  0.00  0.00    +0.000 A 
ATOM      7  C   UNL     1       2.758  47.240  29.287  0.00  0.00    +0.000 A 
ATOM      8  C   UNL     1       3.030  46.080  29.168  0.00  0.00    +0.000 A 
ATOM      9  C   UNL     1       2.486  44.835  28.662  0.00  0.00    +0.000 A 
ENDBRANCH   1   5
BRANCH   2  10
ATOM     10  C   UNL     1      -3.097  46.663  26.512  0.00  0.00    +0.000 A 
ATOM     11  C   UNL     1      -3.811  47.845  26.698  0.00  0.00    +0.000 A 
ATOM     12  C   UNL     1      -3.652  45.619  25.775  0.00  0.00    +0.000 A 
ATOM     13  C   UNL     1      -5.084  47.982  26.147  0.00  0.00    +0.000 A 
ATOM     14  C   UNL     1      -4.924  45.757  25.224  0.00  0.00    +0.000 A 
ATOM     15  C   UNL     1      -5.639  46.939  25.410  0.00  0.00    +0.000 A 
ENDBRANCH   2  10
TORSDOF 2
ENDMDL
MODEL 3
REMARK VINA RESULT:      -5.6      2.486      7.678
REMARK  Name = 6440856_Goniothalamin.pdbqt.pdb
REMARK  2 active torsions:
REMARK  status: ('A' for Active; 'I' for Inactive)
REMARK    1  A    between atoms: C_1  and  C_5
REMARK    2  A    between atoms: C_2  and  C_10
REMARK                            x       y       z     vdW  Elec       q    Type
REMARK                         _______ _______ _______ _____ _____    ______ ____
ROOT
ATOM      1  C   UNL     1      -1.614  46.501  27.046  0.00  0.00    +0.000 C 
ATOM      2  C   UNL     1      -0.501  46.344  27.468  0.00  0.00    +0.000 C 
ENDROOT
BRANCH   1   5
ATOM      3  O   UNL     1      -3.564  47.964  26.762  0.00  0.00    +0.000 OA
ATOM      4  O   UNL     1      -5.508  49.168  26.382  0.00  0.00    +0.000 OA
ATOM      5  C   UNL     1      -2.924  46.691  26.550  0.00  0.00    +0.000 A 
ATOM      6  C   UNL     1      -3.698  45.731  25.842  0.00  0.00    +0.000 A 
ATOM      7  C   UNL     1      -5.096  45.853  25.281  0.00  0.00    +0.000 A 
ATOM      8  C   UNL     1      -5.391  46.973  25.586  0.00  0.00    +0.000 A 
ATOM      9  C   UNL     1      -4.861  48.139  26.266  0.00  0.00    +0.000 A 
ENDBRANCH   1   5
BRANCH   2  10
ATOM     10  C   UNL     1       0.821  46.156  27.968  0.00  0.00    +0.000 A 
ATOM     11  C   UNL     1       1.403  47.129  28.778  0.00  0.00    +0.000 A 
ATOM     12  C   UNL     1       1.529  45.000  27.646  0.00  0.00    +0.000 A 
ATOM     13  C   UNL     1       2.695  46.946  29.266  0.00  0.00    +0.000 A 
ATOM     14  C   UNL     1       2.821  44.817  28.135  0.00  0.00    +0.000 A 
ATOM     15  C   UNL     1       3.403  45.790  28.945  0.00  0.00    +0.000 A 
ENDBRANCH   2  10
TORSDOF 2
ENDMDL
MODEL 4
REMARK VINA RESULT:      -5.6      2.568      7.022
REMARK  Name = 6440856_Goniothalamin.pdbqt.pdb
REMARK  2 active torsions:
REMARK  status: ('A' for Active; 'I' for Inactive)
REMARK    1  A    between atoms: C_1  and  C_5
REMARK    2  A    between atoms: C_2  and  C_10
REMARK                            x       y       z     vdW  Elec       q    Type
REMARK                         _______ _______ _______ _____ _____    ______ ____
ROOT
ATOM      1  C   UNL     1      -5.456  47.230  25.837  0.00  0.00    +0.000 C 
ATOM      2  C   UNL     1      -4.453  46.910  26.412  0.00  0.00    +0.000 C 
ENDROOT
BRANCH   1   5
ATOM      3  O   UNL     1      -7.822  46.811  25.336  0.00  0.00    +0.000 OA
ATOM      4  O   UNL     1     -10.049  46.604  24.727  0.00  0.00    +0.000 OA
ATOM      5  C   UNL     1      -6.636  47.609  25.156  0.00  0.00    +0.000 A 
ATOM      6  C   UNL     1      -6.780  48.725  24.288  0.00  0.00    +0.000 A 
ATOM      7  C   UNL     1      -7.997  49.196  23.527  0.00  0.00    +0.000 A 
ATOM      8  C   UNL     1      -8.819  48.384  23.841  0.00  0.00    +0.000 A 
ATOM      9  C   UNL     1      -8.983  47.196  24.656  0.00  0.00    +0.000 A 
ENDBRANCH   1   5
BRANCH   2  10
ATOM     10  C   UNL     1      -3.260  46.529  27.096  0.00  0.00    +0.000 A 
ATOM     11  C   UNL     1      -3.340  45.821  28.293  0.00  0.00    +0.000 A 
ATOM     12  C   UNL     1      -2.017  46.865  26.565  0.00  0.00    +0.000 A 
ATOM     13  C   UNL     1      -2.175  45.450  28.960  0.00  0.00    +0.000 A 
ATOM     14  C   UNL     1      -0.852  46.492  27.232  0.00  0.00    +0.000 A 
ATOM     15  C   UNL     1      -0.932  45.785  28.429  0.00  0.00    +0.000 A 
ENDBRANCH   2  10
TORSDOF 2
ENDMDL
MODEL 5
REMARK VINA RESULT:      -5.5      2.272      2.553
REMARK  Name = 6440856_Goniothalamin.pdbqt.pdb
REMARK  2 active torsions:
REMARK  status: ('A' for Active; 'I' for Inactive)
REMARK    1  A    between atoms: C_1  and  C_5
REMARK    2  A    between atoms: C_2  and  C_10
REMARK                            x       y       z     vdW  Elec       q    Type
REMARK                         _______ _______ _______ _____ _____    ______ ____
ROOT
ATOM      1  C   UNL     1      -4.669  48.798  26.210  0.00  0.00    +0.000 C 
ATOM      2  C   UNL     1      -5.741  48.544  25.730  0.00  0.00    +0.000 C 
ENDROOT
BRANCH   1   5
ATOM      3  O   UNL     1      -2.552  48.003  27.163  0.00  0.00    +0.000 OA
ATOM      4  O   UNL     1      -0.492  47.477  28.089  0.00  0.00    +0.000 OA
ATOM      5  C   UNL     1      -3.406  49.095  26.771  0.00  0.00    +0.000 A 
ATOM      6  C   UNL     1      -2.875  50.394  26.995  0.00  0.00    +0.000 A 
ATOM      7  C   UNL     1      -1.543  50.796  27.585  0.00  0.00    +0.000 A 
ATOM      8  C   UNL     1      -1.043  49.733  27.820  0.00  0.00    +0.000 A 
ATOM      9  C   UNL     1      -1.304  48.311  27.718  0.00  0.00    +0.000 A 
ENDBRANCH   1   5
BRANCH   2  10
ATOM     10  C   UNL     1      -7.013  48.242  25.161  0.00  0.00    +0.000 A 
ATOM     11  C   UNL     1      -7.674  49.196  24.390  0.00  0.00    +0.000 A 
ATOM     12  C   UNL     1      -7.593  46.994  25.376  0.00  0.00    +0.000 A 
ATOM     13  C   UNL     1      -8.917  48.901  23.835  0.00  0.00    +0.000 A 
ATOM     14  C   UNL     1      -8.836  46.700  24.820  0.00  0.00    +0.000 A 
ATOM     15  C   UNL     1      -9.497  47.654  24.049  0.00  0.00    +0.000 A 
ENDBRANCH   2  10
TORSDOF 2
ENDMDL
MODEL 6
REMARK VINA RESULT:      -5.5      4.232      7.930
REMARK  Name = 6440856_Goniothalamin.pdbqt.pdb
REMARK  2 active torsions:
REMARK  status: ('A' for Active; 'I' for Inactive)
REMARK    1  A    between atoms: C_1  and  C_5
REMARK    2  A    between atoms: C_2  and  C_10
REMARK                            x       y       z     vdW  Elec       q    Type
REMARK                         _______ _______ _______ _____ _____    ______ ____
ROOT
ATOM      1  C   UNL     1      -8.961  47.351  25.994  0.00  0.00    +0.000 C 
ATOM      2  C   UNL     1      -7.900  46.812  26.156  0.00  0.00    +0.000 C 
ENDROOT
BRANCH   1   5
ATOM      3  O   UNL     1     -11.259  47.747  26.759  0.00  0.00    +0.000 OA
ATOM      4  O   UNL     1     -13.455  48.261  27.296  0.00  0.00    +0.000 OA
ATOM      5  C   UNL     1     -10.208  47.989  25.804  0.00  0.00    +0.000 A 
ATOM      6  C   UNL     1     -10.544  48.870  24.739  0.00  0.00    +0.000 A 
ATOM      7  C   UNL     1     -11.844  49.589  24.465  0.00  0.00    +0.000 A 
ATOM      8  C   UNL     1     -12.528  49.226  25.379  0.00  0.00    +0.000 A 
ATOM      9  C   UNL     1     -12.489  48.385  26.559  0.00  0.00    +0.000 A 
ENDBRANCH   1   5
BRANCH   2  10
ATOM     10  C   UNL     1      -6.640  46.172  26.349  0.00  0.00    +0.000 A 
ATOM     11  C   UNL     1      -5.669  46.235  25.352  0.00  0.00    +0.000 A 
ATOM     12  C   UNL     1      -6.382  45.486  27.534  0.00  0.00    +0.000 A 
ATOM     13  C   UNL     1      -4.438  45.609  25.540  0.00  0.00    +0.000 A 
ATOM     14  C   UNL     1      -5.152  44.861  27.722  0.00  0.00    +0.000 A 
ATOM     15  C   UNL     1      -4.180  44.923  26.725  0.00  0.00    +0.000 A 
ENDBRANCH   2  10
TORSDOF 2
ENDMDL
MODEL 7
REMARK VINA RESULT:      -5.4     20.982     22.525
REMARK  Name = 6440856_Goniothalamin.pdbqt.pdb
REMARK  2 active torsions:
REMARK  status: ('A' for Active; 'I' for Inactive)
REMARK    1  A    between atoms: C_1  and  C_5
REMARK    2  A    between atoms: C_2  and  C_10
REMARK                            x       y       z     vdW  Elec       q    Type
REMARK                         _______ _______ _______ _____ _____    ______ ____
ROOT
ATOM      1  C   UNL     1     -24.580  40.778  20.236  0.00  0.00    +0.000 C 
ATOM      2  C   UNL     1     -24.454  39.605  20.013  0.00  0.00    +0.000 C 
ENDROOT
BRANCH   1   5
ATOM      3  O   UNL     1     -23.944  43.093  19.728  0.00  0.00    +0.000 OA
ATOM      4  O   UNL     1     -23.492  45.345  19.415  0.00  0.00    +0.000 OA
ATOM      5  C   UNL     1     -24.724  42.160  20.499  0.00  0.00    +0.000 A 
ATOM      6  C   UNL     1     -25.583  42.741  21.471  0.00  0.00    +0.000 A 
ATOM      7  C   UNL     1     -25.796  44.198  21.813  0.00  0.00    +0.000 A 
ATOM      8  C   UNL     1     -25.050  44.745  21.051  0.00  0.00    +0.000 A 
ATOM      9  C   UNL     1     -24.096  44.458  19.998  0.00  0.00    +0.000 A 
ENDBRANCH   1   5
BRANCH   2  10
ATOM     10  C   UNL     1     -24.305  38.211  19.748  0.00  0.00    +0.000 A 
ATOM     11  C   UNL     1     -23.106  37.727  19.230  0.00  0.00    +0.000 A 
ATOM     12  C   UNL     1     -25.358  37.337  20.007  0.00  0.00    +0.000 A 
ATOM     13  C   UNL     1     -22.961  36.366  18.971  0.00  0.00    +0.000 A 
ATOM     14  C   UNL     1     -25.212  35.976  19.748  0.00  0.00    +0.000 A 
ATOM     15  C   UNL     1     -24.013  35.491  19.230  0.00  0.00    +0.000 A 
ENDBRANCH   2  10
TORSDOF 2
ENDMDL
MODEL 8
REMARK VINA RESULT:      -5.4      3.791      6.431
REMARK  Name = 6440856_Goniothalamin.pdbqt.pdb
REMARK  2 active torsions:
REMARK  status: ('A' for Active; 'I' for Inactive)
REMARK    1  A    between atoms: C_1  and  C_5
REMARK    2  A    between atoms: C_2  and  C_10
REMARK                            x       y       z     vdW  Elec       q    Type
REMARK                         _______ _______ _______ _____ _____    ______ ____
ROOT
ATOM      1  C   UNL     1      -4.173  49.018  26.968  0.00  0.00    +0.000 C 
ATOM      2  C   UNL     1      -3.324  49.848  27.145  0.00  0.00    +0.000 C 
ENDROOT
BRANCH   1   5
ATOM      3  O   UNL     1      -5.406  47.065  27.796  0.00  0.00    +0.000 OA
ATOM      4  O   UNL     1      -6.689  45.223  28.376  0.00  0.00    +0.000 OA
ATOM      5  C   UNL     1      -5.170  48.037  26.760  0.00  0.00    +0.000 A 
ATOM      6  C   UNL     1      -5.987  47.907  25.604  0.00  0.00    +0.000 A 
ATOM      7  C   UNL     1      -7.068  46.894  25.305  0.00  0.00    +0.000 A 
ATOM      8  C   UNL     1      -7.063  46.222  26.296  0.00  0.00    +0.000 A 
ATOM      9  C   UNL     1      -6.396  46.099  27.578  0.00  0.00    +0.000 A 
ENDBRANCH   1   5
BRANCH   2  10
ATOM     10  C   UNL     1      -2.315  50.835  27.355  0.00  0.00    +0.000 A 
ATOM     11  C   UNL     1      -1.089  50.726  26.703  0.00  0.00    +0.000 A 
ATOM     12  C   UNL     1      -2.558  51.906  28.212  0.00  0.00    +0.000 A 
ATOM     13  C   UNL     1      -0.104  51.690  26.910  0.00  0.00    +0.000 A 
ATOM     14  C   UNL     1      -1.573  52.869  28.418  0.00  0.00    +0.000 A 
ATOM     15  C   UNL     1      -0.347  52.761  27.766  0.00  0.00    +0.000 A 
ENDBRANCH   2  10
TORSDOF 2
ENDMDL
MODEL 9
REMARK VINA RESULT:      -5.3     24.251     25.600
REMARK  Name = 6440856_Goniothalamin.pdbqt.pdb
REMARK  2 active torsions:
REMARK  status: ('A' for Active; 'I' for Inactive)
REMARK    1  A    between atoms: C_1  and  C_5
REMARK    2  A    between atoms: C_2  and  C_10
REMARK                            x       y       z     vdW  Elec       q    Type
REMARK                         _______ _______ _______ _____ _____    ______ ____
ROOT
ATOM      1  C   UNL     1     -16.689  38.744   6.123  0.00  0.00    +0.000 C 
ATOM      2  C   UNL     1     -17.031  37.610   6.322  0.00  0.00    +0.000 C 
ENDROOT
BRANCH   1   5
ATOM      3  O   UNL     1     -14.955  40.321   5.397  0.00  0.00    +0.000 OA
ATOM      4  O   UNL     1     -13.469  41.981   4.754  0.00  0.00    +0.000 OA
ATOM      5  C   UNL     1     -16.288  40.079   5.884  0.00  0.00    +0.000 A 
ATOM      6  C   UNL     1     -17.085  41.240   6.078  0.00  0.00    +0.000 A 
ATOM      7  C   UNL     1     -16.736  42.691   5.848  0.00  0.00    +0.000 A 
ATOM      8  C   UNL     1     -15.606  42.618   5.458  0.00  0.00    +0.000 A 
ATOM      9  C   UNL     1     -14.570  41.647   5.165  0.00  0.00    +0.000 A 
ENDBRANCH   1   5
BRANCH   2  10
ATOM     10  C   UNL     1     -17.437  36.264   6.559  0.00  0.00    +0.000 A 
ATOM     11  C   UNL     1     -17.079  35.261   5.660  0.00  0.00    +0.000 A 
ATOM     12  C   UNL     1     -18.191  35.953   7.689  0.00  0.00    +0.000 A 
ATOM     13  C   UNL     1     -17.476  33.946   5.892  0.00  0.00    +0.000 A 
ATOM     14  C   UNL     1     -18.587  34.638   7.920  0.00  0.00    +0.000 A 
ATOM     15  C   UNL     1     -18.229  33.635   7.021  0.00  0.00    +0.000 A 
ENDBRANCH   2  10
TORSDOF 2
ENDMDL
