MODEL 1
REMARK VINA RESULT:      -3.4      0.000      0.000
REMARK  Name = 649_Dihydrouracil.pdb
REMARK  0 active torsions:
REMARK  status: ('A' for Active; 'I' for Inactive)
REMARK                            x       y       z     vdW  Elec       q    Type
REMARK                         _______ _______ _______ _____ _____    ______ ____
ROOT
ATOM      1  O   UNL     1     -11.255  46.815  26.252  0.00  0.00    +0.000 OA
ATOM      2  O   UNL     1     -10.832  50.780  23.930  0.00  0.00    +0.000 OA
ATOM      3  N   UNL     1      -9.126  49.257  23.753  0.00  0.00    +0.000 N 
ATOM      4  N   UNL     1     -11.023  48.799  25.079  0.00  0.00    +0.000 N 
ATOM      5  C   UNL     1      -8.600  48.068  24.076  0.00  0.00    +0.000 A 
ATOM      6  C   UNL     1      -9.334  47.136  24.984  0.00  0.00    +0.000 A 
ATOM      7  C   UNL     1     -10.612  47.536  25.505  0.00  0.00    +0.000 A 
ATOM      8  C   UNL     1     -10.358  49.691  24.230  0.00  0.00    +0.000 A 
ATOM      9  H   UNL     1      -8.621  49.881  23.137  0.00  0.00    +0.000 HD
ATOM     10  H   UNL     1     -11.916  49.110  25.427  0.00  0.00    +0.000 HD
ENDROOT
TORSDOF 0
ENDMDL
MODEL 2
REMARK VINA RESULT:      -3.3     14.700     15.488
REMARK  Name = 649_Dihydrouracil.pdb
REMARK  0 active torsions:
REMARK  status: ('A' for Active; 'I' for Inactive)
REMARK                            x       y       z     vdW  Elec       q    Type
REMARK                         _______ _______ _______ _____ _____    ______ ____
ROOT
ATOM      1  O   UNL     1     -16.195  55.047  10.996  0.00  0.00    +0.000 OA
ATOM      2  O   UNL     1     -14.802  50.769   9.972  0.00  0.00    +0.000 OA
ATOM      3  N   UNL     1     -16.016  51.060  11.895  0.00  0.00    +0.000 N 
ATOM      4  N   UNL     1     -15.506  52.892  10.500  0.00  0.00    +0.000 N 
ATOM      5  C   UNL     1     -16.671  51.870  12.738  0.00  0.00    +0.000 A 
ATOM      6  C   UNL     1     -16.769  53.335  12.458  0.00  0.00    +0.000 A 
ATOM      7  C   UNL     1     -16.148  53.859  11.274  0.00  0.00    +0.000 A 
ATOM      8  C   UNL     1     -15.400  51.517  10.737  0.00  0.00    +0.000 A 
ATOM      9  H   UNL     1     -15.957  50.069  12.094  0.00  0.00    +0.000 HD
ATOM     10  H   UNL     1     -15.059  53.228   9.661  0.00  0.00    +0.000 HD
ENDROOT
TORSDOF 0
ENDMDL
MODEL 3
REMARK VINA RESULT:      -3.3      2.135      2.716
REMARK  Name = 649_Dihydrouracil.pdb
REMARK  0 active torsions:
REMARK  status: ('A' for Active; 'I' for Inactive)
REMARK                            x       y       z     vdW  Elec       q    Type
REMARK                         _______ _______ _______ _____ _____    ______ ____
ROOT
ATOM      1  O   UNL     1      -6.195  48.670  25.132  0.00  0.00    +0.000 OA
ATOM      2  O   UNL     1     -10.246  50.247  23.583  0.00  0.00    +0.000 OA
ATOM      3  N   UNL     1     -10.133  48.046  24.214  0.00  0.00    +0.000 N 
ATOM      4  N   UNL     1      -8.238  49.442  24.357  0.00  0.00    +0.000 N 
ATOM      5  C   UNL     1      -9.423  47.015  24.691  0.00  0.00    +0.000 A 
ATOM      6  C   UNL     1      -7.981  47.186  25.043  0.00  0.00    +0.000 A 
ATOM      7  C   UNL     1      -7.370  48.473  24.862  0.00  0.00    +0.000 A 
ATOM      8  C   UNL     1      -9.589  49.309  24.020  0.00  0.00    +0.000 A 
ATOM      9  H   UNL     1     -11.109  47.919  23.979  0.00  0.00    +0.000 HD
ATOM     10  H   UNL     1      -7.839  50.357  24.218  0.00  0.00    +0.000 HD
ENDROOT
TORSDOF 0
ENDMDL
MODEL 4
REMARK VINA RESULT:      -3.2     25.487     26.261
REMARK  Name = 649_Dihydrouracil.pdb
REMARK  0 active torsions:
REMARK  status: ('A' for Active; 'I' for Inactive)
REMARK                            x       y       z     vdW  Elec       q    Type
REMARK                         _______ _______ _______ _____ _____    ______ ____
ROOT
ATOM      1  O   UNL     1       0.764  28.737   9.667  0.00  0.00    +0.000 OA
ATOM      2  O   UNL     1      -0.246  29.204  14.145  0.00  0.00    +0.000 OA
ATOM      3  N   UNL     1       1.775  28.266  13.603  0.00  0.00    +0.000 N 
ATOM      4  N   UNL     1       0.277  28.962  11.920  0.00  0.00    +0.000 N 
ATOM      5  C   UNL     1       2.649  27.860  12.672  0.00  0.00    +0.000 A 
ATOM      6  C   UNL     1       2.332  28.009  11.220  0.00  0.00    +0.000 A 
ATOM      7  C   UNL     1       1.076  28.592  10.839  0.00  0.00    +0.000 A 
ATOM      8  C   UNL     1       0.548  28.836  13.287  0.00  0.00    +0.000 A 
ATOM      9  H   UNL     1       2.000  28.161  14.584  0.00  0.00    +0.000 HD
ATOM     10  H   UNL     1      -0.613  29.375  11.686  0.00  0.00    +0.000 HD
ENDROOT
TORSDOF 0
ENDMDL
MODEL 5
REMARK VINA RESULT:      -3.1     15.404     16.287
REMARK  Name = 649_Dihydrouracil.pdb
REMARK  0 active torsions:
REMARK  status: ('A' for Active; 'I' for Inactive)
REMARK                            x       y       z     vdW  Elec       q    Type
REMARK                         _______ _______ _______ _____ _____    ______ ____
ROOT
ATOM      1  O   UNL     1     -16.113  54.577  12.223  0.00  0.00    +0.000 OA
ATOM      2  O   UNL     1     -15.398  53.318   7.842  0.00  0.00    +0.000 OA
ATOM      3  N   UNL     1     -15.652  51.653   9.398  0.00  0.00    +0.000 N 
ATOM      4  N   UNL     1     -15.755  53.923  10.030  0.00  0.00    +0.000 N 
ATOM      5  C   UNL     1     -15.860  51.280  10.668  0.00  0.00    +0.000 A 
ATOM      6  C   UNL     1     -16.035  52.305  11.740  0.00  0.00    +0.000 A 
ATOM      7  C   UNL     1     -15.977  53.696  11.388  0.00  0.00    +0.000 A 
ATOM      8  C   UNL     1     -15.588  52.985   9.006  0.00  0.00    +0.000 A 
ATOM      9  H   UNL     1     -15.535  50.950   8.679  0.00  0.00    +0.000 HD
ATOM     10  H   UNL     1     -15.709  54.890   9.749  0.00  0.00    +0.000 HD
ENDROOT
TORSDOF 0
ENDMDL
MODEL 6
REMARK VINA RESULT:      -3.0      5.014      5.868
REMARK  Name = 649_Dihydrouracil.pdb
REMARK  0 active torsions:
REMARK  status: ('A' for Active; 'I' for Inactive)
REMARK                            x       y       z     vdW  Elec       q    Type
REMARK                         _______ _______ _______ _____ _____    ______ ____
ROOT
ATOM      1  O   UNL     1      -6.789  46.492  29.689  0.00  0.00    +0.000 OA
ATOM      2  O   UNL     1      -4.775  44.345  26.135  0.00  0.00    +0.000 OA
ATOM      3  N   UNL     1      -6.375  45.917  25.659  0.00  0.00    +0.000 N 
ATOM      4  N   UNL     1      -5.791  45.426  27.891  0.00  0.00    +0.000 N 
ATOM      5  C   UNL     1      -7.268  46.823  26.081  0.00  0.00    +0.000 A 
ATOM      6  C   UNL     1      -7.460  47.074  27.541  0.00  0.00    +0.000 A 
ATOM      7  C   UNL     1      -6.673  46.329  28.484  0.00  0.00    +0.000 A 
ATOM      8  C   UNL     1      -5.590  45.171  26.530  0.00  0.00    +0.000 A 
ATOM      9  H   UNL     1      -6.252  45.756  24.667  0.00  0.00    +0.000 HD
ATOM     10  H   UNL     1      -5.223  44.887  28.526  0.00  0.00    +0.000 HD
ENDROOT
TORSDOF 0
ENDMDL
MODEL 7
REMARK VINA RESULT:      -3.0     14.577     15.304
REMARK  Name = 649_Dihydrouracil.pdb
REMARK  0 active torsions:
REMARK  status: ('A' for Active; 'I' for Inactive)
REMARK                            x       y       z     vdW  Elec       q    Type
REMARK                         _______ _______ _______ _____ _____    ______ ____
ROOT
ATOM      1  O   UNL     1      -4.950  40.582  35.141  0.00  0.00    +0.000 OA
ATOM      2  O   UNL     1      -0.564  40.006  33.827  0.00  0.00    +0.000 OA
ATOM      3  N   UNL     1      -1.932  38.166  33.802  0.00  0.00    +0.000 N 
ATOM      4  N   UNL     1      -2.752  40.271  34.477  0.00  0.00    +0.000 N 
ATOM      5  C   UNL     1      -3.136  37.618  34.011  0.00  0.00    +0.000 A 
ATOM      6  C   UNL     1      -4.274  38.453  34.498  0.00  0.00    +0.000 A 
ATOM      7  C   UNL     1      -4.056  39.852  34.741  0.00  0.00    +0.000 A 
ATOM      8  C   UNL     1      -1.669  39.513  34.020  0.00  0.00    +0.000 A 
ATOM      9  H   UNL     1      -1.167  37.591  33.470  0.00  0.00    +0.000 HD
ATOM     10  H   UNL     1      -2.566  41.249  34.638  0.00  0.00    +0.000 HD
ENDROOT
TORSDOF 0
ENDMDL
MODEL 8
REMARK VINA RESULT:      -2.9     24.425     24.818
REMARK  Name = 649_Dihydrouracil.pdb
REMARK  0 active torsions:
REMARK  status: ('A' for Active; 'I' for Inactive)
REMARK                            x       y       z     vdW  Elec       q    Type
REMARK                         _______ _______ _______ _____ _____    ______ ____
ROOT
ATOM      1  O   UNL     1      10.323  47.067   9.910  0.00  0.00    +0.000 OA
ATOM      2  O   UNL     1       7.178  46.143   6.662  0.00  0.00    +0.000 OA
ATOM      3  N   UNL     1       7.090  48.199   7.673  0.00  0.00    +0.000 N 
ATOM      4  N   UNL     1       8.735  46.623   8.282  0.00  0.00    +0.000 N 
ATOM      5  C   UNL     1       7.580  49.071   8.564  0.00  0.00    +0.000 A 
ATOM      6  C   UNL     1       8.760  48.710   9.407  0.00  0.00    +0.000 A 
ATOM      7  C   UNL     1       9.358  47.415   9.247  0.00  0.00    +0.000 A 
ATOM      8  C   UNL     1       7.633  46.934   7.480  0.00  0.00    +0.000 A 
ATOM      9  H   UNL     1       6.291  48.453   7.107  0.00  0.00    +0.000 HD
ATOM     10  H   UNL     1       9.132  45.707   8.145  0.00  0.00    +0.000 HD
ENDROOT
TORSDOF 0
ENDMDL
MODEL 9
REMARK VINA RESULT:      -2.9     16.494     17.307
REMARK  Name = 649_Dihydrouracil.pdb
REMARK  0 active torsions:
REMARK  status: ('A' for Active; 'I' for Inactive)
REMARK                            x       y       z     vdW  Elec       q    Type
REMARK                         _______ _______ _______ _____ _____    ______ ____
ROOT
ATOM      1  O   UNL     1     -18.517  51.752  10.319  0.00  0.00    +0.000 OA
ATOM      2  O   UNL     1     -15.935  53.626   6.985  0.00  0.00    +0.000 OA
ATOM      3  N   UNL     1     -14.849  52.535   8.684  0.00  0.00    +0.000 N 
ATOM      4  N   UNL     1     -17.203  52.685   8.655  0.00  0.00    +0.000 N 
ATOM      5  C   UNL     1     -14.897  51.843   9.831  0.00  0.00    +0.000 A 
ATOM      6  C   UNL     1     -16.209  51.528  10.472  0.00  0.00    +0.000 A 
ATOM      7  C   UNL     1     -17.417  51.980   9.840  0.00  0.00    +0.000 A 
ATOM      8  C   UNL     1     -15.988  52.993   8.033  0.00  0.00    +0.000 A 
ATOM      9  H   UNL     1     -13.955  52.742   8.258  0.00  0.00    +0.000 HD
ATOM     10  H   UNL     1     -18.031  53.016   8.187  0.00  0.00    +0.000 HD
ENDROOT
TORSDOF 0
ENDMDL
