MODEL 1
REMARK VINA RESULT:      -7.8      0.000      0.000
REMARK  Name = 6509753_ManzamineA.pdbqt.pdb
REMARK  2 active torsions:
REMARK  status: ('A' for Active; 'I' for Inactive)
REMARK    1  A    between atoms: C_7  and  O_42
REMARK    2  A    between atoms: C_11  and  C_30
REMARK                            x       y       z     vdW  Elec       q    Type
REMARK                         _______ _______ _______ _____ _____    ______ ____
ROOT
ATOM      1  N   UNL     1     -13.219  53.722  26.554  0.00  0.00    +0.000 N 
ATOM      2  N   UNL     1     -15.990  49.586  26.806  0.00  0.00    +0.000 N 
ATOM      3  C   UNL     1     -13.630  51.228  26.700  0.00  0.00    +0.000 C 
ATOM      4  C   UNL     1     -13.312  52.455  25.785  0.00  0.00    +0.000 C 
ATOM      5  C   UNL     1     -12.704  49.946  26.619  0.00  0.00    +0.000 C 
ATOM      6  C   UNL     1     -13.448  51.921  27.973  0.00  0.00    +0.000 C 
ATOM      7  C   UNL     1     -12.359  52.269  24.601  0.00  0.00    +0.000 C 
ATOM      8  C   UNL     1     -15.048  50.735  26.596  0.00  0.00    +0.000 C 
ATOM      9  C   UNL     1     -13.426  53.328  27.966  0.00  0.00    +0.000 C 
ATOM     10  C   UNL     1     -13.407  48.720  26.898  0.00  0.00    +0.000 C 
ATOM     11  C   UNL     1     -11.645  49.948  25.619  0.00  0.00    +0.000 C 
ATOM     12  C   UNL     1     -11.707  51.004  24.869  0.00  0.00    +0.000 C 
ATOM     13  C   UNL     1     -14.931  48.574  26.938  0.00  0.00    +0.000 C 
ATOM     14  C   UNL     1     -14.185  54.720  26.089  0.00  0.00    +0.000 C 
ATOM     15  C   UNL     1     -13.095  52.316  23.341  0.00  0.00    +0.000 C 
ATOM     16  C   UNL     1     -14.118  54.174  28.883  0.00  0.00    +0.000 C 
ATOM     17  C   UNL     1     -16.692  49.353  25.555  0.00  0.00    +0.000 C 
ATOM     18  C   UNL     1     -15.239  55.841  26.175  0.00  0.00    +0.000 C 
ATOM     19  C   UNL     1     -13.961  52.218  22.083  0.00  0.00    +0.000 C 
ATOM     20  C   UNL     1     -14.859  55.049  29.243  0.00  0.00    +0.000 C 
ATOM     21  C   UNL     1     -15.974  56.548  27.312  0.00  0.00    +0.000 C 
ATOM     22  C   UNL     1     -17.342  49.260  24.172  0.00  0.00    +0.000 C 
ATOM     23  C   UNL     1     -15.779  56.179  28.778  0.00  0.00    +0.000 C 
ATOM     24  C   UNL     1     -15.076  51.796  21.130  0.00  0.00    +0.000 C 
ATOM     25  C   UNL     1     -17.601  49.525  22.692  0.00  0.00    +0.000 C 
ATOM     26  C   UNL     1     -17.169  50.240  21.422  0.00  0.00    +0.000 C 
ATOM     27  C   UNL     1     -16.078  51.172  20.925  0.00  0.00    +0.000 C 
ENDROOT
BRANCH  11  30
ATOM     28  N   UNL     1     -10.815  48.219  24.133  0.00  0.00    +0.000 NA
ATOM     29  N   UNL     1      -9.481  48.908  27.515  0.00  0.00    +0.000 N 
ATOM     30  C   UNL     1     -10.732  48.853  25.325  0.00  0.00    +0.000 A 
ATOM     31  C   UNL     1      -9.783  48.438  26.257  0.00  0.00    +0.000 A 
ATOM     32  C   UNL     1      -8.912  47.380  25.996  0.00  0.00    +0.000 A 
ATOM     33  C   UNL     1      -9.968  47.196  23.887  0.00  0.00    +0.000 A 
ATOM     34  C   UNL     1      -9.000  46.720  24.760  0.00  0.00    +0.000 A 
ATOM     35  C   UNL     1      -8.077  47.218  27.144  0.00  0.00    +0.000 A 
ATOM     36  C   UNL     1      -8.455  48.184  28.074  0.00  0.00    +0.000 A 
ATOM     37  C   UNL     1      -7.030  46.336  27.472  0.00  0.00    +0.000 A 
ATOM     38  C   UNL     1      -7.841  48.320  29.322  0.00  0.00    +0.000 A 
ATOM     39  C   UNL     1      -6.405  46.456  28.716  0.00  0.00    +0.000 A 
ATOM     40  C   UNL     1      -6.806  47.432  29.621  0.00  0.00    +0.000 A 
ATOM     41  H   UNL     1      -9.943  49.686  27.967  0.00  0.00    +0.000 HD
ENDBRANCH  11  30
BRANCH   7  42
ATOM     42  O   UNL     1     -11.360  53.278  24.592  0.00  0.00    +0.000 OA
ATOM     43  H   UNL     1     -11.115  53.422  25.521  0.00  0.00    +0.000 HD
ENDBRANCH   7  42
TORSDOF 2
ENDMDL
MODEL 2
REMARK VINA RESULT:      -7.6     23.088     26.104
REMARK  Name = 6509753_ManzamineA.pdbqt.pdb
REMARK  2 active torsions:
REMARK  status: ('A' for Active; 'I' for Inactive)
REMARK    1  A    between atoms: C_7  and  O_42
REMARK    2  A    between atoms: C_11  and  C_30
REMARK                            x       y       z     vdW  Elec       q    Type
REMARK                         _______ _______ _______ _____ _____    ______ ____
ROOT
ATOM      1  N   UNL     1     -17.769  39.937   6.353  0.00  0.00    +0.000 N 
ATOM      2  N   UNL     1     -19.933  38.367   2.146  0.00  0.00    +0.000 N 
ATOM      3  C   UNL     1     -19.598  38.882   4.956  0.00  0.00    +0.000 C 
ATOM      4  C   UNL     1     -18.347  38.658   5.866  0.00  0.00    +0.000 C 
ATOM      5  C   UNL     1     -20.940  38.109   5.289  0.00  0.00    +0.000 C 
ATOM      6  C   UNL     1     -19.741  40.310   5.221  0.00  0.00    +0.000 C 
ATOM      7  C   UNL     1     -18.327  37.460   6.819  0.00  0.00    +0.000 C 
ATOM      8  C   UNL     1     -19.337  38.667   3.489  0.00  0.00    +0.000 C 
ATOM      9  C   UNL     1     -18.657  40.989   5.809  0.00  0.00    +0.000 C 
ATOM     10  C   UNL     1     -21.728  37.812   4.120  0.00  0.00    +0.000 C 
ATOM     11  C   UNL     1     -20.907  37.153   6.388  0.00  0.00    +0.000 C 
ATOM     12  C   UNL     1     -19.707  37.022   6.861  0.00  0.00    +0.000 C 
ATOM     13  C   UNL     1     -21.222  37.900   2.677  0.00  0.00    +0.000 C 
ATOM     14  C   UNL     1     -16.371  40.100   5.946  0.00  0.00    +0.000 C 
ATOM     15  C   UNL     1     -17.385  36.449   6.348  0.00  0.00    +0.000 C 
ATOM     16  C   UNL     1     -18.148  42.256   5.395  0.00  0.00    +0.000 C 
ATOM     17  C   UNL     1     -19.226  37.225   1.592  0.00  0.00    +0.000 C 
ATOM     18  C   UNL     1     -15.103  40.808   5.432  0.00  0.00    +0.000 C 
ATOM     19  C   UNL     1     -16.502  35.379   5.702  0.00  0.00    +0.000 C 
ATOM     20  C   UNL     1     -17.331  43.056   5.027  0.00  0.00    +0.000 C 
ATOM     21  C   UNL     1     -14.788  42.202   4.893  0.00  0.00    +0.000 C 
ATOM     22  C   UNL     1     -18.370  36.031   1.160  0.00  0.00    +0.000 C 
ATOM     23  C   UNL     1     -15.850  43.280   4.715  0.00  0.00    +0.000 C 
ATOM     24  C   UNL     1     -15.910  34.437   4.657  0.00  0.00    +0.000 C 
ATOM     25  C   UNL     1     -17.354  34.895   1.240  0.00  0.00    +0.000 C 
ATOM     26  C   UNL     1     -16.379  34.105   2.096  0.00  0.00    +0.000 C 
ATOM     27  C   UNL     1     -15.877  34.037   3.529  0.00  0.00    +0.000 C 
ENDROOT
BRANCH  11  30
ATOM     28  N   UNL     1     -23.271  36.736   6.737  0.00  0.00    +0.000 NA
ATOM     29  N   UNL     1     -20.572  34.316   7.481  0.00  0.00    +0.000 N 
ATOM     30  C   UNL     1     -21.997  36.288   6.814  0.00  0.00    +0.000 A 
ATOM     31  C   UNL     1     -21.748  35.011   7.311  0.00  0.00    +0.000 A 
ATOM     32  C   UNL     1     -22.781  34.175   7.737  0.00  0.00    +0.000 A 
ATOM     33  C   UNL     1     -24.266  35.921   7.151  0.00  0.00    +0.000 A 
ATOM     34  C   UNL     1     -24.103  34.641   7.662  0.00  0.00    +0.000 A 
ATOM     35  C   UNL     1     -22.190  32.952   8.181  0.00  0.00    +0.000 A 
ATOM     36  C   UNL     1     -20.812  33.070   8.009  0.00  0.00    +0.000 A 
ATOM     37  C   UNL     1     -22.706  31.755   8.711  0.00  0.00    +0.000 A 
ATOM     38  C   UNL     1     -19.914  32.050   8.338  0.00  0.00    +0.000 A 
ATOM     39  C   UNL     1     -21.824  30.724   9.047  0.00  0.00    +0.000 A 
ATOM     40  C   UNL     1     -20.454  30.873   8.861  0.00  0.00    +0.000 A 
ATOM     41  H   UNL     1     -19.655  34.667   7.242  0.00  0.00    +0.000 HD
ENDBRANCH  11  30
BRANCH   7  42
ATOM     42  O   UNL     1     -17.959  37.862   8.130  0.00  0.00    +0.000 OA
ATOM     43  H   UNL     1     -18.788  38.088   8.584  0.00  0.00    +0.000 HD
ENDBRANCH   7  42
TORSDOF 2
ENDMDL
MODEL 3
REMARK VINA RESULT:      -7.6     23.428     26.138
REMARK  Name = 6509753_ManzamineA.pdbqt.pdb
REMARK  2 active torsions:
REMARK  status: ('A' for Active; 'I' for Inactive)
REMARK    1  A    between atoms: C_7  and  O_42
REMARK    2  A    between atoms: C_11  and  C_30
REMARK                            x       y       z     vdW  Elec       q    Type
REMARK                         _______ _______ _______ _____ _____    ______ ____
ROOT
ATOM      1  N   UNL     1     -20.715  40.441   6.403  0.00  0.00    +0.000 N 
ATOM      2  N   UNL     1     -21.343  37.340   2.551  0.00  0.00    +0.000 N 
ATOM      3  C   UNL     1     -21.724  38.476   5.166  0.00  0.00    +0.000 C 
ATOM      4  C   UNL     1     -20.662  38.971   6.201  0.00  0.00    +0.000 C 
ATOM      5  C   UNL     1     -22.701  37.296   5.570  0.00  0.00    +0.000 C 
ATOM      6  C   UNL     1     -22.450  39.739   5.060  0.00  0.00    +0.000 C 
ATOM      7  C   UNL     1     -20.348  38.096   7.417  0.00  0.00    +0.000 C 
ATOM      8  C   UNL     1     -21.151  38.112   3.823  0.00  0.00    +0.000 C 
ATOM      9  C   UNL     1     -21.831  40.904   5.548  0.00  0.00    +0.000 C 
ATOM     10  C   UNL     1     -23.099  36.481   4.451  0.00  0.00    +0.000 C 
ATOM     11  C   UNL     1     -22.494  36.671   6.869  0.00  0.00    +0.000 C 
ATOM     12  C   UNL     1     -21.438  37.142   7.455  0.00  0.00    +0.000 C 
ATOM     13  C   UNL     1     -22.424  36.492   3.076  0.00  0.00    +0.000 C 
ATOM     14  C   UNL     1     -19.440  41.087   6.082  0.00  0.00    +0.000 C 
ATOM     15  C   UNL     1     -19.024  37.496   7.287  0.00  0.00    +0.000 C 
ATOM     16  C   UNL     1     -21.785  42.163   4.877  0.00  0.00    +0.000 C 
ATOM     17  C   UNL     1     -20.166  36.510   2.354  0.00  0.00    +0.000 C 
ATOM     18  C   UNL     1     -18.474  42.144   5.513  0.00  0.00    +0.000 C 
ATOM     19  C   UNL     1     -17.699  36.787   6.997  0.00  0.00    +0.000 C 
ATOM     20  C   UNL     1     -21.289  43.143   4.390  0.00  0.00    +0.000 C 
ATOM     21  C   UNL     1     -18.631  43.411   4.675  0.00  0.00    +0.000 C 
ATOM     22  C   UNL     1     -18.856  35.719   2.299  0.00  0.00    +0.000 C 
ATOM     23  C   UNL     1     -19.978  43.896   4.152  0.00  0.00    +0.000 C 
ATOM     24  C   UNL     1     -16.619  35.993   6.266  0.00  0.00    +0.000 C 
ATOM     25  C   UNL     1     -17.512  35.146   2.737  0.00  0.00    +0.000 C 
ATOM     26  C   UNL     1     -16.472  35.011   3.837  0.00  0.00    +0.000 C 
ATOM     27  C   UNL     1     -16.240  35.435   5.278  0.00  0.00    +0.000 C 
ENDROOT
BRANCH  11  30
ATOM     28  N   UNL     1     -24.562  35.616   7.571  0.00  0.00    +0.000 NA
ATOM     29  N   UNL     1     -21.232  34.009   7.691  0.00  0.00    +0.000 N 
ATOM     30  C   UNL     1     -23.223  35.531   7.406  0.00  0.00    +0.000 A 
ATOM     31  C   UNL     1     -22.561  34.360   7.765  0.00  0.00    +0.000 A 
ATOM     32  C   UNL     1     -23.243  33.264   8.295  0.00  0.00    +0.000 A 
ATOM     33  C   UNL     1     -25.217  34.551   8.084  0.00  0.00    +0.000 A 
ATOM     34  C   UNL     1     -24.633  33.352   8.469  0.00  0.00    +0.000 A 
ATOM     35  C   UNL     1     -22.281  32.239   8.549  0.00  0.00    +0.000 A 
ATOM     36  C   UNL     1     -21.036  32.733   8.162  0.00  0.00    +0.000 A 
ATOM     37  C   UNL     1     -22.359  30.935   9.071  0.00  0.00    +0.000 A 
ATOM     38  C   UNL     1     -19.857  31.989   8.268  0.00  0.00    +0.000 A 
ATOM     39  C   UNL     1     -21.191  30.177   9.184  0.00  0.00    +0.000 A 
ATOM     40  C   UNL     1     -19.964  30.698   8.788  0.00  0.00    +0.000 A 
ATOM     41  H   UNL     1     -20.497  34.603   7.330  0.00  0.00    +0.000 HD
ENDBRANCH  11  30
BRANCH   7  42
ATOM     42  O   UNL     1     -20.396  38.858   8.615  0.00  0.00    +0.000 OA
ATOM     43  H   UNL     1     -21.080  38.445   9.168  0.00  0.00    +0.000 HD
ENDBRANCH   7  42
TORSDOF 2
ENDMDL
MODEL 4
REMARK VINA RESULT:      -7.5     11.581     18.225
REMARK  Name = 6509753_ManzamineA.pdbqt.pdb
REMARK  2 active torsions:
REMARK  status: ('A' for Active; 'I' for Inactive)
REMARK    1  A    between atoms: C_7  and  O_42
REMARK    2  A    between atoms: C_11  and  C_30
REMARK                            x       y       z     vdW  Elec       q    Type
REMARK                         _______ _______ _______ _____ _____    ______ ____
ROOT
ATOM      1  N   UNL     1      -1.436  42.018  35.150  0.00  0.00    +0.000 N 
ATOM      2  N   UNL     1       2.311  45.237  35.817  0.00  0.00    +0.000 N 
ATOM      3  C   UNL     1       0.170  43.857  34.480  0.00  0.00    +0.000 C 
ATOM      4  C   UNL     1      -0.164  42.330  34.450  0.00  0.00    +0.000 C 
ATOM      5  C   UNL     1       0.498  44.601  33.120  0.00  0.00    +0.000 C 
ATOM      6  C   UNL     1      -1.116  44.295  35.015  0.00  0.00    +0.000 C 
ATOM      7  C   UNL     1       0.175  41.522  33.194  0.00  0.00    +0.000 C 
ATOM      8  C   UNL     1       1.266  44.227  35.442  0.00  0.00    +0.000 C 
ATOM      9  C   UNL     1      -1.959  43.329  35.595  0.00  0.00    +0.000 C 
ATOM     10  C   UNL     1       1.422  45.695  33.282  0.00  0.00    +0.000 C 
ATOM     11  C   UNL     1       0.557  43.790  31.912  0.00  0.00    +0.000 C 
ATOM     12  C   UNL     1       0.422  42.530  32.183  0.00  0.00    +0.000 C 
ATOM     13  C   UNL     1       2.279  45.941  34.527  0.00  0.00    +0.000 C 
ATOM     14  C   UNL     1      -1.240  41.074  36.253  0.00  0.00    +0.000 C 
ATOM     15  C   UNL     1       1.303  40.631  33.449  0.00  0.00    +0.000 C 
ATOM     16  C   UNL     1      -2.662  43.473  36.828  0.00  0.00    +0.000 C 
ATOM     17  C   UNL     1       3.582  44.540  35.927  0.00  0.00    +0.000 C 
ATOM     18  C   UNL     1      -1.408  40.454  37.653  0.00  0.00    +0.000 C 
ATOM     19  C   UNL     1       2.583  39.850  33.753  0.00  0.00    +0.000 C 
ATOM     20  C   UNL     1      -3.016  43.195  37.942  0.00  0.00    +0.000 C 
ATOM     21  C   UNL     1      -2.142  40.855  38.931  0.00  0.00    +0.000 C 
ATOM     22  C   UNL     1       4.824  43.649  36.011  0.00  0.00    +0.000 C 
ATOM     23  C   UNL     1      -2.922  42.157  39.063  0.00  0.00    +0.000 C 
ATOM     24  C   UNL     1       3.999  39.532  34.226  0.00  0.00    +0.000 C 
ATOM     25  C   UNL     1       5.708  42.412  35.885  0.00  0.00    +0.000 C 
ATOM     26  C   UNL     1       5.836  40.967  35.430  0.00  0.00    +0.000 C 
ATOM     27  C   UNL     1       5.018  39.886  34.747  0.00  0.00    +0.000 C 
ENDROOT
BRANCH  11  30
ATOM     28  N   UNL     1       2.174  44.077  30.127  0.00  0.00    +0.000 NA
ATOM     29  N   UNL     1      -1.357  45.173  29.967  0.00  0.00    +0.000 N 
ATOM     30  C   UNL     1       0.912  44.253  30.578  0.00  0.00    +0.000 A 
ATOM     31  C   UNL     1      -0.026  44.884  29.764  0.00  0.00    +0.000 A 
ATOM     32  C   UNL     1       0.303  45.347  28.489  0.00  0.00    +0.000 A 
ATOM     33  C   UNL     1       2.485  44.528  28.892  0.00  0.00    +0.000 A 
ATOM     34  C   UNL     1       1.614  45.169  28.022  0.00  0.00    +0.000 A 
ATOM     35  C   UNL     1      -0.873  45.935  27.929  0.00  0.00    +0.000 A 
ATOM     36  C   UNL     1      -1.890  45.811  28.873  0.00  0.00    +0.000 A 
ATOM     37  C   UNL     1      -1.162  46.558  26.701  0.00  0.00    +0.000 A 
ATOM     38  C   UNL     1      -3.191  46.278  28.656  0.00  0.00    +0.000 A 
ATOM     39  C   UNL     1      -2.455  47.032  26.466  0.00  0.00    +0.000 A 
ATOM     40  C   UNL     1      -3.448  46.892  27.429  0.00  0.00    +0.000 A 
ATOM     41  H   UNL     1      -1.877  44.940  30.801  0.00  0.00    +0.000 HD
ENDBRANCH  11  30
BRANCH   7  42
ATOM     42  O   UNL     1      -0.940  40.749  32.773  0.00  0.00    +0.000 OA
ATOM     43  H   UNL     1      -0.581  39.891  32.491  0.00  0.00    +0.000 HD
ENDBRANCH   7  42
TORSDOF 2
ENDMDL
MODEL 5
REMARK VINA RESULT:      -7.5      2.672      8.349
REMARK  Name = 6509753_ManzamineA.pdbqt.pdb
REMARK  2 active torsions:
REMARK  status: ('A' for Active; 'I' for Inactive)
REMARK    1  A    between atoms: C_7  and  O_42
REMARK    2  A    between atoms: C_11  and  C_30
REMARK                            x       y       z     vdW  Elec       q    Type
REMARK                         _______ _______ _______ _____ _____    ______ ____
ROOT
ATOM      1  N   UNL     1     -10.653  48.448  24.855  0.00  0.00    +0.000 N 
ATOM      2  N   UNL     1     -10.805  50.392  29.442  0.00  0.00    +0.000 N 
ATOM      3  C   UNL     1     -11.699  48.987  27.097  0.00  0.00    +0.000 C 
ATOM      4  C   UNL     1     -11.553  49.374  25.589  0.00  0.00    +0.000 C 
ATOM      5  C   UNL     1     -13.150  48.820  27.711  0.00  0.00    +0.000 C 
ATOM      6  C   UNL     1     -11.023  47.697  27.001  0.00  0.00    +0.000 C 
ATOM      7  C   UNL     1     -12.772  49.924  24.843  0.00  0.00    +0.000 C 
ATOM      8  C   UNL     1     -10.939  49.883  28.038  0.00  0.00    +0.000 C 
ATOM      9  C   UNL     1     -10.249  47.435  25.855  0.00  0.00    +0.000 C 
ATOM     10  C   UNL     1     -13.216  49.163  29.109  0.00  0.00    +0.000 C 
ATOM     11  C   UNL     1     -14.282  49.126  26.848  0.00  0.00    +0.000 C 
ATOM     12  C   UNL     1     -13.889  49.597  25.706  0.00  0.00    +0.000 C 
ATOM     13  C   UNL     1     -12.132  49.929  29.875  0.00  0.00    +0.000 C 
ATOM     14  C   UNL     1      -9.515  49.148  24.254  0.00  0.00    +0.000 C 
ATOM     15  C   UNL     1     -12.608  51.350  24.578  0.00  0.00    +0.000 C 
ATOM     16  C   UNL     1      -8.944  46.858  25.849  0.00  0.00    +0.000 C 
ATOM     17  C   UNL     1     -10.822  51.844  29.392  0.00  0.00    +0.000 C 
ATOM     18  C   UNL     1      -8.058  49.406  23.825  0.00  0.00    +0.000 C 
ATOM     19  C   UNL     1     -12.428  52.866  24.483  0.00  0.00    +0.000 C 
ATOM     20  C   UNL     1      -7.771  46.772  25.603  0.00  0.00    +0.000 C 
ATOM     21  C   UNL     1      -6.725  48.691  24.040  0.00  0.00    +0.000 C 
ATOM     22  C   UNL     1     -10.843  53.356  29.152  0.00  0.00    +0.000 C 
ATOM     23  C   UNL     1      -6.592  47.423  24.877  0.00  0.00    +0.000 C 
ATOM     24  C   UNL     1     -12.139  54.311  24.883  0.00  0.00    +0.000 C 
ATOM     25  C   UNL     1     -10.991  54.686  28.420  0.00  0.00    +0.000 C 
ATOM     26  C   UNL     1     -11.337  55.408  27.128  0.00  0.00    +0.000 C 
ATOM     27  C   UNL     1     -11.802  55.104  25.714  0.00  0.00    +0.000 C 
ENDROOT
BRANCH  11  30
ATOM     28  N   UNL     1     -16.022  49.138  28.537  0.00  0.00    +0.000 NA
ATOM     29  N   UNL     1     -16.629  49.032  24.888  0.00  0.00    +0.000 N 
ATOM     30  C   UNL     1     -15.687  49.111  27.228  0.00  0.00    +0.000 A 
ATOM     31  C   UNL     1     -16.691  49.055  26.263  0.00  0.00    +0.000 A 
ATOM     32  C   UNL     1     -18.042  49.025  26.612  0.00  0.00    +0.000 A 
ATOM     33  C   UNL     1     -17.332  49.108  28.867  0.00  0.00    +0.000 A 
ATOM     34  C   UNL     1     -18.391  49.049  27.971  0.00  0.00    +0.000 A 
ATOM     35  C   UNL     1     -18.797  48.972  25.400  0.00  0.00    +0.000 A 
ATOM     36  C   UNL     1     -17.889  48.978  24.343  0.00  0.00    +0.000 A 
ATOM     37  C   UNL     1     -20.173  48.924  25.109  0.00  0.00    +0.000 A 
ATOM     38  C   UNL     1     -18.282  48.939  23.002  0.00  0.00    +0.000 A 
ATOM     39  C   UNL     1     -20.586  48.883  23.775  0.00  0.00    +0.000 A 
ATOM     40  C   UNL     1     -19.654  48.892  22.744  0.00  0.00    +0.000 A 
ATOM     41  H   UNL     1     -15.775  49.060  24.348  0.00  0.00    +0.000 HD
ENDBRANCH  11  30
BRANCH   7  42
ATOM     42  O   UNL     1     -12.961  49.242  23.612  0.00  0.00    +0.000 OA
ATOM     43  H   UNL     1     -12.078  48.954  23.325  0.00  0.00    +0.000 HD
ENDBRANCH   7  42
TORSDOF 2
ENDMDL
MODEL 6
REMARK VINA RESULT:      -7.4      9.674     15.063
REMARK  Name = 6509753_ManzamineA.pdbqt.pdb
REMARK  2 active torsions:
REMARK  status: ('A' for Active; 'I' for Inactive)
REMARK    1  A    between atoms: C_7  and  O_42
REMARK    2  A    between atoms: C_11  and  C_30
REMARK                            x       y       z     vdW  Elec       q    Type
REMARK                         _______ _______ _______ _____ _____    ______ ____
ROOT
ATOM      1  N   UNL     1      -3.577  46.616  29.630  0.00  0.00    +0.000 N 
ATOM      2  N   UNL     1       1.105  45.361  28.467  0.00  0.00    +0.000 N 
ATOM      3  C   UNL     1      -1.381  45.388  29.914  0.00  0.00    +0.000 C 
ATOM      4  C   UNL     1      -2.271  46.601  30.339  0.00  0.00    +0.000 C 
ATOM      5  C   UNL     1      -0.774  44.448  31.036  0.00  0.00    +0.000 C 
ATOM      6  C   UNL     1      -2.409  44.688  29.150  0.00  0.00    +0.000 C 
ATOM      7  C   UNL     1      -2.249  47.062  31.799  0.00  0.00    +0.000 C 
ATOM      8  C   UNL     1      -0.240  45.753  29.003  0.00  0.00    +0.000 C 
ATOM      9  C   UNL     1      -3.566  45.402  28.784  0.00  0.00    +0.000 C 
ATOM     10  C   UNL     1       0.495  43.873  30.668  0.00  0.00    +0.000 C 
ATOM     11  C   UNL     1      -1.012  44.823  32.423  0.00  0.00    +0.000 C 
ATOM     12  C   UNL     1      -1.621  45.964  32.505  0.00  0.00    +0.000 C 
ATOM     13  C   UNL     1       1.364  44.344  29.498  0.00  0.00    +0.000 C 
ATOM     14  C   UNL     1      -3.772  47.849  28.863  0.00  0.00    +0.000 C 
ATOM     15  C   UNL     1      -1.550  48.338  31.920  0.00  0.00    +0.000 C 
ATOM     16  C   UNL     1      -4.179  45.384  27.495  0.00  0.00    +0.000 C 
ATOM     17  C   UNL     1       2.012  46.475  28.687  0.00  0.00    +0.000 C 
ATOM     18  C   UNL     1      -4.184  48.751  27.684  0.00  0.00    +0.000 C 
ATOM     19  C   UNL     1      -0.669  49.588  31.979  0.00  0.00    +0.000 C 
ATOM     20  C   UNL     1      -4.627  45.832  26.474  0.00  0.00    +0.000 C 
ATOM     21  C   UNL     1      -4.727  48.509  26.277  0.00  0.00    +0.000 C 
ATOM     22  C   UNL     1       2.819  47.742  28.984  0.00  0.00    +0.000 C 
ATOM     23  C   UNL     1      -4.953  47.114  25.706  0.00  0.00    +0.000 C 
ATOM     24  C   UNL     1       0.512  50.531  31.761  0.00  0.00    +0.000 C 
ATOM     25  C   UNL     1       3.166  49.120  29.541  0.00  0.00    +0.000 C 
ATOM     26  C   UNL     1       2.740  50.303  30.394  0.00  0.00    +0.000 C 
ATOM     27  C   UNL     1       1.580  50.750  31.268  0.00  0.00    +0.000 C 
ENDROOT
BRANCH  11  30
ATOM     28  N   UNL     1       0.085  44.877  34.586  0.00  0.00    +0.000 NA
ATOM     29  N   UNL     1      -1.089  41.802  32.896  0.00  0.00    +0.000 N 
ATOM     30  C   UNL     1      -0.488  44.148  33.602  0.00  0.00    +0.000 A 
ATOM     31  C   UNL     1      -0.557  42.762  33.726  0.00  0.00    +0.000 A 
ATOM     32  C   UNL     1      -0.046  42.099  34.843  0.00  0.00    +0.000 A 
ATOM     33  C   UNL     1       0.577  44.228  35.664  0.00  0.00    +0.000 A 
ATOM     34  C   UNL     1       0.553  42.855  35.863  0.00  0.00    +0.000 A 
ATOM     35  C   UNL     1      -0.278  40.702  34.656  0.00  0.00    +0.000 A 
ATOM     36  C   UNL     1      -0.929  40.547  33.435  0.00  0.00    +0.000 A 
ATOM     37  C   UNL     1       0.006  39.555  35.421  0.00  0.00    +0.000 A 
ATOM     38  C   UNL     1      -1.317  39.302  32.931  0.00  0.00    +0.000 A 
ATOM     39  C   UNL     1      -0.372  38.302  34.934  0.00  0.00    +0.000 A 
ATOM     40  C   UNL     1      -1.022  38.182  33.711  0.00  0.00    +0.000 A 
ATOM     41  H   UNL     1      -1.545  41.989  32.013  0.00  0.00    +0.000 HD
ENDBRANCH  11  30
BRANCH   7  42
ATOM     42  O   UNL     1      -3.568  47.206  32.305  0.00  0.00    +0.000 OA
ATOM     43  H   UNL     1      -3.648  46.565  33.031  0.00  0.00    +0.000 HD
ENDBRANCH   7  42
TORSDOF 2
ENDMDL
MODEL 7
REMARK VINA RESULT:      -7.4     25.782     28.921
REMARK  Name = 6509753_ManzamineA.pdbqt.pdb
REMARK  2 active torsions:
REMARK  status: ('A' for Active; 'I' for Inactive)
REMARK    1  A    between atoms: C_7  and  O_42
REMARK    2  A    between atoms: C_11  and  C_30
REMARK                            x       y       z     vdW  Elec       q    Type
REMARK                         _______ _______ _______ _____ _____    ______ ____
ROOT
ATOM      1  N   UNL     1       1.108  23.762  20.596  0.00  0.00    +0.000 N 
ATOM      2  N   UNL     1       0.518  28.660  19.883  0.00  0.00    +0.000 N 
ATOM      3  C   UNL     1      -0.098  25.983  20.737  0.00  0.00    +0.000 C 
ATOM      4  C   UNL     1       0.076  24.630  19.973  0.00  0.00    +0.000 C 
ATOM      5  C   UNL     1      -1.549  26.429  21.191  0.00  0.00    +0.000 C 
ATOM      6  C   UNL     1       0.721  25.627  21.891  0.00  0.00    +0.000 C 
ATOM      7  C   UNL     1      -1.159  23.951  19.375  0.00  0.00    +0.000 C 
ATOM      8  C   UNL     1       0.510  27.167  20.035  0.00  0.00    +0.000 C 
ATOM      9  C   UNL     1       1.574  24.513  21.783  0.00  0.00    +0.000 C 
ATOM     10  C   UNL     1      -1.721  27.860  21.215  0.00  0.00    +0.000 C 
ATOM     11  C   UNL     1      -2.665  25.584  20.789  0.00  0.00    +0.000 C 
ATOM     12  C   UNL     1      -2.273  24.624  20.012  0.00  0.00    +0.000 C 
ATOM     13  C   UNL     1      -0.768  28.867  20.564  0.00  0.00    +0.000 C 
ATOM     14  C   UNL     1       2.189  23.436  19.663  0.00  0.00    +0.000 C 
ATOM     15  C   UNL     1      -1.142  24.054  17.919  0.00  0.00    +0.000 C 
ATOM     16  C   UNL     1       2.934  24.464  22.212  0.00  0.00    +0.000 C 
ATOM     17  C   UNL     1       0.343  28.963  18.472  0.00  0.00    +0.000 C 
ATOM     18  C   UNL     1       3.627  23.191  19.167  0.00  0.00    +0.000 C 
ATOM     19  C   UNL     1      -1.128  24.344  16.417  0.00  0.00    +0.000 C 
ATOM     20  C   UNL     1       4.120  24.292  22.121  0.00  0.00    +0.000 C 
ATOM     21  C   UNL     1       5.019  23.325  19.782  0.00  0.00    +0.000 C 
ATOM     22  C   UNL     1       0.164  29.096  16.957  0.00  0.00    +0.000 C 
ATOM     23  C   UNL     1       5.252  23.836  21.199  0.00  0.00    +0.000 C 
ATOM     24  C   UNL     1      -1.022  25.103  15.097  0.00  0.00    +0.000 C 
ATOM     25  C   UNL     1      -0.095  28.700  15.507  0.00  0.00    +0.000 C 
ATOM     26  C   UNL     1      -0.456  27.600  14.522  0.00  0.00    +0.000 C 
ATOM     27  C   UNL     1      -0.816  26.124  14.507  0.00  0.00    +0.000 C 
ENDROOT
BRANCH  11  30
ATOM     28  N   UNL     1      -4.830  26.399  20.058  0.00  0.00    +0.000 NA
ATOM     29  N   UNL     1      -4.137  24.968  23.399  0.00  0.00    +0.000 N 
ATOM     30  C   UNL     1      -4.077  25.843  21.034  0.00  0.00    +0.000 A 
ATOM     31  C   UNL     1      -4.661  25.539  22.261  0.00  0.00    +0.000 A 
ATOM     32  C   UNL     1      -6.009  25.796  22.516  0.00  0.00    +0.000 A 
ATOM     33  C   UNL     1      -6.134  26.644  20.312  0.00  0.00    +0.000 A 
ATOM     34  C   UNL     1      -6.790  26.376  21.505  0.00  0.00    +0.000 A 
ATOM     35  C   UNL     1      -6.282  25.368  23.852  0.00  0.00    +0.000 A 
ATOM     36  C   UNL     1      -5.097  24.857  24.376  0.00  0.00    +0.000 A 
ATOM     37  C   UNL     1      -7.435  25.369  24.659  0.00  0.00    +0.000 A 
ATOM     38  C   UNL     1      -4.999  24.340  25.672  0.00  0.00    +0.000 A 
ATOM     39  C   UNL     1      -7.356  24.858  25.957  0.00  0.00    +0.000 A 
ATOM     40  C   UNL     1      -6.158  24.354  26.450  0.00  0.00    +0.000 A 
ATOM     41  H   UNL     1      -3.180  24.660  23.503  0.00  0.00    +0.000 HD
ENDBRANCH  11  30
BRANCH   7  42
ATOM     42  O   UNL     1      -1.211  22.581  19.743  0.00  0.00    +0.000 OA
ATOM     43  H   UNL     1      -2.151  22.377  19.886  0.00  0.00    +0.000 HD
ENDBRANCH   7  42
TORSDOF 2
ENDMDL
MODEL 8
REMARK VINA RESULT:      -7.3     16.415     18.459
REMARK  Name = 6509753_ManzamineA.pdbqt.pdb
REMARK  2 active torsions:
REMARK  status: ('A' for Active; 'I' for Inactive)
REMARK    1  A    between atoms: C_7  and  O_42
REMARK    2  A    between atoms: C_11  and  C_30
REMARK                            x       y       z     vdW  Elec       q    Type
REMARK                         _______ _______ _______ _____ _____    ______ ____
ROOT
ATOM      1  N   UNL     1      -1.212  58.146  20.500  0.00  0.00    +0.000 N 
ATOM      2  N   UNL     1       2.837  60.954  19.747  0.00  0.00    +0.000 N 
ATOM      3  C   UNL     1       1.006  58.757  19.442  0.00  0.00    +0.000 C 
ATOM      4  C   UNL     1       0.257  57.927  20.535  0.00  0.00    +0.000 C 
ATOM      5  C   UNL     1       2.010  58.015  18.466  0.00  0.00    +0.000 C 
ATOM      6  C   UNL     1      -0.186  59.198  18.725  0.00  0.00    +0.000 C 
ATOM      7  C   UNL     1       0.760  56.521  20.873  0.00  0.00    +0.000 C 
ATOM      8  C   UNL     1       1.742  59.956  19.978  0.00  0.00    +0.000 C 
ATOM      9  C   UNL     1      -1.433  59.071  19.367  0.00  0.00    +0.000 C 
ATOM     10  C   UNL     1       3.101  58.851  18.033  0.00  0.00    +0.000 C 
ATOM     11  C   UNL     1       2.248  56.598  18.702  0.00  0.00    +0.000 C 
ATOM     12  C   UNL     1       1.647  56.192  19.776  0.00  0.00    +0.000 C 
ATOM     13  C   UNL     1       3.487  60.189  18.672  0.00  0.00    +0.000 C 
ATOM     14  C   UNL     1      -1.722  58.664  21.772  0.00  0.00    +0.000 C 
ATOM     15  C   UNL     1       1.392  56.507  22.188  0.00  0.00    +0.000 C 
ATOM     16  C   UNL     1      -2.451  60.070  19.405  0.00  0.00    +0.000 C 
ATOM     17  C   UNL     1       3.707  60.936  20.911  0.00  0.00    +0.000 C 
ATOM     18  C   UNL     1      -2.561  59.528  22.732  0.00  0.00    +0.000 C 
ATOM     19  C   UNL     1       2.175  56.615  23.499  0.00  0.00    +0.000 C 
ATOM     20  C   UNL     1      -3.247  60.824  19.897  0.00  0.00    +0.000 C 
ATOM     21  C   UNL     1      -3.544  60.685  22.564  0.00  0.00    +0.000 C 
ATOM     22  C   UNL     1       4.501  60.796  22.213  0.00  0.00    +0.000 C 
ATOM     23  C   UNL     1      -3.882  61.293  21.208  0.00  0.00    +0.000 C 
ATOM     24  C   UNL     1       3.158  57.117  24.553  0.00  0.00    +0.000 C 
ATOM     25  C   UNL     1       4.949  60.244  23.563  0.00  0.00    +0.000 C 
ATOM     26  C   UNL     1       4.785  59.175  24.630  0.00  0.00    +0.000 C 
ATOM     27  C   UNL     1       3.978  57.917  24.902  0.00  0.00    +0.000 C 
ENDROOT
BRANCH  11  30
ATOM     28  N   UNL     1       2.740  55.030  16.918  0.00  0.00    +0.000 NA
ATOM     29  N   UNL     1       5.212  56.265  19.378  0.00  0.00    +0.000 N 
ATOM     30  C   UNL     1       3.180  55.746  17.977  0.00  0.00    +0.000 A 
ATOM     31  C   UNL     1       4.514  55.648  18.366  0.00  0.00    +0.000 A 
ATOM     32  C   UNL     1       5.416  54.824  17.691  0.00  0.00    +0.000 A 
ATOM     33  C   UNL     1       3.619  54.234  16.269  0.00  0.00    +0.000 A 
ATOM     34  C   UNL     1       4.960  54.077  16.593  0.00  0.00    +0.000 A 
ATOM     35  C   UNL     1       6.684  54.956  18.336  0.00  0.00    +0.000 A 
ATOM     36  C   UNL     1       6.526  55.861  19.383  0.00  0.00    +0.000 A 
ATOM     37  C   UNL     1       7.953  54.388  18.118  0.00  0.00    +0.000 A 
ATOM     38  C   UNL     1       7.573  56.234  20.232  0.00  0.00    +0.000 A 
ATOM     39  C   UNL     1       9.012  54.747  18.956  0.00  0.00    +0.000 A 
ATOM     40  C   UNL     1       8.821  55.654  19.992  0.00  0.00    +0.000 A 
ATOM     41  H   UNL     1       4.819  56.934  20.027  0.00  0.00    +0.000 HD
ENDBRANCH  11  30
BRANCH   7  42
ATOM     42  O   UNL     1      -0.309  55.585  20.862  0.00  0.00    +0.000 OA
ATOM     43  H   UNL     1      -1.126  56.111  20.889  0.00  0.00    +0.000 HD
ENDBRANCH   7  42
TORSDOF 2
ENDMDL
MODEL 9
REMARK VINA RESULT:      -7.3      4.040      7.630
REMARK  Name = 6509753_ManzamineA.pdbqt.pdb
REMARK  2 active torsions:
REMARK  status: ('A' for Active; 'I' for Inactive)
REMARK    1  A    between atoms: C_7  and  O_42
REMARK    2  A    between atoms: C_11  and  C_30
REMARK                            x       y       z     vdW  Elec       q    Type
REMARK                         _______ _______ _______ _____ _____    ______ ____
ROOT
ATOM      1  N   UNL     1      -8.927  47.790  27.123  0.00  0.00    +0.000 N 
ATOM      2  N   UNL     1     -10.069  52.202  29.142  0.00  0.00    +0.000 N 
ATOM      3  C   UNL     1     -10.151  49.363  28.683  0.00  0.00    +0.000 C 
ATOM      4  C   UNL     1     -10.171  48.573  27.334  0.00  0.00    +0.000 C 
ATOM      5  C   UNL     1     -11.368  49.205  29.686  0.00  0.00    +0.000 C 
ATOM      6  C   UNL     1      -8.948  48.737  29.223  0.00  0.00    +0.000 C 
ATOM      7  C   UNL     1     -11.489  47.961  26.853  0.00  0.00    +0.000 C 
ATOM      8  C   UNL     1      -9.920  50.842  28.526  0.00  0.00    +0.000 C 
ATOM      9  C   UNL     1      -8.118  48.022  28.340  0.00  0.00    +0.000 C 
ATOM     10  C   UNL     1     -11.618  50.391  30.466  0.00  0.00    +0.000 C 
ATOM     11  C   UNL     1     -12.493  48.389  29.249  0.00  0.00    +0.000 C 
ATOM     12  C   UNL     1     -12.342  47.997  28.023  0.00  0.00    +0.000 C 
ATOM     13  C   UNL     1     -11.035  51.775  30.166  0.00  0.00    +0.000 C 
ATOM     14  C   UNL     1      -8.235  48.177  25.891  0.00  0.00    +0.000 C 
ATOM     15  C   UNL     1     -12.005  48.699  25.704  0.00  0.00    +0.000 C 
ATOM     16  C   UNL     1      -6.694  48.110  28.285  0.00  0.00    +0.000 C 
ATOM     17  C   UNL     1     -10.762  53.048  28.185  0.00  0.00    +0.000 C 
ATOM     18  C   UNL     1      -7.059  48.525  24.959  0.00  0.00    +0.000 C 
ATOM     19  C   UNL     1     -12.553  49.621  24.612  0.00  0.00    +0.000 C 
ATOM     20  C   UNL     1      -5.612  48.282  27.793  0.00  0.00    +0.000 C 
ATOM     21  C   UNL     1      -5.552  48.696  25.139  0.00  0.00    +0.000 C 
ATOM     22  C   UNL     1     -11.483  53.794  27.058  0.00  0.00    +0.000 C 
ATOM     23  C   UNL     1      -4.860  48.564  26.491  0.00  0.00    +0.000 C 
ATOM     24  C   UNL     1     -12.982  50.888  23.877  0.00  0.00    +0.000 C 
ATOM     25  C   UNL     1     -12.219  54.034  25.744  0.00  0.00    +0.000 C 
ATOM     26  C   UNL     1     -12.835  53.435  24.490  0.00  0.00    +0.000 C 
ATOM     27  C   UNL     1     -13.073  52.081  23.844  0.00  0.00    +0.000 C 
ENDROOT
BRANCH  11  30
ATOM     28  N   UNL     1     -14.886  48.700  29.498  0.00  0.00    +0.000 NA
ATOM     29  N   UNL     1     -12.753  46.796  31.847  0.00  0.00    +0.000 N 
ATOM     30  C   UNL     1     -13.736  48.172  29.975  0.00  0.00    +0.000 A 
ATOM     31  C   UNL     1     -13.757  47.441  31.160  0.00  0.00    +0.000 A 
ATOM     32  C   UNL     1     -14.937  47.237  31.876  0.00  0.00    +0.000 A 
ATOM     33  C   UNL     1     -16.025  48.498  30.196  0.00  0.00    +0.000 A 
ATOM     34  C   UNL     1     -16.131  47.787  31.383  0.00  0.00    +0.000 A 
ATOM     35  C   UNL     1     -14.613  46.454  33.026  0.00  0.00    +0.000 A 
ATOM     36  C   UNL     1     -13.245  46.194  32.981  0.00  0.00    +0.000 A 
ATOM     37  C   UNL     1     -15.364  45.940  34.100  0.00  0.00    +0.000 A 
ATOM     38  C   UNL     1     -12.580  45.444  33.955  0.00  0.00    +0.000 A 
ATOM     39  C   UNL     1     -14.717  45.188  35.084  0.00  0.00    +0.000 A 
ATOM     40  C   UNL     1     -13.350  44.946  35.008  0.00  0.00    +0.000 A 
ATOM     41  H   UNL     1     -11.786  46.759  31.556  0.00  0.00    +0.000 HD
ENDBRANCH  11  30
BRANCH   7  42
ATOM     42  O   UNL     1     -11.311  46.600  26.487  0.00  0.00    +0.000 OA
ATOM     43  H   UNL     1     -10.530  46.290  26.977  0.00  0.00    +0.000 HD
ENDBRANCH   7  42
TORSDOF 2
ENDMDL
