MODEL 1
REMARK VINA RESULT:      -3.8      0.000      0.000
REMARK  Name = 67499_Pyrazolo.pdbqt.pdb
REMARK  0 active torsions:
REMARK  status: ('A' for Active; 'I' for Inactive)
REMARK                            x       y       z     vdW  Elec       q    Type
REMARK                         _______ _______ _______ _____ _____    ______ ____
ROOT
ATOM      1  N   UNL     1     -14.749  42.880   4.768  0.00  0.00    +0.000 N 
ATOM      2  N   UNL     1     -14.034  41.744   4.916  0.00  0.00    +0.000 NA
ATOM      3  N   UNL     1     -17.021  43.682   5.019  0.00  0.00    +0.000 NA
ATOM      4  N   UNL     1     -18.514  41.930   5.771  0.00  0.00    +0.000 NA
ATOM      5  C   UNL     1     -16.233  41.418   5.443  0.00  0.00    +0.000 A 
ATOM      6  C   UNL     1     -16.072  42.736   5.071  0.00  0.00    +0.000 A 
ATOM      7  C   UNL     1     -14.949  40.856   5.329  0.00  0.00    +0.000 A 
ATOM      8  C   UNL     1     -17.512  41.017   5.804  0.00  0.00    +0.000 A 
ATOM      9  C   UNL     1     -18.220  43.190   5.387  0.00  0.00    +0.000 A 
ATOM     10  H   UNL     1     -14.280  43.723   4.457  0.00  0.00    +0.000 HD
ENDROOT
TORSDOF 0
ENDMDL
MODEL 2
REMARK VINA RESULT:      -3.8     31.806     32.990
REMARK  Name = 67499_Pyrazolo.pdbqt.pdb
REMARK  0 active torsions:
REMARK  status: ('A' for Active; 'I' for Inactive)
REMARK                            x       y       z     vdW  Elec       q    Type
REMARK                         _______ _______ _______ _____ _____    ______ ____
ROOT
ATOM      1  N   UNL     1      11.508  47.882  24.567  0.00  0.00    +0.000 N 
ATOM      2  N   UNL     1      11.435  48.491  25.771  0.00  0.00    +0.000 NA
ATOM      3  N   UNL     1      10.320  47.809  22.458  0.00  0.00    +0.000 NA
ATOM      4  N   UNL     1       8.390  49.271  22.461  0.00  0.00    +0.000 NA
ATOM      5  C   UNL     1       9.730  49.150  24.401  0.00  0.00    +0.000 A 
ATOM      6  C   UNL     1      10.508  48.244  23.712  0.00  0.00    +0.000 A 
ATOM      7  C   UNL     1      10.346  49.264  25.660  0.00  0.00    +0.000 A 
ATOM      8  C   UNL     1       8.632  49.674  23.733  0.00  0.00    +0.000 A 
ATOM      9  C   UNL     1       9.232  48.377  21.903  0.00  0.00    +0.000 A 
ATOM     10  H   UNL     1      12.261  47.230  24.388  0.00  0.00    +0.000 HD
ENDROOT
TORSDOF 0
ENDMDL
MODEL 3
REMARK VINA RESULT:      -3.6     10.439     12.327
REMARK  Name = 67499_Pyrazolo.pdbqt.pdb
REMARK  0 active torsions:
REMARK  status: ('A' for Active; 'I' for Inactive)
REMARK                            x       y       z     vdW  Elec       q    Type
REMARK                         _______ _______ _______ _____ _____    ______ ____
ROOT
ATOM      1  N   UNL     1      -3.361  38.583   3.308  0.00  0.00    +0.000 N 
ATOM      2  N   UNL     1      -2.364  39.166   2.609  0.00  0.00    +0.000 NA
ATOM      3  N   UNL     1      -5.718  38.891   3.775  0.00  0.00    +0.000 NA
ATOM      4  N   UNL     1      -6.607  40.847   2.658  0.00  0.00    +0.000 NA
ATOM      5  C   UNL     1      -4.326  40.312   2.372  0.00  0.00    +0.000 A 
ATOM      6  C   UNL     1      -4.557  39.232   3.198  0.00  0.00    +0.000 A 
ATOM      7  C   UNL     1      -2.962  40.222   2.041  0.00  0.00    +0.000 A 
ATOM      8  C   UNL     1      -5.406  41.141   2.103  0.00  0.00    +0.000 A 
ATOM      9  C   UNL     1      -6.697  39.758   3.449  0.00  0.00    +0.000 A 
ATOM     10  H   UNL     1      -3.167  37.744   3.841  0.00  0.00    +0.000 HD
ENDROOT
TORSDOF 0
ENDMDL
MODEL 4
REMARK VINA RESULT:      -3.6     29.872     30.906
REMARK  Name = 67499_Pyrazolo.pdbqt.pdb
REMARK  0 active torsions:
REMARK  status: ('A' for Active; 'I' for Inactive)
REMARK                            x       y       z     vdW  Elec       q    Type
REMARK                         _______ _______ _______ _____ _____    ______ ____
ROOT
ATOM      1  N   UNL     1       1.669  31.581  25.732  0.00  0.00    +0.000 N 
ATOM      2  N   UNL     1       0.652  31.359  26.593  0.00  0.00    +0.000 NA
ATOM      3  N   UNL     1       3.988  32.279  25.750  0.00  0.00    +0.000 NA
ATOM      4  N   UNL     1       4.774  32.730  27.996  0.00  0.00    +0.000 NA
ATOM      5  C   UNL     1       2.540  32.031  27.691  0.00  0.00    +0.000 A 
ATOM      6  C   UNL     1       2.821  31.985  26.341  0.00  0.00    +0.000 A 
ATOM      7  C   UNL     1       1.194  31.637  27.787  0.00  0.00    +0.000 A 
ATOM      8  C   UNL     1       3.569  32.421  28.536  0.00  0.00    +0.000 A 
ATOM      9  C   UNL     1       4.916  32.644  26.657  0.00  0.00    +0.000 A 
ATOM     10  H   UNL     1       1.517  31.441  24.740  0.00  0.00    +0.000 HD
ENDROOT
TORSDOF 0
ENDMDL
MODEL 5
REMARK VINA RESULT:      -3.5     23.788     24.212
REMARK  Name = 67499_Pyrazolo.pdbqt.pdb
REMARK  0 active torsions:
REMARK  status: ('A' for Active; 'I' for Inactive)
REMARK                            x       y       z     vdW  Elec       q    Type
REMARK                         _______ _______ _______ _____ _____    ______ ____
ROOT
ATOM      1  N   UNL     1      -6.934  45.863  28.417  0.00  0.00    +0.000 N 
ATOM      2  N   UNL     1      -6.151  44.762  28.450  0.00  0.00    +0.000 NA
ATOM      3  N   UNL     1      -7.416  47.745  26.971  0.00  0.00    +0.000 NA
ATOM      4  N   UNL     1      -6.109  47.673  24.934  0.00  0.00    +0.000 NA
ATOM      5  C   UNL     1      -5.833  45.951  26.526  0.00  0.00    +0.000 A 
ATOM      6  C   UNL     1      -6.779  46.608  27.284  0.00  0.00    +0.000 A 
ATOM      7  C   UNL     1      -5.483  44.825  27.291  0.00  0.00    +0.000 A 
ATOM      8  C   UNL     1      -5.498  46.521  25.306  0.00  0.00    +0.000 A 
ATOM      9  C   UNL     1      -7.019  48.213  25.772  0.00  0.00    +0.000 A 
ATOM     10  H   UNL     1      -7.553  46.054  29.196  0.00  0.00    +0.000 HD
ENDROOT
TORSDOF 0
ENDMDL
MODEL 6
REMARK VINA RESULT:      -3.5     21.813     22.030
REMARK  Name = 67499_Pyrazolo.pdbqt.pdb
REMARK  0 active torsions:
REMARK  status: ('A' for Active; 'I' for Inactive)
REMARK                            x       y       z     vdW  Elec       q    Type
REMARK                         _______ _______ _______ _____ _____    ______ ____
ROOT
ATOM      1  N   UNL     1      -6.092  48.247  24.989  0.00  0.00    +0.000 N 
ATOM      2  N   UNL     1      -5.812  47.055  25.559  0.00  0.00    +0.000 NA
ATOM      3  N   UNL     1      -7.979  49.465  24.082  0.00  0.00    +0.000 NA
ATOM      4  N   UNL     1     -10.028  48.182  24.218  0.00  0.00    +0.000 NA
ATOM      5  C   UNL     1      -8.029  47.226  25.035  0.00  0.00    +0.000 A 
ATOM      6  C   UNL     1      -7.407  48.398  24.657  0.00  0.00    +0.000 A 
ATOM      7  C   UNL     1      -7.001  46.438  25.583  0.00  0.00    +0.000 A 
ATOM      8  C   UNL     1      -9.393  47.133  24.798  0.00  0.00    +0.000 A 
ATOM      9  C   UNL     1      -9.299  49.271  23.898  0.00  0.00    +0.000 A 
ATOM     10  H   UNL     1      -5.345  48.917  24.852  0.00  0.00    +0.000 HD
ENDROOT
TORSDOF 0
ENDMDL
MODEL 7
REMARK VINA RESULT:      -3.4     24.281     25.788
REMARK  Name = 67499_Pyrazolo.pdbqt.pdb
REMARK  0 active torsions:
REMARK  status: ('A' for Active; 'I' for Inactive)
REMARK                            x       y       z     vdW  Elec       q    Type
REMARK                         _______ _______ _______ _____ _____    ______ ____
ROOT
ATOM      1  N   UNL     1       9.336  48.423  10.014  0.00  0.00    +0.000 N 
ATOM      2  N   UNL     1      10.416  47.641  10.227  0.00  0.00    +0.000 NA
ATOM      3  N   UNL     1       7.369  48.517   8.603  0.00  0.00    +0.000 NA
ATOM      4  N   UNL     1       7.266  46.637   7.079  0.00  0.00    +0.000 NA
ATOM      5  C   UNL     1       9.088  46.793   8.573  0.00  0.00    +0.000 A 
ATOM      6  C   UNL     1       8.510  47.958   9.033  0.00  0.00    +0.000 A 
ATOM      7  C   UNL     1      10.256  46.648   9.342  0.00  0.00    +0.000 A 
ATOM      8  C   UNL     1       8.425  46.120   7.556  0.00  0.00    +0.000 A 
ATOM      9  C   UNL     1       6.809  47.786   7.619  0.00  0.00    +0.000 A 
ATOM     10  H   UNL     1       9.215  49.263  10.569  0.00  0.00    +0.000 HD
ENDROOT
TORSDOF 0
ENDMDL
MODEL 8
REMARK VINA RESULT:      -3.4      1.227      3.510
REMARK  Name = 67499_Pyrazolo.pdbqt.pdb
REMARK  0 active torsions:
REMARK  status: ('A' for Active; 'I' for Inactive)
REMARK                            x       y       z     vdW  Elec       q    Type
REMARK                         _______ _______ _______ _____ _____    ______ ____
ROOT
ATOM      1  N   UNL     1     -18.267  41.958   5.635  0.00  0.00    +0.000 N 
ATOM      2  N   UNL     1     -18.453  43.211   5.167  0.00  0.00    +0.000 NA
ATOM      3  N   UNL     1     -16.495  40.328   5.904  0.00  0.00    +0.000 NA
ATOM      4  N   UNL     1     -14.373  41.165   5.090  0.00  0.00    +0.000 NA
ATOM      5  C   UNL     1     -16.275  42.556   4.948  0.00  0.00    +0.000 A 
ATOM      6  C   UNL     1     -16.979  41.521   5.526  0.00  0.00    +0.000 A 
ATOM      7  C   UNL     1     -17.231  43.568   4.749  0.00  0.00    +0.000 A 
ATOM      8  C   UNL     1     -14.920  42.352   4.729  0.00  0.00    +0.000 A 
ATOM      9  C   UNL     1     -15.176  40.235   5.648  0.00  0.00    +0.000 A 
ATOM     10  H   UNL     1     -19.056  41.451   6.018  0.00  0.00    +0.000 HD
ENDROOT
TORSDOF 0
ENDMDL
MODEL 9
REMARK VINA RESULT:      -3.3     32.966     33.525
REMARK  Name = 67499_Pyrazolo.pdbqt.pdb
REMARK  0 active torsions:
REMARK  status: ('A' for Active; 'I' for Inactive)
REMARK                            x       y       z     vdW  Elec       q    Type
REMARK                         _______ _______ _______ _____ _____    ______ ____
ROOT
ATOM      1  N   UNL     1      10.122  48.774  23.421  0.00  0.00    +0.000 N 
ATOM      2  N   UNL     1      11.268  48.214  22.976  0.00  0.00    +0.000 NA
ATOM      3  N   UNL     1       8.650  48.697  25.343  0.00  0.00    +0.000 NA
ATOM      4  N   UNL     1       9.443  47.140  27.020  0.00  0.00    +0.000 NA
ATOM      5  C   UNL     1      10.695  47.411  25.037  0.00  0.00    +0.000 A 
ATOM      6  C   UNL     1       9.737  48.325  24.651  0.00  0.00    +0.000 A 
ATOM      7  C   UNL     1      11.610  47.383  23.970  0.00  0.00    +0.000 A 
ATOM      8  C   UNL     1      10.524  46.805  26.273  0.00  0.00    +0.000 A 
ATOM      9  C   UNL     1       8.581  48.051  26.524  0.00  0.00    +0.000 A 
ATOM     10  H   UNL     1       9.647  49.456  22.841  0.00  0.00    +0.000 HD
ENDROOT
TORSDOF 0
ENDMDL
