MODEL 1
REMARK VINA RESULT:      -4.4      0.000      0.000
REMARK  Name = 71369791_5FluoroDione.pdbqt.pdb
REMARK  1 active torsions:
REMARK  status: ('A' for Active; 'I' for Inactive)
REMARK    1  A    between atoms: N_4  and  C_12
REMARK                            x       y       z     vdW  Elec       q    Type
REMARK                         _______ _______ _______ _____ _____    ______ ____
ROOT
ATOM      1  F   UNL     1     -24.778  42.381  16.975  0.00  0.00    +0.000 F 
ATOM      2  O   UNL     1     -23.743  40.083  21.803  0.00  0.00    +0.000 OA
ATOM      3  O   UNL     1     -24.309  43.898  19.322  0.00  0.00    +0.000 OA
ATOM      4  N   UNL     1     -24.487  39.799  19.578  0.00  0.00    +0.000 N 
ATOM      5  N   UNL     1     -24.137  41.937  20.519  0.00  0.00    +0.000 N 
ATOM      6  C   UNL     1     -24.833  40.489  18.473  0.00  0.00    +0.000 C 
ATOM      7  C   UNL     1     -24.898  41.862  18.208  0.00  0.00    +0.000 C 
ATOM      8  C   UNL     1     -24.098  40.536  20.720  0.00  0.00    +0.000 C 
ATOM      9  C   UNL     1     -24.436  42.681  19.368  0.00  0.00    +0.000 C 
ATOM     10  H   UNL     1     -23.822  42.481  21.310  0.00  0.00    +0.000 HD
ENDROOT
BRANCH   4  12
ATOM     11  O   UNL     1     -25.650  37.695  19.920  0.00  0.00    +0.000 OA
ATOM     12  C   UNL     1     -24.524  38.434  19.536  0.00  0.00    +0.000 C 
ATOM     13  C   UNL     1     -23.513  37.523  19.131  0.00  0.00    +0.000 C 
ATOM     14  C   UNL     1     -23.724  36.008  19.150  0.00  0.00    +0.000 C 
ATOM     15  C   UNL     1     -25.070  36.517  19.662  0.00  0.00    +0.000 C 
ENDBRANCH   4  12
TORSDOF 1
ENDMDL
MODEL 2
REMARK VINA RESULT:      -4.4     15.489     15.993
REMARK  Name = 71369791_5FluoroDione.pdbqt.pdb
REMARK  1 active torsions:
REMARK  status: ('A' for Active; 'I' for Inactive)
REMARK    1  A    between atoms: N_4  and  C_12
REMARK                            x       y       z     vdW  Elec       q    Type
REMARK                         _______ _______ _______ _____ _____    ______ ____
ROOT
ATOM      1  F   UNL     1     -13.979  42.121   5.116  0.00  0.00    +0.000 F 
ATOM      2  O   UNL     1     -19.152  40.593   5.875  0.00  0.00    +0.000 OA
ATOM      3  O   UNL     1     -16.153  43.926   4.909  0.00  0.00    +0.000 OA
ATOM      4  N   UNL     1     -16.906  39.935   5.544  0.00  0.00    +0.000 N 
ATOM      5  N   UNL     1     -17.602  42.179   5.302  0.00  0.00    +0.000 N 
ATOM      6  C   UNL     1     -15.688  40.419   5.231  0.00  0.00    +0.000 C 
ATOM      7  C   UNL     1     -15.244  41.711   4.924  0.00  0.00    +0.000 C 
ATOM      8  C   UNL     1     -17.984  40.848   5.599  0.00  0.00    +0.000 C 
ATOM      9  C   UNL     1     -16.338  42.722   5.030  0.00  0.00    +0.000 C 
ATOM     10  H   UNL     1     -18.351  42.854   5.377  0.00  0.00    +0.000 HD
ENDROOT
BRANCH   4  12
ATOM     11  O   UNL     1     -16.874  37.622   4.805  0.00  0.00    +0.000 OA
ATOM     12  C   UNL     1     -17.035  38.598   5.796  0.00  0.00    +0.000 C 
ATOM     13  C   UNL     1     -17.339  37.943   7.019  0.00  0.00    +0.000 C 
ATOM     14  C   UNL     1     -17.449  36.421   7.124  0.00  0.00    +0.000 C 
ATOM     15  C   UNL     1     -17.115  36.608   5.645  0.00  0.00    +0.000 C 
ENDBRANCH   4  12
TORSDOF 1
ENDMDL
MODEL 3
REMARK VINA RESULT:      -4.3     29.780     30.499
REMARK  Name = 71369791_5FluoroDione.pdbqt.pdb
REMARK  1 active torsions:
REMARK  status: ('A' for Active; 'I' for Inactive)
REMARK    1  A    between atoms: N_4  and  C_12
REMARK                            x       y       z     vdW  Elec       q    Type
REMARK                         _______ _______ _______ _____ _____    ______ ____
ROOT
ATOM      1  F   UNL     1       0.984  35.451   2.857  0.00  0.00    +0.000 F 
ATOM      2  O   UNL     1       1.996  40.728   3.750  0.00  0.00    +0.000 OA
ATOM      3  O   UNL     1       3.446  36.380   3.908  0.00  0.00    +0.000 OA
ATOM      4  N   UNL     1       0.596  39.107   2.750  0.00  0.00    +0.000 N 
ATOM      5  N   UNL     1       2.682  38.544   3.705  0.00  0.00    +0.000 N 
ATOM      6  C   UNL     1       0.515  37.790   2.480  0.00  0.00    +0.000 C 
ATOM      7  C   UNL     1       1.390  36.726   2.731  0.00  0.00    +0.000 C 
ATOM      8  C   UNL     1       1.753  39.573   3.416  0.00  0.00    +0.000 C 
ATOM      9  C   UNL     1       2.600  37.160   3.489  0.00  0.00    +0.000 C 
ATOM     10  H   UNL     1       3.497  38.850   4.218  0.00  0.00    +0.000 HD
ENDROOT
BRANCH   4  12
ATOM     11  O   UNL     1      -1.278  40.551   3.297  0.00  0.00    +0.000 OA
ATOM     12  C   UNL     1      -0.436  39.919   2.373  0.00  0.00    +0.000 C 
ATOM     13  C   UNL     1      -0.862  40.278   1.067  0.00  0.00    +0.000 C 
ATOM     14  C   UNL     1      -2.052  41.207   0.823  0.00  0.00    +0.000 C 
ATOM     15  C   UNL     1      -2.014  41.143   2.349  0.00  0.00    +0.000 C 
ENDBRANCH   4  12
TORSDOF 1
ENDMDL
MODEL 4
REMARK VINA RESULT:      -4.3     15.578     15.938
REMARK  Name = 71369791_5FluoroDione.pdbqt.pdb
REMARK  1 active torsions:
REMARK  status: ('A' for Active; 'I' for Inactive)
REMARK    1  A    between atoms: N_4  and  C_12
REMARK                            x       y       z     vdW  Elec       q    Type
REMARK                         _______ _______ _______ _____ _____    ______ ____
ROOT
ATOM      1  F   UNL     1     -20.853  41.659   3.928  0.00  0.00    +0.000 F 
ATOM      2  O   UNL     1     -15.905  42.833   5.879  0.00  0.00    +0.000 OA
ATOM      3  O   UNL     1     -20.078  44.287   4.649  0.00  0.00    +0.000 OA
ATOM      4  N   UNL     1     -17.490  41.166   5.333  0.00  0.00    +0.000 N 
ATOM      5  N   UNL     1     -18.039  43.464   5.339  0.00  0.00    +0.000 N 
ATOM      6  C   UNL     1     -18.774  40.997   4.963  0.00  0.00    +0.000 C 
ATOM      7  C   UNL     1     -19.813  41.909   4.742  0.00  0.00    +0.000 C 
ATOM      8  C   UNL     1     -17.036  42.488   5.550  0.00  0.00    +0.000 C 
ATOM      9  C   UNL     1     -19.364  43.324   4.899  0.00  0.00    +0.000 C 
ATOM     10  H   UNL     1     -17.723  44.417   5.448  0.00  0.00    +0.000 HD
ENDROOT
BRANCH   4  12
ATOM     11  O   UNL     1     -15.627  39.784   4.616  0.00  0.00    +0.000 OA
ATOM     12  C   UNL     1     -16.697  40.063   5.474  0.00  0.00    +0.000 C 
ATOM     13  C   UNL     1     -16.770  39.027   6.443  0.00  0.00    +0.000 C 
ATOM     14  C   UNL     1     -15.793  37.850   6.454  0.00  0.00    +0.000 C 
ATOM     15  C   UNL     1     -15.298  38.654   5.253  0.00  0.00    +0.000 C 
ENDBRANCH   4  12
TORSDOF 1
ENDMDL
MODEL 5
REMARK VINA RESULT:      -4.3     14.982     15.421
REMARK  Name = 71369791_5FluoroDione.pdbqt.pdb
REMARK  1 active torsions:
REMARK  status: ('A' for Active; 'I' for Inactive)
REMARK    1  A    between atoms: N_4  and  C_12
REMARK                            x       y       z     vdW  Elec       q    Type
REMARK                         _______ _______ _______ _____ _____    ______ ____
ROOT
ATOM      1  F   UNL     1     -17.459  41.911   4.537  0.00  0.00    +0.000 F 
ATOM      2  O   UNL     1     -15.100  37.433   6.547  0.00  0.00    +0.000 OA
ATOM      3  O   UNL     1     -14.647  41.582   4.646  0.00  0.00    +0.000 OA
ATOM      4  N   UNL     1     -17.076  38.706   6.299  0.00  0.00    +0.000 N 
ATOM      5  N   UNL     1     -14.956  39.550   5.688  0.00  0.00    +0.000 N 
ATOM      6  C   UNL     1     -17.526  39.903   5.876  0.00  0.00    +0.000 C 
ATOM      7  C   UNL     1     -16.866  41.019   5.348  0.00  0.00    +0.000 C 
ATOM      8  C   UNL     1     -15.686  38.460   6.220  0.00  0.00    +0.000 C 
ATOM      9  C   UNL     1     -15.401  40.782   5.187  0.00  0.00    +0.000 C 
ATOM     10  H   UNL     1     -13.965  39.378   5.584  0.00  0.00    +0.000 HD
ENDROOT
BRANCH   4  12
ATOM     11  O   UNL     1     -17.592  36.608   7.408  0.00  0.00    +0.000 OA
ATOM     12  C   UNL     1     -17.977  37.798   6.777  0.00  0.00    +0.000 C 
ATOM     13  C   UNL     1     -19.396  37.843   6.745  0.00  0.00    +0.000 C 
ATOM     14  C   UNL     1     -20.263  36.726   7.330  0.00  0.00    +0.000 C 
ATOM     15  C   UNL     1     -18.853  36.209   7.612  0.00  0.00    +0.000 C 
ENDBRANCH   4  12
TORSDOF 1
ENDMDL
MODEL 6
REMARK VINA RESULT:      -4.2     25.473     26.590
REMARK  Name = 71369791_5FluoroDione.pdbqt.pdb
REMARK  1 active torsions:
REMARK  status: ('A' for Active; 'I' for Inactive)
REMARK    1  A    between atoms: N_4  and  C_12
REMARK                            x       y       z     vdW  Elec       q    Type
REMARK                         _______ _______ _______ _____ _____    ______ ____
ROOT
ATOM      1  F   UNL     1      -1.291  44.228  32.258  0.00  0.00    +0.000 F 
ATOM      2  O   UNL     1       1.291  45.400  27.608  0.00  0.00    +0.000 OA
ATOM      3  O   UNL     1       1.260  43.175  31.618  0.00  0.00    +0.000 OA
ATOM      4  N   UNL     1      -0.723  45.470  28.843  0.00  0.00    +0.000 N 
ATOM      5  N   UNL     1       1.157  44.244  29.580  0.00  0.00    +0.000 N 
ATOM      6  C   UNL     1      -1.294  45.019  29.976  0.00  0.00    +0.000 C 
ATOM      7  C   UNL     1      -0.818  44.192  31.001  0.00  0.00    +0.000 C 
ATOM      8  C   UNL     1       0.610  45.081  28.577  0.00  0.00    +0.000 C 
ATOM      9  C   UNL     1       0.609  43.805  30.794  0.00  0.00    +0.000 C 
ATOM     10  H   UNL     1       2.123  43.989  29.429  0.00  0.00    +0.000 HD
ENDROOT
BRANCH   4  12
ATOM     11  O   UNL     1      -1.071  47.591  27.712  0.00  0.00    +0.000 OA
ATOM     12  C   UNL     1      -1.452  46.278  28.018  0.00  0.00    +0.000 C 
ATOM     13  C   UNL     1      -2.666  45.999  27.336  0.00  0.00    +0.000 C 
ATOM     14  C   UNL     1      -3.357  47.031  26.443  0.00  0.00    +0.000 C 
ATOM     15  C   UNL     1      -2.131  47.805  26.923  0.00  0.00    +0.000 C 
ENDBRANCH   4  12
TORSDOF 1
ENDMDL
MODEL 7
REMARK VINA RESULT:      -4.2     35.524     36.089
REMARK  Name = 71369791_5FluoroDione.pdbqt.pdb
REMARK  1 active torsions:
REMARK  status: ('A' for Active; 'I' for Inactive)
REMARK    1  A    between atoms: N_4  and  C_12
REMARK                            x       y       z     vdW  Elec       q    Type
REMARK                         _______ _______ _______ _____ _____    ______ ____
ROOT
ATOM      1  F   UNL     1      11.372  41.486   7.938  0.00  0.00    +0.000 F 
ATOM      2  O   UNL     1       8.159  38.367  11.038  0.00  0.00    +0.000 OA
ATOM      3  O   UNL     1       8.606  42.001   8.276  0.00  0.00    +0.000 OA
ATOM      4  N   UNL     1      10.246  38.627   9.959  0.00  0.00    +0.000 N 
ATOM      5  N   UNL     1       8.442  40.104   9.573  0.00  0.00    +0.000 N 
ATOM      6  C   UNL     1      10.902  39.413   9.084  0.00  0.00    +0.000 C 
ATOM      7  C   UNL     1      10.509  40.550   8.367  0.00  0.00    +0.000 C 
ATOM      8  C   UNL     1       8.905  38.956  10.263  0.00  0.00    +0.000 C 
ATOM      9  C   UNL     1       9.117  40.973   8.704  0.00  0.00    +0.000 C 
ATOM     10  H   UNL     1       7.500  40.380   9.809  0.00  0.00    +0.000 HD
ENDROOT
BRANCH   4  12
ATOM     11  O   UNL     1      10.573  36.234  10.213  0.00  0.00    +0.000 OA
ATOM     12  C   UNL     1      10.904  37.563  10.507  0.00  0.00    +0.000 C 
ATOM     13  C   UNL     1      11.986  37.557  11.427  0.00  0.00    +0.000 C 
ATOM     14  C   UNL     1      12.610  36.260  11.945  0.00  0.00    +0.000 C 
ATOM     15  C   UNL     1      11.521  35.732  11.014  0.00  0.00    +0.000 C 
ENDBRANCH   4  12
TORSDOF 1
ENDMDL
MODEL 8
REMARK VINA RESULT:      -4.2     20.057     20.976
REMARK  Name = 71369791_5FluoroDione.pdbqt.pdb
REMARK  1 active torsions:
REMARK  status: ('A' for Active; 'I' for Inactive)
REMARK    1  A    between atoms: N_4  and  C_12
REMARK                            x       y       z     vdW  Elec       q    Type
REMARK                         _______ _______ _______ _____ _____    ______ ____
ROOT
ATOM      1  F   UNL     1      -8.770  48.384  28.825  0.00  0.00    +0.000 F 
ATOM      2  O   UNL     1      -6.430  48.788  23.923  0.00  0.00    +0.000 OA
ATOM      3  O   UNL     1      -9.607  50.268  26.881  0.00  0.00    +0.000 OA
ATOM      4  N   UNL     1      -6.331  47.906  26.114  0.00  0.00    +0.000 N 
ATOM      5  N   UNL     1      -7.922  49.536  25.490  0.00  0.00    +0.000 N 
ATOM      6  C   UNL     1      -6.924  47.981  27.321  0.00  0.00    +0.000 C 
ATOM      7  C   UNL     1      -7.992  48.754  27.794  0.00  0.00    +0.000 C 
ATOM      8  C   UNL     1      -6.833  48.729  25.080  0.00  0.00    +0.000 C 
ATOM      9  C   UNL     1      -8.596  49.595  26.719  0.00  0.00    +0.000 C 
ATOM     10  H   UNL     1      -8.322  50.101  24.754  0.00  0.00    +0.000 HD
ENDROOT
BRANCH   4  12
ATOM     11  O   UNL     1      -3.997  47.311  26.430  0.00  0.00    +0.000 OA
ATOM     12  C   UNL     1      -5.285  47.042  25.950  0.00  0.00    +0.000 C 
ATOM     13  C   UNL     1      -5.262  45.776  25.307  0.00  0.00    +0.000 C 
ATOM     14  C   UNL     1      -3.990  44.932  25.211  0.00  0.00    +0.000 C 
ATOM     15  C   UNL     1      -3.493  46.159  25.973  0.00  0.00    +0.000 C 
ENDBRANCH   4  12
TORSDOF 1
ENDMDL
MODEL 9
REMARK VINA RESULT:      -4.1     31.781     32.751
REMARK  Name = 71369791_5FluoroDione.pdbqt.pdb
REMARK  1 active torsions:
REMARK  status: ('A' for Active; 'I' for Inactive)
REMARK    1  A    between atoms: N_4  and  C_12
REMARK                            x       y       z     vdW  Elec       q    Type
REMARK                         _______ _______ _______ _____ _____    ______ ____
ROOT
ATOM      1  F   UNL     1       6.935  54.998  18.980  0.00  0.00    +0.000 F 
ATOM      2  O   UNL     1       1.882  56.351  17.463  0.00  0.00    +0.000 OA
ATOM      3  O   UNL     1       5.237  56.606  20.580  0.00  0.00    +0.000 OA
ATOM      4  N   UNL     1       3.976  55.446  16.842  0.00  0.00    +0.000 N 
ATOM      5  N   UNL     1       3.638  56.512  18.923  0.00  0.00    +0.000 N 
ATOM      6  C   UNL     1       5.236  55.273  17.287  0.00  0.00    +0.000 C 
ATOM      7  C   UNL     1       5.868  55.643  18.480  0.00  0.00    +0.000 C 
ATOM      8  C   UNL     1       3.064  56.113  17.692  0.00  0.00    +0.000 C 
ATOM      9  C   UNL     1       4.926  56.297  19.436  0.00  0.00    +0.000 C 
ATOM     10  H   UNL     1       2.992  56.954  19.561  0.00  0.00    +0.000 HD
ENDROOT
BRANCH   4  12
ATOM     11  O   UNL     1       3.385  53.613  15.362  0.00  0.00    +0.000 OA
ATOM     12  C   UNL     1       3.645  54.968  15.606  0.00  0.00    +0.000 C 
ATOM     13  C   UNL     1       3.502  55.674  14.382  0.00  0.00    +0.000 C 
ATOM     14  C   UNL     1       3.124  54.974  13.075  0.00  0.00    +0.000 C 
ATOM     15  C   UNL     1       3.146  53.806  14.060  0.00  0.00    +0.000 C 
ENDBRANCH   4  12
TORSDOF 1
ENDMDL
