MODEL 1
REMARK VINA RESULT:      -3.0      0.000      0.000
REMARK  Name = 7288_3Pentanone.pdbqt.pdb
REMARK  2 active torsions:
REMARK  status: ('A' for Active; 'I' for Inactive)
REMARK    1  A    between atoms: C_2  and  C_3
REMARK    2  A    between atoms: C_2  and  C_5
REMARK                            x       y       z     vdW  Elec       q    Type
REMARK                         _______ _______ _______ _____ _____    ______ ____
ROOT
ATOM      1  O   UNL     1      -4.094  44.119  25.035  0.00  0.00    +0.000 OA
ATOM      2  C   UNL     1      -4.233  45.253  25.478  0.00  0.00    +0.000 C 
ENDROOT
BRANCH   2   3
ATOM      3  C   UNL     1      -5.541  45.854  25.582  0.00  0.00    +0.000 C 
ATOM      4  C   UNL     1      -6.928  46.517  25.693  0.00  0.00    +0.000 C 
ENDBRANCH   2   3
BRANCH   2   5
ATOM      5  C   UNL     1      -3.091  46.024  25.909  0.00  0.00    +0.000 C 
ATOM      6  C   UNL     1      -1.861  46.845  26.348  0.00  0.00    +0.000 C 
ENDBRANCH   2   5
TORSDOF 2
ENDMDL
MODEL 2
REMARK VINA RESULT:      -2.8     14.301     15.447
REMARK  Name = 7288_3Pentanone.pdbqt.pdb
REMARK  2 active torsions:
REMARK  status: ('A' for Active; 'I' for Inactive)
REMARK    1  A    between atoms: C_2  and  C_3
REMARK    2  A    between atoms: C_2  and  C_5
REMARK                            x       y       z     vdW  Elec       q    Type
REMARK                         _______ _______ _______ _____ _____    ______ ____
ROOT
ATOM      1  O   UNL     1       6.257  52.847  15.348  0.00  0.00    +0.000 OA
ATOM      2  C   UNL     1       5.891  53.324  16.415  0.00  0.00    +0.000 C 
ENDROOT
BRANCH   2   3
ATOM      3  C   UNL     1       4.506  53.260  16.819  0.00  0.00    +0.000 C 
ATOM      4  C   UNL     1       3.025  53.215  17.242  0.00  0.00    +0.000 C 
ENDBRANCH   2   3
BRANCH   2   5
ATOM      5  C   UNL     1       6.833  53.965  17.302  0.00  0.00    +0.000 C 
ATOM      6  C   UNL     1       7.843  54.666  18.233  0.00  0.00    +0.000 C 
ENDBRANCH   2   5
TORSDOF 2
ENDMDL
MODEL 3
REMARK VINA RESULT:      -2.8     18.600     18.643
REMARK  Name = 7288_3Pentanone.pdbqt.pdb
REMARK  2 active torsions:
REMARK  status: ('A' for Active; 'I' for Inactive)
REMARK    1  A    between atoms: C_2  and  C_3
REMARK    2  A    between atoms: C_2  and  C_5
REMARK                            x       y       z     vdW  Elec       q    Type
REMARK                         _______ _______ _______ _____ _____    ______ ____
ROOT
ATOM      1  O   UNL     1       0.488  28.378  21.482  0.00  0.00    +0.000 OA
ATOM      2  C   UNL     1      -0.231  28.467  20.494  0.00  0.00    +0.000 C 
ENDROOT
BRANCH   2   3
ATOM      3  C   UNL     1      -1.616  28.064  20.547  0.00  0.00    +0.000 C 
ATOM      4  C   UNL     1      -3.088  27.611  20.599  0.00  0.00    +0.000 C 
ENDBRANCH   2   3
BRANCH   2   5
ATOM      5  C   UNL     1       0.285  28.976  19.245  0.00  0.00    +0.000 C 
ATOM      6  C   UNL     1       0.835  29.499  17.903  0.00  0.00    +0.000 C 
ENDBRANCH   2   5
TORSDOF 2
ENDMDL
MODEL 4
REMARK VINA RESULT:      -2.7     23.594     23.799
REMARK  Name = 7288_3Pentanone.pdbqt.pdb
REMARK  2 active torsions:
REMARK  status: ('A' for Active; 'I' for Inactive)
REMARK    1  A    between atoms: C_2  and  C_3
REMARK    2  A    between atoms: C_2  and  C_5
REMARK                            x       y       z     vdW  Elec       q    Type
REMARK                         _______ _______ _______ _____ _____    ______ ____
ROOT
ATOM      1  O   UNL     1     -14.539  37.264   6.337  0.00  0.00    +0.000 OA
ATOM      2  C   UNL     1     -15.494  38.031   6.343  0.00  0.00    +0.000 C 
ENDROOT
BRANCH   2   3
ATOM      3  C   UNL     1     -16.784  37.605   6.832  0.00  0.00    +0.000 C 
ATOM      4  C   UNL     1     -18.154  37.127   7.351  0.00  0.00    +0.000 C 
ENDBRANCH   2   3
BRANCH   2   5
ATOM      5  C   UNL     1     -15.359  39.386   5.861  0.00  0.00    +0.000 C 
ATOM      6  C   UNL     1     -15.213  40.840   5.369  0.00  0.00    +0.000 C 
ENDBRANCH   2   5
TORSDOF 2
ENDMDL
MODEL 5
REMARK VINA RESULT:      -2.7     14.769     15.761
REMARK  Name = 7288_3Pentanone.pdbqt.pdb
REMARK  2 active torsions:
REMARK  status: ('A' for Active; 'I' for Inactive)
REMARK    1  A    between atoms: C_2  and  C_3
REMARK    2  A    between atoms: C_2  and  C_5
REMARK                            x       y       z     vdW  Elec       q    Type
REMARK                         _______ _______ _______ _____ _____    ______ ____
ROOT
ATOM      1  O   UNL     1       5.653  53.168  15.270  0.00  0.00    +0.000 OA
ATOM      2  C   UNL     1       4.534  53.665  15.309  0.00  0.00    +0.000 C 
ENDROOT
BRANCH   2   3
ATOM      3  C   UNL     1       3.725  53.577  16.501  0.00  0.00    +0.000 C 
ATOM      4  C   UNL     1       2.863  53.458  17.773  0.00  0.00    +0.000 C 
ENDBRANCH   2   3
BRANCH   2   5
ATOM      5  C   UNL     1       3.989  54.354  14.163  0.00  0.00    +0.000 C 
ATOM      6  C   UNL     1       3.385  55.086  12.948  0.00  0.00    +0.000 C 
ENDBRANCH   2   5
TORSDOF 2
ENDMDL
MODEL 6
REMARK VINA RESULT:      -2.7     23.559     23.773
REMARK  Name = 7288_3Pentanone.pdbqt.pdb
REMARK  2 active torsions:
REMARK  status: ('A' for Active; 'I' for Inactive)
REMARK    1  A    between atoms: C_2  and  C_3
REMARK    2  A    between atoms: C_2  and  C_5
REMARK                            x       y       z     vdW  Elec       q    Type
REMARK                         _______ _______ _______ _____ _____    ______ ____
ROOT
ATOM      1  O   UNL     1     -14.627  40.363   5.463  0.00  0.00    +0.000 OA
ATOM      2  C   UNL     1     -15.770  40.280   5.895  0.00  0.00    +0.000 C 
ENDROOT
BRANCH   2   3
ATOM      3  C   UNL     1     -16.306  39.014   6.335  0.00  0.00    +0.000 C 
ATOM      4  C   UNL     1     -16.883  37.671   6.826  0.00  0.00    +0.000 C 
ENDBRANCH   2   3
BRANCH   2   5
ATOM      5  C   UNL     1     -16.618  41.446   5.979  0.00  0.00    +0.000 C 
ATOM      6  C   UNL     1     -17.509  42.703   6.051  0.00  0.00    +0.000 C 
ENDBRANCH   2   5
TORSDOF 2
ENDMDL
MODEL 7
REMARK VINA RESULT:      -2.6     23.308     23.825
REMARK  Name = 7288_3Pentanone.pdbqt.pdb
REMARK  2 active torsions:
REMARK  status: ('A' for Active; 'I' for Inactive)
REMARK    1  A    between atoms: C_2  and  C_3
REMARK    2  A    between atoms: C_2  and  C_5
REMARK                            x       y       z     vdW  Elec       q    Type
REMARK                         _______ _______ _______ _____ _____    ______ ____
ROOT
ATOM      1  O   UNL     1     -17.850  39.344   6.096  0.00  0.00    +0.000 OA
ATOM      2  C   UNL     1     -16.651  39.592   6.063  0.00  0.00    +0.000 C 
ENDROOT
BRANCH   2   3
ATOM      3  C   UNL     1     -16.176  40.954   6.021  0.00  0.00    +0.000 C 
ATOM      4  C   UNL     1     -15.665  42.408   6.000  0.00  0.00    +0.000 C 
ENDBRANCH   2   3
BRANCH   2   5
ATOM      5  C   UNL     1     -15.675  38.528   6.064  0.00  0.00    +0.000 C 
ATOM      6  C   UNL     1     -14.616  37.407   6.076  0.00  0.00    +0.000 C 
ENDBRANCH   2   5
TORSDOF 2
ENDMDL
MODEL 8
REMARK VINA RESULT:      -2.5     23.980     24.643
REMARK  Name = 7288_3Pentanone.pdbqt.pdb
REMARK  2 active torsions:
REMARK  status: ('A' for Active; 'I' for Inactive)
REMARK    1  A    between atoms: C_2  and  C_3
REMARK    2  A    between atoms: C_2  and  C_5
REMARK                            x       y       z     vdW  Elec       q    Type
REMARK                         _______ _______ _______ _____ _____    ______ ____
ROOT
ATOM      1  O   UNL     1     -19.167  37.830   7.760  0.00  0.00    +0.000 OA
ATOM      2  C   UNL     1     -18.262  37.051   7.487  0.00  0.00    +0.000 C 
ENDROOT
BRANCH   2   3
ATOM      3  C   UNL     1     -18.414  35.633   7.712  0.00  0.00    +0.000 C 
ATOM      4  C   UNL     1     -18.597  34.119   7.940  0.00  0.00    +0.000 C 
ENDBRANCH   2   3
BRANCH   2   5
ATOM      5  C   UNL     1     -17.017  37.525   6.933  0.00  0.00    +0.000 C 
ATOM      6  C   UNL     1     -15.683  38.012   6.330  0.00  0.00    +0.000 C 
ENDBRANCH   2   5
TORSDOF 2
ENDMDL
MODEL 9
REMARK VINA RESULT:      -2.4     23.987     24.701
REMARK  Name = 7288_3Pentanone.pdbqt.pdb
REMARK  2 active torsions:
REMARK  status: ('A' for Active; 'I' for Inactive)
REMARK    1  A    between atoms: C_2  and  C_3
REMARK    2  A    between atoms: C_2  and  C_5
REMARK                            x       y       z     vdW  Elec       q    Type
REMARK                         _______ _______ _______ _____ _____    ______ ____
ROOT
ATOM      1  O   UNL     1     -18.208  35.852   7.965  0.00  0.00    +0.000 OA
ATOM      2  C   UNL     1     -18.116  36.961   7.453  0.00  0.00    +0.000 C 
ENDROOT
BRANCH   2   3
ATOM      3  C   UNL     1     -16.875  37.405   6.864  0.00  0.00    +0.000 C 
ATOM      4  C   UNL     1     -15.541  37.884   6.258  0.00  0.00    +0.000 C 
ENDBRANCH   2   3
BRANCH   2   5
ATOM      5  C   UNL     1     -19.247  37.859   7.422  0.00  0.00    +0.000 C 
ATOM      6  C   UNL     1     -20.464  38.804   7.406  0.00  0.00    +0.000 C 
ENDBRANCH   2   5
TORSDOF 2
ENDMDL
