MODEL 1
REMARK VINA RESULT:      -8.5      0.000      0.000
REMARK  Name = 73299_Hederagenin.pdbqt.pdb
REMARK  5 active torsions:
REMARK  status: ('A' for Active; 'I' for Inactive)
REMARK    1  A    between atoms: C_9  and  C_35
REMARK    2  A    between atoms: C_14  and  C_32
REMARK    3  A    between atoms: C_17  and  O_29
REMARK    4  A    between atoms: C_32  and  O_33
REMARK    5  A    between atoms: C_35  and  O_36
REMARK                            x       y       z     vdW  Elec       q    Type
REMARK                         _______ _______ _______ _____ _____    ______ ____
ROOT
ATOM      1  C   UNL     1      -2.803  47.278  27.122  0.00  0.00    +0.000 C 
ATOM      2  C   UNL     1      -4.131  46.412  27.114  0.00  0.00    +0.000 C 
ATOM      3  C   UNL     1      -5.445  46.887  26.484  0.00  0.00    +0.000 C 
ATOM      4  C   UNL     1      -1.992  47.167  28.561  0.00  0.00    +0.000 C 
ATOM      5  C   UNL     1      -5.752  48.412  26.550  0.00  0.00    +0.000 C 
ATOM      6  C   UNL     1      -3.236  48.656  26.862  0.00  0.00    +0.000 C 
ATOM      7  C   UNL     1      -4.588  49.229  26.595  0.00  0.00    +0.000 C 
ATOM      8  C   UNL     1      -1.815  45.628  29.049  0.00  0.00    +0.000 C 
ATOM      9  C   UNL     1      -7.156  48.976  26.819  0.00  0.00    +0.000 C 
ATOM     10  C   UNL     1      -0.584  45.068  29.648  0.00  0.00    +0.000 C 
ATOM     11  C   UNL     1      -3.981  45.184  27.833  0.00  0.00    +0.000 C 
ATOM     12  C   UNL     1      -6.574  46.244  27.151  0.00  0.00    +0.000 C 
ATOM     13  C   UNL     1      -0.607  47.670  28.497  0.00  0.00    +0.000 C 
ATOM     14  C   UNL     1       0.928  45.620  29.282  0.00  0.00    +0.000 C 
ATOM     15  C   UNL     1      -1.914  46.757  25.920  0.00  0.00    +0.000 C 
ATOM     16  C   UNL     1       0.700  46.997  28.845  0.00  0.00    +0.000 C 
ATOM     17  C   UNL     1      -8.306  47.975  27.111  0.00  0.00    +0.000 C 
ATOM     18  C   UNL     1      -2.821  44.864  28.733  0.00  0.00    +0.000 C 
ATOM     19  C   UNL     1      -5.419  46.486  24.987  0.00  0.00    +0.000 C 
ATOM     20  C   UNL     1      -7.967  46.661  27.483  0.00  0.00    +0.000 C 
ATOM     21  C   UNL     1      -2.768  47.891  29.746  0.00  0.00    +0.000 C 
ATOM     22  C   UNL     1      -0.692  44.411  30.951  0.00  0.00    +0.000 C 
ATOM     23  C   UNL     1       1.688  45.460  30.550  0.00  0.00    +0.000 C 
ATOM     24  C   UNL     1       0.024  44.120  32.250  0.00  0.00    +0.000 C 
ATOM     25  C   UNL     1      -7.587  49.855  25.599  0.00  0.00    +0.000 C 
ATOM     26  C   UNL     1       1.324  44.776  31.894  0.00  0.00    +0.000 C 
ATOM     27  C   UNL     1      -0.665  44.821  33.435  0.00  0.00    +0.000 C 
ATOM     28  C   UNL     1       0.188  42.607  32.477  0.00  0.00    +0.000 C 
ENDROOT
BRANCH  17  29
ATOM     29  O   UNL     1      -9.608  48.247  26.729  0.00  0.00    +0.000 OA
ATOM     30  H   UNL     1     -10.029  47.455  26.334  0.00  0.00    +0.000 HD
ENDBRANCH  17  29
BRANCH  14  32
ATOM     31  O   UNL     1       1.577  44.986  26.992  0.00  0.00    +0.000 OA
ATOM     32  C   UNL     1       1.496  44.714  28.182  0.00  0.00    +0.000 C 
BRANCH  32  33
ATOM     33  O   UNL     1       1.867  43.487  28.608  0.00  0.00    +0.000 OA
ATOM     34  H   UNL     1       1.089  42.912  28.440  0.00  0.00    +0.000 HD
ENDBRANCH  32  33
ENDBRANCH  14  32
BRANCH   9  35
ATOM     35  C   UNL     1      -7.071  49.837  28.041  0.00  0.00    +0.000 C 
BRANCH  35  36
ATOM     36  O   UNL     1      -6.984  50.614  29.125  0.00  0.00    +0.000 OA
ATOM     37  H   UNL     1      -6.768  51.533  28.882  0.00  0.00    +0.000 HD
ENDBRANCH  35  36
ENDBRANCH   9  35
TORSDOF 5
ENDMDL
MODEL 2
REMARK VINA RESULT:      -8.5      2.062      8.620
REMARK  Name = 73299_Hederagenin.pdbqt.pdb
REMARK  5 active torsions:
REMARK  status: ('A' for Active; 'I' for Inactive)
REMARK    1  A    between atoms: C_9  and  C_35
REMARK    2  A    between atoms: C_14  and  C_32
REMARK    3  A    between atoms: C_17  and  O_29
REMARK    4  A    between atoms: C_32  and  O_33
REMARK    5  A    between atoms: C_35  and  O_36
REMARK                            x       y       z     vdW  Elec       q    Type
REMARK                         _______ _______ _______ _____ _____    ______ ____
ROOT
ATOM      1  C   UNL     1      -4.619  46.461  26.987  0.00  0.00    +0.000 C 
ATOM      2  C   UNL     1      -3.345  47.405  26.959  0.00  0.00    +0.000 C 
ATOM      3  C   UNL     1      -1.950  46.954  27.407  0.00  0.00    +0.000 C 
ATOM      4  C   UNL     1      -5.977  47.258  27.499  0.00  0.00    +0.000 C 
ATOM      5  C   UNL     1      -1.878  45.923  28.571  0.00  0.00    +0.000 C 
ATOM      6  C   UNL     1      -4.271  45.366  27.900  0.00  0.00    +0.000 C 
ATOM      7  C   UNL     1      -3.019  45.077  28.658  0.00  0.00    +0.000 C 
ATOM      8  C   UNL     1      -6.183  48.674  26.730  0.00  0.00    +0.000 C 
ATOM      9  C   UNL     1      -0.821  45.987  29.686  0.00  0.00    +0.000 C 
ATOM     10  C   UNL     1      -7.482  49.188  26.242  0.00  0.00    +0.000 C 
ATOM     11  C   UNL     1      -3.667  48.738  26.552  0.00  0.00    +0.000 C 
ATOM     12  C   UNL     1      -1.184  48.106  27.872  0.00  0.00    +0.000 C 
ATOM     13  C   UNL     1      -7.228  46.529  27.221  0.00  0.00    +0.000 C 
ATOM     14  C   UNL     1      -8.713  48.205  25.751  0.00  0.00    +0.000 C 
ATOM     15  C   UNL     1      -4.802  45.901  25.518  0.00  0.00    +0.000 C 
ATOM     16  C   UNL     1      -8.467  46.954  26.468  0.00  0.00    +0.000 C 
ATOM     17  C   UNL     1       0.173  47.178  29.687  0.00  0.00    +0.000 C 
ATOM     18  C   UNL     1      -5.066  49.276  26.441  0.00  0.00    +0.000 C 
ATOM     19  C   UNL     1      -1.249  46.314  26.181  0.00  0.00    +0.000 C 
ATOM     20  C   UNL     1      -0.149  48.316  28.926  0.00  0.00    +0.000 C 
ATOM     21  C   UNL     1      -5.909  47.631  29.044  0.00  0.00    +0.000 C 
ATOM     22  C   UNL     1      -7.905  50.517  26.686  0.00  0.00    +0.000 C 
ATOM     23  C   UNL     1      -9.943  48.944  26.143  0.00  0.00    +0.000 C 
ATOM     24  C   UNL     1      -9.096  51.382  27.029  0.00  0.00    +0.000 C 
ATOM     25  C   UNL     1       0.015  44.665  29.660  0.00  0.00    +0.000 C 
ATOM     26  C   UNL     1     -10.155  50.376  26.700  0.00  0.00    +0.000 C 
ATOM     27  C   UNL     1      -9.102  51.753  28.523  0.00  0.00    +0.000 C 
ATOM     28  C   UNL     1      -9.175  52.619  26.117  0.00  0.00    +0.000 C 
ENDROOT
BRANCH  17  29
ATOM     29  O   UNL     1       1.468  47.030  30.154  0.00  0.00    +0.000 OA
ATOM     30  H   UNL     1       1.586  46.158  30.586  0.00  0.00    +0.000 HD
ENDBRANCH  17  29
BRANCH  14  32
ATOM     31  O   UNL     1      -7.995  48.807  23.473  0.00  0.00    +0.000 OA
ATOM     32  C   UNL     1      -8.616  48.069  24.227  0.00  0.00    +0.000 C 
BRANCH  32  33
ATOM     33  O   UNL     1      -9.357  47.064  23.709  0.00  0.00    +0.000 OA
ATOM     34  H   UNL     1      -8.723  46.331  23.556  0.00  0.00    +0.000 HD
ENDBRANCH  32  33
ENDBRANCH  14  32
BRANCH   9  35
ATOM     35  C   UNL     1      -1.548  46.085  30.992  0.00  0.00    +0.000 C 
BRANCH  35  36
ATOM     36  O   UNL     1      -2.205  46.163  32.152  0.00  0.00    +0.000 OA
ATOM     37  H   UNL     1      -2.748  46.972  32.194  0.00  0.00    +0.000 HD
ENDBRANCH  35  36
ENDBRANCH   9  35
TORSDOF 5
ENDMDL
MODEL 3
REMARK VINA RESULT:      -7.8      2.034      3.733
REMARK  Name = 73299_Hederagenin.pdbqt.pdb
REMARK  5 active torsions:
REMARK  status: ('A' for Active; 'I' for Inactive)
REMARK    1  A    between atoms: C_9  and  C_35
REMARK    2  A    between atoms: C_14  and  C_32
REMARK    3  A    between atoms: C_17  and  O_29
REMARK    4  A    between atoms: C_32  and  O_33
REMARK    5  A    between atoms: C_35  and  O_36
REMARK                            x       y       z     vdW  Elec       q    Type
REMARK                         _______ _______ _______ _____ _____    ______ ____
ROOT
ATOM      1  C   UNL     1      -3.665  46.300  27.314  0.00  0.00    +0.000 C 
ATOM      2  C   UNL     1      -4.800  47.168  28.003  0.00  0.00    +0.000 C 
ATOM      3  C   UNL     1      -6.264  47.154  27.551  0.00  0.00    +0.000 C 
ATOM      4  C   UNL     1      -2.244  47.135  27.163  0.00  0.00    +0.000 C 
ATOM      5  C   UNL     1      -6.534  46.953  26.031  0.00  0.00    +0.000 C 
ATOM      6  C   UNL     1      -4.204  45.928  26.001  0.00  0.00    +0.000 C 
ATOM      7  C   UNL     1      -5.523  46.209  25.362  0.00  0.00    +0.000 C 
ATOM      8  C   UNL     1      -1.810  47.864  28.548  0.00  0.00    +0.000 C 
ATOM      9  C   UNL     1      -7.633  47.709  25.265  0.00  0.00    +0.000 C 
ATOM     10  C   UNL     1      -0.430  47.915  29.080  0.00  0.00    +0.000 C 
ATOM     11  C   UNL     1      -4.282  48.020  29.029  0.00  0.00    +0.000 C 
ATOM     12  C   UNL     1      -6.896  48.427  27.883  0.00  0.00    +0.000 C 
ATOM     13  C   UNL     1      -1.087  46.276  26.848  0.00  0.00    +0.000 C 
ATOM     14  C   UNL     1       0.685  46.730  28.805  0.00  0.00    +0.000 C 
ATOM     15  C   UNL     1      -3.478  45.006  28.207  0.00  0.00    +0.000 C 
ATOM     16  C   UNL     1       0.237  46.112  27.558  0.00  0.00    +0.000 C 
ATOM     17  C   UNL     1      -8.460  48.775  26.032  0.00  0.00    +0.000 C 
ATOM     18  C   UNL     1      -2.821  48.292  29.248  0.00  0.00    +0.000 C 
ATOM     19  C   UNL     1      -6.976  46.000  28.302  0.00  0.00    +0.000 C 
ATOM     20  C   UNL     1      -7.950  49.269  27.245  0.00  0.00    +0.000 C 
ATOM     21  C   UNL     1      -2.345  48.306  26.092  0.00  0.00    +0.000 C 
ATOM     22  C   UNL     1       0.140  49.228  29.385  0.00  0.00    +0.000 C 
ATOM     23  C   UNL     1       1.979  47.461  28.737  0.00  0.00    +0.000 C 
ATOM     24  C   UNL     1       1.414  50.039  29.431  0.00  0.00    +0.000 C 
ATOM     25  C   UNL     1      -8.634  46.667  24.665  0.00  0.00    +0.000 C 
ATOM     26  C   UNL     1       2.348  48.939  29.030  0.00  0.00    +0.000 C 
ATOM     27  C   UNL     1       1.387  51.175  28.392  0.00  0.00    +0.000 C 
ATOM     28  C   UNL     1       1.705  50.551  30.853  0.00  0.00    +0.000 C 
ENDROOT
BRANCH  17  29
ATOM     29  O   UNL     1      -9.787  49.016  25.716  0.00  0.00    +0.000 OA
ATOM     30  H   UNL     1      -9.874  49.825  25.170  0.00  0.00    +0.000 HD
ENDBRANCH  17  29
BRANCH  14  32
ATOM     31  O   UNL     1       1.336  45.870  31.020  0.00  0.00    +0.000 OA
ATOM     32  C   UNL     1       0.654  45.779  30.008  0.00  0.00    +0.000 C 
BRANCH  32  33
ATOM     33  O   UNL     1      -0.171  44.719  29.859  0.00  0.00    +0.000 OA
ATOM     34  H   UNL     1      -0.563  44.824  28.965  0.00  0.00    +0.000 HD
ENDBRANCH  32  33
ENDBRANCH  14  32
BRANCH   9  35
ATOM     35  C   UNL     1      -6.972  48.457  24.149  0.00  0.00    +0.000 C 
BRANCH  35  36
ATOM     36  O   UNL     1      -6.378  49.112  23.148  0.00  0.00    +0.000 OA
ATOM     37  H   UNL     1      -6.820  49.963  22.974  0.00  0.00    +0.000 HD
ENDBRANCH  35  36
ENDBRANCH   9  35
TORSDOF 5
ENDMDL
MODEL 4
REMARK VINA RESULT:      -6.8     26.979     29.558
REMARK  Name = 73299_Hederagenin.pdbqt.pdb
REMARK  5 active torsions:
REMARK  status: ('A' for Active; 'I' for Inactive)
REMARK    1  A    between atoms: C_9  and  C_35
REMARK    2  A    between atoms: C_14  and  C_32
REMARK    3  A    between atoms: C_17  and  O_29
REMARK    4  A    between atoms: C_32  and  O_33
REMARK    5  A    between atoms: C_35  and  O_36
REMARK                            x       y       z     vdW  Elec       q    Type
REMARK                         _______ _______ _______ _____ _____    ______ ____
ROOT
ATOM      1  C   UNL     1     -17.288  37.519   5.826  0.00  0.00    +0.000 C 
ATOM      2  C   UNL     1     -17.856  38.240   4.532  0.00  0.00    +0.000 C 
ATOM      3  C   UNL     1     -17.306  39.566   3.995  0.00  0.00    +0.000 C 
ATOM      4  C   UNL     1     -18.492  36.870   6.759  0.00  0.00    +0.000 C 
ATOM      5  C   UNL     1     -16.779  40.590   5.042  0.00  0.00    +0.000 C 
ATOM      6  C   UNL     1     -16.552  38.557   6.558  0.00  0.00    +0.000 C 
ATOM      7  C   UNL     1     -16.292  39.991   6.237  0.00  0.00    +0.000 C 
ATOM      8  C   UNL     1     -19.541  35.991   5.882  0.00  0.00    +0.000 C 
ATOM      9  C   UNL     1     -17.011  42.106   4.925  0.00  0.00    +0.000 C 
ATOM     10  C   UNL     1     -20.112  34.693   6.303  0.00  0.00    +0.000 C 
ATOM     11  C   UNL     1     -18.986  37.556   3.983  0.00  0.00    +0.000 C 
ATOM     12  C   UNL     1     -18.351  40.274   3.263  0.00  0.00    +0.000 C 
ATOM     13  C   UNL     1     -18.003  35.915   7.770  0.00  0.00    +0.000 C 
ATOM     14  C   UNL     1     -19.312  33.630   7.279  0.00  0.00    +0.000 C 
ATOM     15  C   UNL     1     -16.287  36.402   5.321  0.00  0.00    +0.000 C 
ATOM     16  C   UNL     1     -18.385  34.476   8.030  0.00  0.00    +0.000 C 
ATOM     17  C   UNL     1     -17.874  42.627   3.745  0.00  0.00    +0.000 C 
ATOM     18  C   UNL     1     -19.738  36.461   4.684  0.00  0.00    +0.000 C 
ATOM     19  C   UNL     1     -16.128  39.233   3.043  0.00  0.00    +0.000 C 
ATOM     20  C   UNL     1     -18.699  41.712   3.067  0.00  0.00    +0.000 C 
ATOM     21  C   UNL     1     -19.376  37.988   7.464  0.00  0.00    +0.000 C 
ATOM     22  C   UNL     1     -21.569  34.558   6.324  0.00  0.00    +0.000 C 
ATOM     23  C   UNL     1     -20.392  32.987   8.075  0.00  0.00    +0.000 C 
ATOM     24  C   UNL     1     -22.737  33.891   7.012  0.00  0.00    +0.000 C 
ATOM     25  C   UNL     1     -15.622  42.823   4.856  0.00  0.00    +0.000 C 
ATOM     26  C   UNL     1     -21.937  33.064   7.972  0.00  0.00    +0.000 C 
ATOM     27  C   UNL     1     -23.617  34.923   7.741  0.00  0.00    +0.000 C 
ATOM     28  C   UNL     1     -23.544  33.018   6.035  0.00  0.00    +0.000 C 
ENDROOT
BRANCH  17  29
ATOM     29  O   UNL     1     -17.628  43.861   3.168  0.00  0.00    +0.000 OA
ATOM     30  H   UNL     1     -17.828  44.587   3.796  0.00  0.00    +0.000 HD
ENDBRANCH  17  29
BRANCH  14  32
ATOM     31  O   UNL     1     -18.621  32.602   5.150  0.00  0.00    +0.000 OA
ATOM     32  C   UNL     1     -18.613  32.607   6.373  0.00  0.00    +0.000 C 
BRANCH  32  33
ATOM     33  O   UNL     1     -18.003  31.601   7.037  0.00  0.00    +0.000 OA
ATOM     34  H   UNL     1     -18.467  30.786   6.749  0.00  0.00    +0.000 HD
ENDBRANCH  32  33
ENDBRANCH  14  32
BRANCH   9  35
ATOM     35  C   UNL     1     -17.733  42.549   6.160  0.00  0.00    +0.000 C 
BRANCH  35  36
ATOM     36  O   UNL     1     -18.378  42.958   7.256  0.00  0.00    +0.000 OA
ATOM     37  H   UNL     1     -17.857  42.774   8.059  0.00  0.00    +0.000 HD
ENDBRANCH  35  36
ENDBRANCH   9  35
TORSDOF 5
ENDMDL
MODEL 5
REMARK VINA RESULT:      -6.6     26.826     29.998
REMARK  Name = 73299_Hederagenin.pdbqt.pdb
REMARK  5 active torsions:
REMARK  status: ('A' for Active; 'I' for Inactive)
REMARK    1  A    between atoms: C_9  and  C_35
REMARK    2  A    between atoms: C_14  and  C_32
REMARK    3  A    between atoms: C_17  and  O_29
REMARK    4  A    between atoms: C_32  and  O_33
REMARK    5  A    between atoms: C_35  and  O_36
REMARK                            x       y       z     vdW  Elec       q    Type
REMARK                         _______ _______ _______ _____ _____    ______ ____
ROOT
ATOM      1  C   UNL     1     -17.992  37.968   5.869  0.00  0.00    +0.000 C 
ATOM      2  C   UNL     1     -18.795  37.183   4.749  0.00  0.00    +0.000 C 
ATOM      3  C   UNL     1     -19.120  35.688   4.834  0.00  0.00    +0.000 C 
ATOM      4  C   UNL     1     -16.918  39.052   5.226  0.00  0.00    +0.000 C 
ATOM      5  C   UNL     1     -18.076  34.776   5.542  0.00  0.00    +0.000 C 
ATOM      6  C   UNL     1     -17.300  36.934   6.648  0.00  0.00    +0.000 C 
ATOM      7  C   UNL     1     -17.305  35.447   6.532  0.00  0.00    +0.000 C 
ATOM      8  C   UNL     1     -17.598  39.984   4.082  0.00  0.00    +0.000 C 
ATOM      9  C   UNL     1     -17.713  33.368   5.041  0.00  0.00    +0.000 C 
ATOM     10  C   UNL     1     -17.365  41.437   3.928  0.00  0.00    +0.000 C 
ATOM     11  C   UNL     1     -19.100  38.010   3.622  0.00  0.00    +0.000 C 
ATOM     12  C   UNL     1     -19.258  35.135   3.491  0.00  0.00    +0.000 C 
ATOM     13  C   UNL     1     -16.406  40.027   6.207  0.00  0.00    +0.000 C 
ATOM     14  C   UNL     1     -17.016  42.432   5.198  0.00  0.00    +0.000 C 
ATOM     15  C   UNL     1     -19.068  38.695   6.774  0.00  0.00    +0.000 C 
ATOM     16  C   UNL     1     -16.418  41.538   6.189  0.00  0.00    +0.000 C 
ATOM     17  C   UNL     1     -18.368  32.866   3.726  0.00  0.00    +0.000 C 
ATOM     18  C   UNL     1     -18.500  39.365   3.376  0.00  0.00    +0.000 C 
ATOM     19  C   UNL     1     -20.457  35.543   5.606  0.00  0.00    +0.000 C 
ATOM     20  C   UNL     1     -18.951  33.815   2.867  0.00  0.00    +0.000 C 
ATOM     21  C   UNL     1     -15.698  38.332   4.503  0.00  0.00    +0.000 C 
ATOM     22  C   UNL     1     -16.903  41.925   2.629  0.00  0.00    +0.000 C 
ATOM     23  C   UNL     1     -16.105  43.454   4.615  0.00  0.00    +0.000 C 
ATOM     24  C   UNL     1     -16.067  42.972   1.929  0.00  0.00    +0.000 C 
ATOM     25  C   UNL     1     -18.047  32.333   6.167  0.00  0.00    +0.000 C 
ATOM     26  C   UNL     1     -15.672  43.739   3.154  0.00  0.00    +0.000 C 
ATOM     27  C   UNL     1     -14.849  42.337   1.233  0.00  0.00    +0.000 C 
ATOM     28  C   UNL     1     -16.917  43.821   0.968  0.00  0.00    +0.000 C 
ENDROOT
BRANCH  17  29
ATOM     29  O   UNL     1     -18.654  31.525   3.535  0.00  0.00    +0.000 OA
ATOM     30  H   UNL     1     -19.612  31.353   3.649  0.00  0.00    +0.000 HD
ENDBRANCH  17  29
BRANCH  14  32
ATOM     31  O   UNL     1     -19.195  43.551   4.939  0.00  0.00    +0.000 OA
ATOM     32  C   UNL     1     -18.332  43.069   5.661  0.00  0.00    +0.000 C 
BRANCH  32  33
ATOM     33  O   UNL     1     -18.474  43.141   7.003  0.00  0.00    +0.000 OA
ATOM     34  H   UNL     1     -18.092  44.010   7.254  0.00  0.00    +0.000 HD
ENDBRANCH  32  33
ENDBRANCH  14  32
BRANCH   9  35
ATOM     35  C   UNL     1     -16.240  33.348   4.775  0.00  0.00    +0.000 C 
BRANCH  35  36
ATOM     36  O   UNL     1     -14.926  33.316   4.536  0.00  0.00    +0.000 OA
ATOM     37  H   UNL     1     -14.736  33.486   3.595  0.00  0.00    +0.000 HD
ENDBRANCH  35  36
ENDBRANCH   9  35
TORSDOF 5
ENDMDL
MODEL 6
REMARK VINA RESULT:      -6.3      2.924      3.962
REMARK  Name = 73299_Hederagenin.pdbqt.pdb
REMARK  5 active torsions:
REMARK  status: ('A' for Active; 'I' for Inactive)
REMARK    1  A    between atoms: C_9  and  C_35
REMARK    2  A    between atoms: C_14  and  C_32
REMARK    3  A    between atoms: C_17  and  O_29
REMARK    4  A    between atoms: C_32  and  O_33
REMARK    5  A    between atoms: C_35  and  O_36
REMARK                            x       y       z     vdW  Elec       q    Type
REMARK                         _______ _______ _______ _____ _____    ______ ____
ROOT
ATOM      1  C   UNL     1      -4.423  48.171  26.599  0.00  0.00    +0.000 C 
ATOM      2  C   UNL     1      -5.665  47.583  27.392  0.00  0.00    +0.000 C 
ATOM      3  C   UNL     1      -6.994  47.215  26.725  0.00  0.00    +0.000 C 
ATOM      4  C   UNL     1      -3.656  49.372  27.441  0.00  0.00    +0.000 C 
ATOM      5  C   UNL     1      -7.442  48.081  25.513  0.00  0.00    +0.000 C 
ATOM      6  C   UNL     1      -4.973  48.676  25.336  0.00  0.00    +0.000 C 
ATOM      7  C   UNL     1      -6.362  48.661  24.791  0.00  0.00    +0.000 C 
ATOM      8  C   UNL     1      -3.354  48.947  28.980  0.00  0.00    +0.000 C 
ATOM      9  C   UNL     1      -8.902  48.503  25.274  0.00  0.00    +0.000 C 
ATOM     10  C   UNL     1      -2.098  49.237  29.705  0.00  0.00    +0.000 C 
ATOM     11  C   UNL     1      -5.426  47.519  28.801  0.00  0.00    +0.000 C 
ATOM     12  C   UNL     1      -8.081  47.326  27.694  0.00  0.00    +0.000 C 
ATOM     13  C   UNL     1      -2.322  49.705  26.907  0.00  0.00    +0.000 C 
ATOM     14  C   UNL     1      -0.632  49.356  28.956  0.00  0.00    +0.000 C 
ATOM     15  C   UNL     1      -3.448  46.956  26.316  0.00  0.00    +0.000 C 
ATOM     16  C   UNL     1      -0.971  49.731  27.584  0.00  0.00    +0.000 C 
ATOM     17  C   UNL     1      -9.963  48.105  26.335  0.00  0.00    +0.000 C 
ATOM     18  C   UNL     1      -4.274  48.185  29.498  0.00  0.00    +0.000 C 
ATOM     19  C   UNL     1      -6.879  45.751  26.227  0.00  0.00    +0.000 C 
ATOM     20  C   UNL     1      -9.518  47.720  27.612  0.00  0.00    +0.000 C 
ATOM     21  C   UNL     1      -4.535  50.693  27.541  0.00  0.00    +0.000 C 
ATOM     22  C   UNL     1      -2.189  49.952  30.978  0.00  0.00    +0.000 C 
ATOM     23  C   UNL     1       0.096  50.384  29.747  0.00  0.00    +0.000 C 
ATOM     24  C   UNL     1      -1.494  50.931  31.897  0.00  0.00    +0.000 C 
ATOM     25  C   UNL     1      -9.369  47.936  23.893  0.00  0.00    +0.000 C 
ATOM     26  C   UNL     1      -0.250  51.098  31.080  0.00  0.00    +0.000 C 
ATOM     27  C   UNL     1      -2.286  52.246  32.011  0.00  0.00    +0.000 C 
ATOM     28  C   UNL     1      -1.200  50.302  33.271  0.00  0.00    +0.000 C 
ENDROOT
BRANCH  17  29
ATOM     29  O   UNL     1     -11.271  47.832  25.972  0.00  0.00    +0.000 OA
ATOM     30  H   UNL     1     -11.535  46.936  26.268  0.00  0.00    +0.000 HD
ENDBRANCH  17  29
BRANCH  14  32
ATOM     31  O   UNL     1      -0.488  46.927  29.340  0.00  0.00    +0.000 OA
ATOM     32  C   UNL     1       0.056  47.989  29.067  0.00  0.00    +0.000 C 
BRANCH  32  33
ATOM     33  O   UNL     1       1.397  48.026  28.906  0.00  0.00    +0.000 OA
ATOM     34  H   UNL     1       1.670  48.911  29.230  0.00  0.00    +0.000 HD
ENDBRANCH  32  33
ENDBRANCH  14  32
BRANCH   9  35
ATOM     35  C   UNL     1      -8.939  49.999  25.230  0.00  0.00    +0.000 C 
BRANCH  35  36
ATOM     36  O   UNL     1      -8.985  51.334  25.184  0.00  0.00    +0.000 OA
ATOM     37  H   UNL     1      -9.679  51.640  24.572  0.00  0.00    +0.000 HD
ENDBRANCH  35  36
ENDBRANCH   9  35
TORSDOF 5
ENDMDL
MODEL 7
REMARK VINA RESULT:      -6.2     26.981     30.255
REMARK  Name = 73299_Hederagenin.pdbqt.pdb
REMARK  5 active torsions:
REMARK  status: ('A' for Active; 'I' for Inactive)
REMARK    1  A    between atoms: C_9  and  C_35
REMARK    2  A    between atoms: C_14  and  C_32
REMARK    3  A    between atoms: C_17  and  O_29
REMARK    4  A    between atoms: C_32  and  O_33
REMARK    5  A    between atoms: C_35  and  O_36
REMARK                            x       y       z     vdW  Elec       q    Type
REMARK                         _______ _______ _______ _____ _____    ______ ____
ROOT
ATOM      1  C   UNL     1     -20.678  37.591   5.861  0.00  0.00    +0.000 C 
ATOM      2  C   UNL     1     -20.175  36.511   4.814  0.00  0.00    +0.000 C 
ATOM      3  C   UNL     1     -20.517  35.020   4.909  0.00  0.00    +0.000 C 
ATOM      4  C   UNL     1     -19.506  38.703   6.224  0.00  0.00    +0.000 C 
ATOM      5  C   UNL     1     -20.662  34.416   6.336  0.00  0.00    +0.000 C 
ATOM      6  C   UNL     1     -21.070  36.826   7.050  0.00  0.00    +0.000 C 
ATOM      7  C   UNL     1     -21.077  35.358   7.318  0.00  0.00    +0.000 C 
ATOM      8  C   UNL     1     -18.800  39.308   4.892  0.00  0.00    +0.000 C 
ATOM      9  C   UNL     1     -20.147  33.017   6.713  0.00  0.00    +0.000 C 
ATOM     10  C   UNL     1     -18.449  40.732   4.696  0.00  0.00    +0.000 C 
ATOM     11  C   UNL     1     -19.302  37.075   3.831  0.00  0.00    +0.000 C 
ATOM     12  C   UNL     1     -19.470  34.231   4.267  0.00  0.00    +0.000 C 
ATOM     13  C   UNL     1     -20.023  39.898   6.915  0.00  0.00    +0.000 C 
ATOM     14  C   UNL     1     -19.295  41.972   5.383  0.00  0.00    +0.000 C 
ATOM     15  C   UNL     1     -21.949  38.285   5.222  0.00  0.00    +0.000 C 
ATOM     16  C   UNL     1     -19.908  41.363   6.564  0.00  0.00    +0.000 C 
ATOM     17  C   UNL     1     -19.381  32.203   5.636  0.00  0.00    +0.000 C 
ATOM     18  C   UNL     1     -18.693  38.445   3.924  0.00  0.00    +0.000 C 
ATOM     19  C   UNL     1     -21.866  34.802   4.177  0.00  0.00    +0.000 C 
ATOM     20  C   UNL     1     -18.871  32.888   4.519  0.00  0.00    +0.000 C 
ATOM     21  C   UNL     1     -18.318  38.070   7.071  0.00  0.00    +0.000 C 
ATOM     22  C   UNL     1     -17.063  41.057   4.356  0.00  0.00    +0.000 C 
ATOM     23  C   UNL     1     -18.262  43.008   5.651  0.00  0.00    +0.000 C 
ATOM     24  C   UNL     1     -15.966  42.087   4.498  0.00  0.00    +0.000 C 
ATOM     25  C   UNL     1     -21.355  32.151   7.199  0.00  0.00    +0.000 C 
ATOM     26  C   UNL     1     -16.766  43.104   5.253  0.00  0.00    +0.000 C 
ATOM     27  C   UNL     1     -14.796  41.540   5.337  0.00  0.00    +0.000 C 
ATOM     28  C   UNL     1     -15.509  42.616   3.128  0.00  0.00    +0.000 C 
ENDROOT
BRANCH  17  29
ATOM     29  O   UNL     1     -19.455  30.820   5.597  0.00  0.00    +0.000 OA
ATOM     30  H   UNL     1     -18.573  30.429   5.424  0.00  0.00    +0.000 HD
ENDBRANCH  17  29
BRANCH  14  32
ATOM     31  O   UNL     1     -20.281  42.252   3.144  0.00  0.00    +0.000 OA
ATOM     32  C   UNL     1     -20.313  42.465   4.348  0.00  0.00    +0.000 C 
BRANCH  32  33
ATOM     33  O   UNL     1     -21.280  43.262   4.854  0.00  0.00    +0.000 OA
ATOM     34  H   UNL     1     -20.819  43.854   5.487  0.00  0.00    +0.000 HD
ENDBRANCH  32  33
ENDBRANCH  14  32
BRANCH   9  35
ATOM     35  C   UNL     1     -19.174  33.182   7.840  0.00  0.00    +0.000 C 
BRANCH  35  36
ATOM     36  O   UNL     1     -18.314  33.342   8.849  0.00  0.00    +0.000 OA
ATOM     37  H   UNL     1     -18.386  32.611   9.490  0.00  0.00    +0.000 HD
ENDBRANCH  35  36
ENDBRANCH   9  35
TORSDOF 5
ENDMDL
MODEL 8
REMARK VINA RESULT:      -6.2     26.851     29.331
REMARK  Name = 73299_Hederagenin.pdbqt.pdb
REMARK  5 active torsions:
REMARK  status: ('A' for Active; 'I' for Inactive)
REMARK    1  A    between atoms: C_9  and  C_35
REMARK    2  A    between atoms: C_14  and  C_32
REMARK    3  A    between atoms: C_17  and  O_29
REMARK    4  A    between atoms: C_32  and  O_33
REMARK    5  A    between atoms: C_35  and  O_36
REMARK                            x       y       z     vdW  Elec       q    Type
REMARK                         _______ _______ _______ _____ _____    ______ ____
ROOT
ATOM      1  C   UNL     1     -17.117  37.474   4.102  0.00  0.00    +0.000 C 
ATOM      2  C   UNL     1     -16.398  38.488   5.087  0.00  0.00    +0.000 C 
ATOM      3  C   UNL     1     -16.701  39.989   5.122  0.00  0.00    +0.000 C 
ATOM      4  C   UNL     1     -16.068  36.352   3.483  0.00  0.00    +0.000 C 
ATOM      5  C   UNL     1     -17.080  40.667   3.773  0.00  0.00    +0.000 C 
ATOM      6  C   UNL     1     -17.691  38.307   3.039  0.00  0.00    +0.000 C 
ATOM      7  C   UNL     1     -17.697  39.786   2.842  0.00  0.00    +0.000 C 
ATOM      8  C   UNL     1     -15.156  35.663   4.637  0.00  0.00    +0.000 C 
ATOM      9  C   UNL     1     -16.594  42.069   3.371  0.00  0.00    +0.000 C 
ATOM     10  C   UNL     1     -14.823  34.223   4.703  0.00  0.00    +0.000 C 
ATOM     11  C   UNL     1     -15.382  37.853   5.870  0.00  0.00    +0.000 C 
ATOM     12  C   UNL     1     -15.530  40.719   5.598  0.00  0.00    +0.000 C 
ATOM     13  C   UNL     1     -16.742  35.206   2.845  0.00  0.00    +0.000 C 
ATOM     14  C   UNL     1     -15.820  33.041   4.127  0.00  0.00    +0.000 C 
ATOM     15  C   UNL     1     -18.276  36.781   4.929  0.00  0.00    +0.000 C 
ATOM     16  C   UNL     1     -16.615  33.723   3.105  0.00  0.00    +0.000 C 
ATOM     17  C   UNL     1     -15.620  42.810   4.326  0.00  0.00    +0.000 C 
ATOM     18  C   UNL     1     -14.846  36.474   5.608  0.00  0.00    +0.000 C 
ATOM     19  C   UNL     1     -17.888  40.205   6.096  0.00  0.00    +0.000 C 
ATOM     20  C   UNL     1     -14.940  42.057   5.300  0.00  0.00    +0.000 C 
ATOM     21  C   UNL     1     -15.032  36.996   2.464  0.00  0.00    +0.000 C 
ATOM     22  C   UNL     1     -13.411  33.847   4.772  0.00  0.00    +0.000 C 
ATOM     23  C   UNL     1     -14.888  31.993   3.630  0.00  0.00    +0.000 C 
ATOM     24  C   UNL     1     -12.393  32.798   4.387  0.00  0.00    +0.000 C 
ATOM     25  C   UNL     1     -17.840  42.989   3.151  0.00  0.00    +0.000 C 
ATOM     26  C   UNL     1     -13.349  31.840   3.746  0.00  0.00    +0.000 C 
ATOM     27  C   UNL     1     -11.375  33.356   3.376  0.00  0.00    +0.000 C 
ATOM     28  C   UNL     1     -11.715  32.190   5.628  0.00  0.00    +0.000 C 
ENDROOT
BRANCH  17  29
ATOM     29  O   UNL     1     -15.638  44.190   4.440  0.00  0.00    +0.000 OA
ATOM     30  H   UNL     1     -16.316  44.478   5.086  0.00  0.00    +0.000 HD
ENDBRANCH  17  29
BRANCH  14  32
ATOM     31  O   UNL     1     -16.565  31.416   5.821  0.00  0.00    +0.000 OA
ATOM     32  C   UNL     1     -16.652  32.523   5.306  0.00  0.00    +0.000 C 
BRANCH  32  33
ATOM     33  O   UNL     1     -17.602  33.381   5.738  0.00  0.00    +0.000 OA
ATOM     34  H   UNL     1     -18.284  33.384   5.033  0.00  0.00    +0.000 HD
ENDBRANCH  32  33
ENDBRANCH  14  32
BRANCH   9  35
ATOM     35  C   UNL     1     -15.846  41.936   2.080  0.00  0.00    +0.000 C 
BRANCH  35  36
ATOM     36  O   UNL     1     -15.166  41.817   0.937  0.00  0.00    +0.000 OA
ATOM     37  H   UNL     1     -14.416  42.440   0.908  0.00  0.00    +0.000 HD
ENDBRANCH  35  36
ENDBRANCH   9  35
TORSDOF 5
ENDMDL
MODEL 9
REMARK VINA RESULT:      -6.2      3.022      9.785
REMARK  Name = 73299_Hederagenin.pdbqt.pdb
REMARK  5 active torsions:
REMARK  status: ('A' for Active; 'I' for Inactive)
REMARK    1  A    between atoms: C_9  and  C_35
REMARK    2  A    between atoms: C_14  and  C_32
REMARK    3  A    between atoms: C_17  and  O_29
REMARK    4  A    between atoms: C_32  and  O_33
REMARK    5  A    between atoms: C_35  and  O_36
REMARK                            x       y       z     vdW  Elec       q    Type
REMARK                         _______ _______ _______ _____ _____    ______ ____
ROOT
ATOM      1  C   UNL     1      -7.098  48.099  28.017  0.00  0.00    +0.000 C 
ATOM      2  C   UNL     1      -5.984  48.603  27.007  0.00  0.00    +0.000 C 
ATOM      3  C   UNL     1      -4.495  48.276  27.160  0.00  0.00    +0.000 C 
ATOM      4  C   UNL     1      -8.234  49.263  28.328  0.00  0.00    +0.000 C 
ATOM      5  C   UNL     1      -3.943  48.150  28.610  0.00  0.00    +0.000 C 
ATOM      6  C   UNL     1      -6.374  47.725  29.238  0.00  0.00    +0.000 C 
ATOM      7  C   UNL     1      -4.917  47.735  29.560  0.00  0.00    +0.000 C 
ATOM      8  C   UNL     1      -8.796  49.950  26.968  0.00  0.00    +0.000 C 
ATOM      9  C   UNL     1      -2.564  48.683  29.034  0.00  0.00    +0.000 C 
ATOM     10  C   UNL     1     -10.215  50.285  26.716  0.00  0.00    +0.000 C 
ATOM     11  C   UNL     1      -6.520  49.461  25.995  0.00  0.00    +0.000 C 
ATOM     12  C   UNL     1      -3.693  49.325  26.538  0.00  0.00    +0.000 C 
ATOM     13  C   UNL     1      -9.449  48.740  28.979  0.00  0.00    +0.000 C 
ATOM     14  C   UNL     1     -11.471  49.433  27.364  0.00  0.00    +0.000 C 
ATOM     15  C   UNL     1      -7.755  46.815  27.365  0.00  0.00    +0.000 C 
ATOM     16  C   UNL     1     -10.901  48.837  28.572  0.00  0.00    +0.000 C 
ATOM     17  C   UNL     1      -1.718  49.447  27.981  0.00  0.00    +0.000 C 
ATOM     18  C   UNL     1      -7.899  50.057  26.031  0.00  0.00    +0.000 C 
ATOM     19  C   UNL     1      -4.237  46.923  26.449  0.00  0.00    +0.000 C 
ATOM     20  C   UNL     1      -2.366  49.940  26.835  0.00  0.00    +0.000 C 
ATOM     21  C   UNL     1      -7.644  50.464  29.187  0.00  0.00    +0.000 C 
ATOM     22  C   UNL     1     -10.540  51.664  26.350  0.00  0.00    +0.000 C 
ATOM     23  C   UNL     1     -12.527  50.458  27.584  0.00  0.00    +0.000 C 
ATOM     24  C   UNL     1     -11.585  52.752  26.444  0.00  0.00    +0.000 C 
ATOM     25  C   UNL     1      -1.705  47.488  29.563  0.00  0.00    +0.000 C 
ATOM     26  C   UNL     1     -12.622  51.949  27.168  0.00  0.00    +0.000 C 
ATOM     27  C   UNL     1     -11.082  53.935  27.291  0.00  0.00    +0.000 C 
ATOM     28  C   UNL     1     -12.068  53.191  25.051  0.00  0.00    +0.000 C 
ENDROOT
BRANCH  17  29
ATOM     29  O   UNL     1      -0.334  49.387  27.993  0.00  0.00    +0.000 OA
ATOM     30  H   UNL     1       0.012  49.517  28.901  0.00  0.00    +0.000 HD
ENDBRANCH  17  29
BRANCH  14  32
ATOM     31  O   UNL     1     -12.536  48.633  25.292  0.00  0.00    +0.000 OA
ATOM     32  C   UNL     1     -11.916  48.400  26.321  0.00  0.00    +0.000 C 
BRANCH  32  33
ATOM     33  O   UNL     1     -11.632  47.120  26.649  0.00  0.00    +0.000 OA
ATOM     34  H   UNL     1     -11.436  47.139  27.610  0.00  0.00    +0.000 HD
ENDBRANCH  32  33
ENDBRANCH  14  32
BRANCH   9  35
ATOM     35  C   UNL     1      -2.781  49.664  30.144  0.00  0.00    +0.000 C 
BRANCH  35  36
ATOM     36  O   UNL     1      -2.984  50.547  31.126  0.00  0.00    +0.000 OA
ATOM     37  H   UNL     1      -2.323  50.442  31.835  0.00  0.00    +0.000 HD
ENDBRANCH  35  36
ENDBRANCH   9  35
TORSDOF 5
ENDMDL
