MODEL 1
REMARK VINA RESULT:      -8.2      0.000      0.000
REMARK  Name = 73659_MaslinicAcid.pdbqt.pdb
REMARK  4 active torsions:
REMARK  status: ('A' for Active; 'I' for Inactive)
REMARK    1  A    between atoms: C_14  and  C_35
REMARK    2  A    between atoms: C_17  and  O_30
REMARK    3  A    between atoms: C_19  and  O_32
REMARK    4  A    between atoms: C_35  and  O_36
REMARK                            x       y       z     vdW  Elec       q    Type
REMARK                         _______ _______ _______ _____ _____    ______ ____
ROOT
ATOM      1  C   UNL     1      -5.942  47.824  25.946  0.00  0.00    +0.000 C 
ATOM      2  C   UNL     1      -5.112  48.773  26.913  0.00  0.00    +0.000 C 
ATOM      3  C   UNL     1      -3.628  48.567  27.229  0.00  0.00    +0.000 C 
ATOM      4  C   UNL     1      -7.471  47.538  26.510  0.00  0.00    +0.000 C 
ATOM      5  C   UNL     1      -3.108  47.125  27.256  0.00  0.00    +0.000 C 
ATOM      6  C   UNL     1      -5.161  46.585  25.863  0.00  0.00    +0.000 C 
ATOM      7  C   UNL     1      -3.841  46.211  26.452  0.00  0.00    +0.000 C 
ATOM      8  C   UNL     1      -8.229  48.907  26.947  0.00  0.00    +0.000 C 
ATOM      9  C   UNL     1      -1.990  46.737  28.211  0.00  0.00    +0.000 C 
ATOM     10  C   UNL     1      -9.642  49.225  26.645  0.00  0.00    +0.000 C 
ATOM     11  C   UNL     1      -5.929  49.786  27.508  0.00  0.00    +0.000 C 
ATOM     12  C   UNL     1      -3.330  49.072  28.559  0.00  0.00    +0.000 C 
ATOM     13  C   UNL     1      -8.370  46.952  25.498  0.00  0.00    +0.000 C 
ATOM     14  C   UNL     1     -10.428  48.656  25.310  0.00  0.00    +0.000 C 
ATOM     15  C   UNL     1      -5.972  48.536  24.532  0.00  0.00    +0.000 C 
ATOM     16  C   UNL     1      -9.707  47.428  24.977  0.00  0.00    +0.000 C 
ATOM     17  C   UNL     1      -1.683  47.666  29.413  0.00  0.00    +0.000 C 
ATOM     18  C   UNL     1      -2.812  49.341  26.166  0.00  0.00    +0.000 C 
ATOM     19  C   UNL     1      -2.507  48.805  29.648  0.00  0.00    +0.000 C 
ATOM     20  C   UNL     1      -7.431  49.798  27.464  0.00  0.00    +0.000 C 
ATOM     21  C   UNL     1      -7.467  46.630  27.814  0.00  0.00    +0.000 C 
ATOM     22  C   UNL     1     -10.518  49.589  27.758  0.00  0.00    +0.000 C 
ATOM     23  C   UNL     1     -11.833  48.480  25.767  0.00  0.00    +0.000 C 
ATOM     24  C   UNL     1     -11.936  49.539  28.280  0.00  0.00    +0.000 C 
ATOM     25  C   UNL     1      -2.356  45.363  28.874  0.00  0.00    +0.000 C 
ATOM     26  C   UNL     1      -0.668  46.560  27.411  0.00  0.00    +0.000 C 
ATOM     27  C   UNL     1     -12.550  48.881  27.082  0.00  0.00    +0.000 C 
ATOM     28  C   UNL     1     -12.501  50.952  28.512  0.00  0.00    +0.000 C 
ATOM     29  C   UNL     1     -12.037  48.651  29.534  0.00  0.00    +0.000 C 
ENDROOT
BRANCH  17  30
ATOM     30  O   UNL     1      -0.616  47.472  30.287  0.00  0.00    +0.000 OA
ATOM     31  H   UNL     1      -0.712  48.025  31.090  0.00  0.00    +0.000 HD
ENDBRANCH  17  30
BRANCH  19  32
ATOM     32  O   UNL     1      -2.158  49.739  30.575  0.00  0.00    +0.000 OA
ATOM     33  H   UNL     1      -1.451  50.322  30.238  0.00  0.00    +0.000 HD
ENDBRANCH  19  32
BRANCH  14  35
ATOM     34  O   UNL     1     -11.158  50.607  23.994  0.00  0.00    +0.000 OA
ATOM     35  C   UNL     1     -10.333  49.732  24.222  0.00  0.00    +0.000 C 
BRANCH  35  36
ATOM     36  O   UNL     1      -9.249  49.619  23.423  0.00  0.00    +0.000 OA
ATOM     37  H   UNL     1      -9.544  49.062  22.669  0.00  0.00    +0.000 HD
ENDBRANCH  35  36
ENDBRANCH  14  35
TORSDOF 4
ENDMDL
MODEL 2
REMARK VINA RESULT:      -7.9      2.098      8.157
REMARK  Name = 73659_MaslinicAcid.pdbqt.pdb
REMARK  4 active torsions:
REMARK  status: ('A' for Active; 'I' for Inactive)
REMARK    1  A    between atoms: C_14  and  C_35
REMARK    2  A    between atoms: C_17  and  O_30
REMARK    3  A    between atoms: C_19  and  O_32
REMARK    4  A    between atoms: C_35  and  O_36
REMARK                            x       y       z     vdW  Elec       q    Type
REMARK                         _______ _______ _______ _____ _____    ______ ____
ROOT
ATOM      1  C   UNL     1      -6.804  48.516  25.652  0.00  0.00    +0.000 C 
ATOM      2  C   UNL     1      -7.985  47.609  26.205  0.00  0.00    +0.000 C 
ATOM      3  C   UNL     1      -9.434  47.723  25.722  0.00  0.00    +0.000 C 
ATOM      4  C   UNL     1      -5.763  48.988  26.850  0.00  0.00    +0.000 C 
ATOM      5  C   UNL     1      -9.928  49.111  25.298  0.00  0.00    +0.000 C 
ATOM      6  C   UNL     1      -7.465  49.670  25.032  0.00  0.00    +0.000 C 
ATOM      7  C   UNL     1      -8.910  49.993  24.842  0.00  0.00    +0.000 C 
ATOM      8  C   UNL     1      -5.296  47.741  27.780  0.00  0.00    +0.000 C 
ATOM      9  C   UNL     1     -11.380  49.504  25.521  0.00  0.00    +0.000 C 
ATOM     10  C   UNL     1      -3.914  47.512  28.256  0.00  0.00    +0.000 C 
ATOM     11  C   UNL     1      -7.552  46.737  27.254  0.00  0.00    +0.000 C 
ATOM     12  C   UNL     1     -10.344  47.339  26.789  0.00  0.00    +0.000 C 
ATOM     13  C   UNL     1      -4.493  49.536  26.340  0.00  0.00    +0.000 C 
ATOM     14  C   UNL     1      -2.579  48.000  27.415  0.00  0.00    +0.000 C 
ATOM     15  C   UNL     1      -6.062  47.664  24.544  0.00  0.00    +0.000 C 
ATOM     16  C   UNL     1      -3.064  49.121  26.610  0.00  0.00    +0.000 C 
ATOM     17  C   UNL     1     -12.225  48.684  26.529  0.00  0.00    +0.000 C 
ATOM     18  C   UNL     1      -9.598  46.775  24.510  0.00  0.00    +0.000 C 
ATOM     19  C   UNL     1     -11.604  47.650  27.287  0.00  0.00    +0.000 C 
ATOM     20  C   UNL     1      -6.227  46.846  27.953  0.00  0.00    +0.000 C 
ATOM     21  C   UNL     1      -6.434  50.025  27.849  0.00  0.00    +0.000 C 
ATOM     22  C   UNL     1      -3.699  47.343  29.692  0.00  0.00    +0.000 C 
ATOM     23  C   UNL     1      -1.592  48.340  28.474  0.00  0.00    +0.000 C 
ATOM     24  C   UNL     1      -2.729  47.566  30.830  0.00  0.00    +0.000 C 
ATOM     25  C   UNL     1     -11.419  50.966  26.087  0.00  0.00    +0.000 C 
ATOM     26  C   UNL     1     -12.133  49.484  24.160  0.00  0.00    +0.000 C 
ATOM     27  C   UNL     1      -1.614  48.143  30.011  0.00  0.00    +0.000 C 
ATOM     28  C   UNL     1      -2.326  46.238  31.496  0.00  0.00    +0.000 C 
ATOM     29  C   UNL     1      -3.283  48.587  31.841  0.00  0.00    +0.000 C 
ENDROOT
BRANCH  17  30
ATOM     30  O   UNL     1     -13.589  48.881  26.733  0.00  0.00    +0.000 OA
ATOM     31  H   UNL     1     -13.755  49.693  27.254  0.00  0.00    +0.000 HD
ENDBRANCH  17  30
BRANCH  19  32
ATOM     32  O   UNL     1     -12.349  46.794  28.040  0.00  0.00    +0.000 OA
ATOM     33  H   UNL     1     -12.261  45.876  27.719  0.00  0.00    +0.000 HD
ENDBRANCH  19  32
BRANCH  14  35
ATOM     34  O   UNL     1      -2.783  46.136  25.817  0.00  0.00    +0.000 OA
ATOM     35  C   UNL     1      -2.099  46.810  26.575  0.00  0.00    +0.000 C 
BRANCH  35  36
ATOM     36  O   UNL     1      -0.806  46.473  26.778  0.00  0.00    +0.000 OA
ATOM     37  H   UNL     1      -0.441  46.310  25.881  0.00  0.00    +0.000 HD
ENDBRANCH  35  36
ENDBRANCH  14  35
TORSDOF 4
ENDMDL
MODEL 3
REMARK VINA RESULT:      -7.8      3.791      6.240
REMARK  Name = 73659_MaslinicAcid.pdbqt.pdb
REMARK  4 active torsions:
REMARK  status: ('A' for Active; 'I' for Inactive)
REMARK    1  A    between atoms: C_14  and  C_35
REMARK    2  A    between atoms: C_17  and  O_30
REMARK    3  A    between atoms: C_19  and  O_32
REMARK    4  A    between atoms: C_35  and  O_36
REMARK                            x       y       z     vdW  Elec       q    Type
REMARK                         _______ _______ _______ _____ _____    ______ ____
ROOT
ATOM      1  C   UNL     1      -2.246  49.955  29.029  0.00  0.00    +0.000 C 
ATOM      2  C   UNL     1      -1.341  50.356  27.787  0.00  0.00    +0.000 C 
ATOM      3  C   UNL     1      -0.070  51.202  27.907  0.00  0.00    +0.000 C 
ATOM      4  C   UNL     1      -3.861  50.031  28.678  0.00  0.00    +0.000 C 
ATOM      5  C   UNL     1      -0.033  52.266  29.010  0.00  0.00    +0.000 C 
ATOM      6  C   UNL     1      -1.883  50.903  30.089  0.00  0.00    +0.000 C 
ATOM      7  C   UNL     1      -0.864  51.993  30.130  0.00  0.00    +0.000 C 
ATOM      8  C   UNL     1      -4.222  49.269  27.289  0.00  0.00    +0.000 C 
ATOM      9  C   UNL     1       0.731  53.563  28.791  0.00  0.00    +0.000 C 
ATOM     10  C   UNL     1      -5.395  48.389  27.087  0.00  0.00    +0.000 C 
ATOM     11  C   UNL     1      -1.894  49.904  26.547  0.00  0.00    +0.000 C 
ATOM     12  C   UNL     1       0.139  51.959  26.683  0.00  0.00    +0.000 C 
ATOM     13  C   UNL     1      -4.711  49.354  29.675  0.00  0.00    +0.000 C 
ATOM     14  C   UNL     1      -6.079  47.506  28.302  0.00  0.00    +0.000 C 
ATOM     15  C   UNL     1      -1.813  48.491  29.448  0.00  0.00    +0.000 C 
ATOM     16  C   UNL     1      -5.726  48.246  29.513  0.00  0.00    +0.000 C 
ATOM     17  C   UNL     1       1.101  53.972  27.343  0.00  0.00    +0.000 C 
ATOM     18  C   UNL     1       1.114  50.234  28.147  0.00  0.00    +0.000 C 
ATOM     19  C   UNL     1       0.642  53.181  26.251  0.00  0.00    +0.000 C 
ATOM     20  C   UNL     1      -3.288  49.368  26.386  0.00  0.00    +0.000 C 
ATOM     21  C   UNL     1      -4.359  51.526  28.474  0.00  0.00    +0.000 C 
ATOM     22  C   UNL     1      -6.292  48.685  25.971  0.00  0.00    +0.000 C 
ATOM     23  C   UNL     1      -7.526  47.478  27.956  0.00  0.00    +0.000 C 
ATOM     24  C   UNL     1      -7.723  48.623  25.487  0.00  0.00    +0.000 C 
ATOM     25  C   UNL     1      -0.149  54.752  29.314  0.00  0.00    +0.000 C 
ATOM     26  C   UNL     1       2.050  53.528  29.616  0.00  0.00    +0.000 C 
ATOM     27  C   UNL     1      -8.297  47.950  26.697  0.00  0.00    +0.000 C 
ATOM     28  C   UNL     1      -7.855  47.750  24.227  0.00  0.00    +0.000 C 
ATOM     29  C   UNL     1      -8.304  50.035  25.289  0.00  0.00    +0.000 C 
ENDROOT
BRANCH  17  30
ATOM     30  O   UNL     1       1.891  55.077  27.031  0.00  0.00    +0.000 OA
ATOM     31  H   UNL     1       2.840  54.886  27.184  0.00  0.00    +0.000 HD
ENDBRANCH  17  30
BRANCH  19  32
ATOM     32  O   UNL     1       1.099  53.404  24.988  0.00  0.00    +0.000 OA
ATOM     33  H   UNL     1       2.056  53.602  24.990  0.00  0.00    +0.000 HD
ENDBRANCH  19  32
BRANCH  14  35
ATOM     34  O   UNL     1      -4.296  45.823  28.061  0.00  0.00    +0.000 OA
ATOM     35  C   UNL     1      -5.473  46.098  28.250  0.00  0.00    +0.000 C 
BRANCH  35  36
ATOM     36  O   UNL     1      -6.378  45.100  28.364  0.00  0.00    +0.000 OA
ATOM     37  H   UNL     1      -7.196  45.534  28.690  0.00  0.00    +0.000 HD
ENDBRANCH  35  36
ENDBRANCH  14  35
TORSDOF 4
ENDMDL
MODEL 4
REMARK VINA RESULT:      -7.6      1.762      2.385
REMARK  Name = 73659_MaslinicAcid.pdbqt.pdb
REMARK  4 active torsions:
REMARK  status: ('A' for Active; 'I' for Inactive)
REMARK    1  A    between atoms: C_14  and  C_35
REMARK    2  A    between atoms: C_17  and  O_30
REMARK    3  A    between atoms: C_19  and  O_32
REMARK    4  A    between atoms: C_35  and  O_36
REMARK                            x       y       z     vdW  Elec       q    Type
REMARK                         _______ _______ _______ _____ _____    ______ ____
ROOT
ATOM      1  C   UNL     1      -7.762  48.645  25.493  0.00  0.00    +0.000 C 
ATOM      2  C   UNL     1      -6.977  48.863  26.857  0.00  0.00    +0.000 C 
ATOM      3  C   UNL     1      -5.527  48.420  27.075  0.00  0.00    +0.000 C 
ATOM      4  C   UNL     1      -9.337  48.202  25.742  0.00  0.00    +0.000 C 
ATOM      5  C   UNL     1      -5.057  47.161  26.338  0.00  0.00    +0.000 C 
ATOM      6  C   UNL     1      -7.017  47.598  24.785  0.00  0.00    +0.000 C 
ATOM      7  C   UNL     1      -5.757  46.878  25.134  0.00  0.00    +0.000 C 
ATOM      8  C   UNL     1     -10.081  49.166  26.819  0.00  0.00    +0.000 C 
ATOM      9  C   UNL     1      -4.026  46.244  26.978  0.00  0.00    +0.000 C 
ATOM     10  C   UNL     1     -11.457  49.690  26.675  0.00  0.00    +0.000 C 
ATOM     11  C   UNL     1      -7.802  49.446  27.869  0.00  0.00    +0.000 C 
ATOM     12  C   UNL     1      -5.312  48.105  28.478  0.00  0.00    +0.000 C 
ATOM     13  C   UNL     1     -10.177  48.318  24.536  0.00  0.00    +0.000 C 
ATOM     14  C   UNL     1     -12.160  49.987  25.212  0.00  0.00    +0.000 C 
ATOM     15  C   UNL     1      -7.665  50.008  24.694  0.00  0.00    +0.000 C 
ATOM     16  C   UNL     1     -11.456  49.088  24.297  0.00  0.00    +0.000 C 
ATOM     17  C   UNL     1      -3.779  46.354  28.504  0.00  0.00    +0.000 C 
ATOM     18  C   UNL     1      -4.611  49.588  26.642  0.00  0.00    +0.000 C 
ATOM     19  C   UNL     1      -4.580  47.238  29.282  0.00  0.00    +0.000 C 
ATOM     20  C   UNL     1      -9.295  49.581  27.772  0.00  0.00    +0.000 C 
ATOM     21  C   UNL     1      -9.458  46.736  26.342  0.00  0.00    +0.000 C 
ATOM     22  C   UNL     1     -12.401  49.453  27.766  0.00  0.00    +0.000 C 
ATOM     23  C   UNL     1     -13.600  49.687  25.436  0.00  0.00    +0.000 C 
ATOM     24  C   UNL     1     -13.855  49.225  28.113  0.00  0.00    +0.000 C 
ATOM     25  C   UNL     1      -4.484  44.758  26.770  0.00  0.00    +0.000 C 
ATOM     26  C   UNL     1      -2.655  46.439  26.270  0.00  0.00    +0.000 C 
ATOM     27  C   UNL     1     -14.399  49.361  26.724  0.00  0.00    +0.000 C 
ATOM     28  C   UNL     1     -14.390  50.322  29.050  0.00  0.00    +0.000 C 
ATOM     29  C   UNL     1     -14.076  47.809  28.678  0.00  0.00    +0.000 C 
ENDROOT
BRANCH  17  30
ATOM     30  O   UNL     1      -2.786  45.647  29.178  0.00  0.00    +0.000 OA
ATOM     31  H   UNL     1      -2.063  45.387  28.570  0.00  0.00    +0.000 HD
ENDBRANCH  17  30
BRANCH  19  32
ATOM     32  O   UNL     1      -4.271  47.496  30.583  0.00  0.00    +0.000 OA
ATOM     33  H   UNL     1      -4.785  48.256  30.922  0.00  0.00    +0.000 HD
ENDBRANCH  19  32
BRANCH  14  35
ATOM     34  O   UNL     1     -10.895  52.086  24.959  0.00  0.00    +0.000 OA
ATOM     35  C   UNL     1     -11.951  51.471  24.888  0.00  0.00    +0.000 C 
BRANCH  35  36
ATOM     36  O   UNL     1     -13.084  52.134  24.563  0.00  0.00    +0.000 OA
ATOM     37  H   UNL     1     -13.059  52.217  23.585  0.00  0.00    +0.000 HD
ENDBRANCH  35  36
ENDBRANCH  14  35
TORSDOF 4
ENDMDL
MODEL 5
REMARK VINA RESULT:      -7.5      3.276      5.753
REMARK  Name = 73659_MaslinicAcid.pdbqt.pdb
REMARK  4 active torsions:
REMARK  status: ('A' for Active; 'I' for Inactive)
REMARK    1  A    between atoms: C_14  and  C_35
REMARK    2  A    between atoms: C_17  and  O_30
REMARK    3  A    between atoms: C_19  and  O_32
REMARK    4  A    between atoms: C_35  and  O_36
REMARK                            x       y       z     vdW  Elec       q    Type
REMARK                         _______ _______ _______ _____ _____    ______ ____
ROOT
ATOM      1  C   UNL     1      -2.033  48.449  28.823  0.00  0.00    +0.000 C 
ATOM      2  C   UNL     1      -1.255  49.614  28.074  0.00  0.00    +0.000 C 
ATOM      3  C   UNL     1      -0.092  50.390  28.700  0.00  0.00    +0.000 C 
ATOM      4  C   UNL     1      -3.663  48.501  28.539  0.00  0.00    +0.000 C 
ATOM      5  C   UNL     1      -0.125  50.606  30.218  0.00  0.00    +0.000 C 
ATOM      6  C   UNL     1      -1.732  48.640  30.247  0.00  0.00    +0.000 C 
ATOM      7  C   UNL     1      -0.854  49.626  30.944  0.00  0.00    +0.000 C 
ATOM      8  C   UNL     1      -4.003  48.651  26.957  0.00  0.00    +0.000 C 
ATOM      9  C   UNL     1       0.460  51.875  30.819  0.00  0.00    +0.000 C 
ATOM     10  C   UNL     1      -5.068  47.909  26.247  0.00  0.00    +0.000 C 
ATOM     11  C   UNL     1      -1.816  49.900  26.790  0.00  0.00    +0.000 C 
ATOM     12  C   UNL     1      -0.046  51.737  28.156  0.00  0.00    +0.000 C 
ATOM     13  C   UNL     1      -4.366  47.266  28.929  0.00  0.00    +0.000 C 
ATOM     14  C   UNL     1      -5.571  46.402  26.698  0.00  0.00    +0.000 C 
ATOM     15  C   UNL     1      -1.402  47.088  28.319  0.00  0.00    +0.000 C 
ATOM     16  C   UNL     1      -5.246  46.338  28.123  0.00  0.00    +0.000 C 
ATOM     17  C   UNL     1       0.697  53.095  29.893  0.00  0.00    +0.000 C 
ATOM     18  C   UNL     1       1.212  49.630  28.362  0.00  0.00    +0.000 C 
ATOM     19  C   UNL     1       0.278  53.036  28.533  0.00  0.00    +0.000 C 
ATOM     20  C   UNL     1      -3.140  49.380  26.308  0.00  0.00    +0.000 C 
ATOM     21  C   UNL     1      -4.351  49.754  29.233  0.00  0.00    +0.000 C 
ATOM     22  C   UNL     1      -6.055  48.677  25.491  0.00  0.00    +0.000 C 
ATOM     23  C   UNL     1      -7.020  46.391  26.362  0.00  0.00    +0.000 C 
ATOM     24  C   UNL     1      -7.493  48.721  25.023  0.00  0.00    +0.000 C 
ATOM     25  C   UNL     1      -0.529  52.409  31.913  0.00  0.00    +0.000 C 
ATOM     26  C   UNL     1       1.817  51.540  31.503  0.00  0.00    +0.000 C 
ATOM     27  C   UNL     1      -7.912  47.401  25.596  0.00  0.00    +0.000 C 
ATOM     28  C   UNL     1      -7.586  48.737  23.487  0.00  0.00    +0.000 C 
ATOM     29  C   UNL     1      -8.253  49.893  25.671  0.00  0.00    +0.000 C 
ENDROOT
BRANCH  17  30
ATOM     30  O   UNL     1       1.327  54.267  30.307  0.00  0.00    +0.000 OA
ATOM     31  H   UNL     1       1.636  54.193  31.234  0.00  0.00    +0.000 HD
ENDBRANCH  17  30
BRANCH  19  32
ATOM     32  O   UNL     1       0.634  54.010  27.651  0.00  0.00    +0.000 OA
ATOM     33  H   UNL     1      -0.024  54.732  27.641  0.00  0.00    +0.000 HD
ENDBRANCH  19  32
BRANCH  14  35
ATOM     34  O   UNL     1      -4.503  45.500  24.670  0.00  0.00    +0.000 OA
ATOM     35  C   UNL     1      -4.801  45.383  25.851  0.00  0.00    +0.000 C 
BRANCH  35  36
ATOM     36  O   UNL     1      -4.503  44.234  26.499  0.00  0.00    +0.000 OA
ATOM     37  H   UNL     1      -5.215  43.607  26.245  0.00  0.00    +0.000 HD
ENDBRANCH  35  36
ENDBRANCH  14  35
TORSDOF 4
ENDMDL
MODEL 6
REMARK VINA RESULT:      -7.3      2.676      5.095
REMARK  Name = 73659_MaslinicAcid.pdbqt.pdb
REMARK  4 active torsions:
REMARK  status: ('A' for Active; 'I' for Inactive)
REMARK    1  A    between atoms: C_14  and  C_35
REMARK    2  A    between atoms: C_17  and  O_30
REMARK    3  A    between atoms: C_19  and  O_32
REMARK    4  A    between atoms: C_35  and  O_36
REMARK                            x       y       z     vdW  Elec       q    Type
REMARK                         _______ _______ _______ _____ _____    ______ ____
ROOT
ATOM      1  C   UNL     1      -3.236  48.810  29.288  0.00  0.00    +0.000 C 
ATOM      2  C   UNL     1      -2.563  47.398  29.008  0.00  0.00    +0.000 C 
ATOM      3  C   UNL     1      -1.192  46.993  29.558  0.00  0.00    +0.000 C 
ATOM      4  C   UNL     1      -4.003  49.414  27.952  0.00  0.00    +0.000 C 
ATOM      5  C   UNL     1      -0.148  48.101  29.734  0.00  0.00    +0.000 C 
ATOM      6  C   UNL     1      -2.135  49.681  29.713  0.00  0.00    +0.000 C 
ATOM      7  C   UNL     1      -0.686  49.401  29.935  0.00  0.00    +0.000 C 
ATOM      8  C   UNL     1      -4.975  48.314  27.255  0.00  0.00    +0.000 C 
ATOM      9  C   UNL     1       1.329  47.793  29.539  0.00  0.00    +0.000 C 
ATOM     10  C   UNL     1      -6.334  48.592  26.740  0.00  0.00    +0.000 C 
ATOM     11  C   UNL     1      -3.347  46.591  28.124  0.00  0.00    +0.000 C 
ATOM     12  C   UNL     1      -0.554  46.051  28.653  0.00  0.00    +0.000 C 
ATOM     13  C   UNL     1      -4.911  50.536  28.254  0.00  0.00    +0.000 C 
ATOM     14  C   UNL     1      -7.317  49.757  27.373  0.00  0.00    +0.000 C 
ATOM     15  C   UNL     1      -4.246  48.597  30.488  0.00  0.00    +0.000 C 
ATOM     16  C   UNL     1      -6.386  50.712  27.973  0.00  0.00    +0.000 C 
ATOM     17  C   UNL     1       1.725  46.506  28.773  0.00  0.00    +0.000 C 
ATOM     18  C   UNL     1      -1.420  46.337  30.941  0.00  0.00    +0.000 C 
ATOM     19  C   UNL     1       0.708  45.694  28.192  0.00  0.00    +0.000 C 
ATOM     20  C   UNL     1      -4.515  47.097  27.327  0.00  0.00    +0.000 C 
ATOM     21  C   UNL     1      -2.978  49.843  26.817  0.00  0.00    +0.000 C 
ATOM     22  C   UNL     1      -6.631  48.234  25.353  0.00  0.00    +0.000 C 
ATOM     23  C   UNL     1      -8.090  50.252  26.202  0.00  0.00    +0.000 C 
ATOM     24  C   UNL     1      -7.438  48.602  24.129  0.00  0.00    +0.000 C 
ATOM     25  C   UNL     1       1.972  48.952  28.700  0.00  0.00    +0.000 C 
ATOM     26  C   UNL     1       2.030  47.743  30.926  0.00  0.00    +0.000 C 
ATOM     27  C   UNL     1      -8.186  49.748  24.739  0.00  0.00    +0.000 C 
ATOM     28  C   UNL     1      -8.381  47.459  23.711  0.00  0.00    +0.000 C 
ATOM     29  C   UNL     1      -6.525  49.062  22.978  0.00  0.00    +0.000 C 
ENDROOT
BRANCH  17  30
ATOM     30  O   UNL     1       3.039  46.066  28.630  0.00  0.00    +0.000 OA
ATOM     31  H   UNL     1       3.623  46.473  29.303  0.00  0.00    +0.000 HD
ENDBRANCH  17  30
BRANCH  19  32
ATOM     32  O   UNL     1       1.004  44.469  27.676  0.00  0.00    +0.000 OA
ATOM     33  H   UNL     1       0.314  43.816  27.904  0.00  0.00    +0.000 HD
ENDBRANCH  19  32
BRANCH  14  35
ATOM     34  O   UNL     1      -8.011  48.932  29.589  0.00  0.00    +0.000 OA
ATOM     35  C   UNL     1      -8.238  49.081  28.395  0.00  0.00    +0.000 C 
BRANCH  35  36
ATOM     36  O   UNL     1      -9.367  48.558  27.865  0.00  0.00    +0.000 OA
ATOM     37  H   UNL     1      -9.723  49.261  27.279  0.00  0.00    +0.000 HD
ENDBRANCH  35  36
ENDBRANCH  14  35
TORSDOF 4
ENDMDL
MODEL 7
REMARK VINA RESULT:      -7.2     24.575     27.581
REMARK  Name = 73659_MaslinicAcid.pdbqt.pdb
REMARK  4 active torsions:
REMARK  status: ('A' for Active; 'I' for Inactive)
REMARK    1  A    between atoms: C_14  and  C_35
REMARK    2  A    between atoms: C_17  and  O_30
REMARK    3  A    between atoms: C_19  and  O_32
REMARK    4  A    between atoms: C_35  and  O_36
REMARK                            x       y       z     vdW  Elec       q    Type
REMARK                         _______ _______ _______ _____ _____    ______ ____
ROOT
ATOM      1  C   UNL     1     -17.294  37.135   5.900  0.00  0.00    +0.000 C 
ATOM      2  C   UNL     1     -17.823  37.946   4.641  0.00  0.00    +0.000 C 
ATOM      3  C   UNL     1     -17.154  39.220   4.116  0.00  0.00    +0.000 C 
ATOM      4  C   UNL     1     -18.530  36.580   6.852  0.00  0.00    +0.000 C 
ATOM      5  C   UNL     1     -16.477  40.134   5.144  0.00  0.00    +0.000 C 
ATOM      6  C   UNL     1     -16.438  38.076   6.630  0.00  0.00    +0.000 C 
ATOM      7  C   UNL     1     -16.028  39.478   6.321  0.00  0.00    +0.000 C 
ATOM      8  C   UNL     1     -19.681  35.831   5.984  0.00  0.00    +0.000 C 
ATOM      9  C   UNL     1     -16.461  41.640   4.929  0.00  0.00    +0.000 C 
ATOM     10  C   UNL     1     -20.350  34.571   6.376  0.00  0.00    +0.000 C 
ATOM     11  C   UNL     1     -19.031  37.393   4.110  0.00  0.00    +0.000 C 
ATOM     12  C   UNL     1     -18.146  40.076   3.486  0.00  0.00    +0.000 C 
ATOM     13  C   UNL     1     -18.107  35.556   7.824  0.00  0.00    +0.000 C 
ATOM     14  C   UNL     1     -19.619  33.409   7.293  0.00  0.00    +0.000 C 
ATOM     15  C   UNL     1     -16.421  35.943   5.334  0.00  0.00    +0.000 C 
ATOM     16  C   UNL     1     -18.607  34.147   8.049  0.00  0.00    +0.000 C 
ATOM     17  C   UNL     1     -17.466  42.258   3.924  0.00  0.00    +0.000 C 
ATOM     18  C   UNL     1     -16.081  38.794   3.087  0.00  0.00    +0.000 C 
ATOM     19  C   UNL     1     -18.435  41.424   3.298  0.00  0.00    +0.000 C 
ATOM     20  C   UNL     1     -19.865  36.356   4.805  0.00  0.00    +0.000 C 
ATOM     21  C   UNL     1     -19.280  37.760   7.606  0.00  0.00    +0.000 C 
ATOM     22  C   UNL     1     -21.811  34.555   6.429  0.00  0.00    +0.000 C 
ATOM     23  C   UNL     1     -20.730  32.827   8.091  0.00  0.00    +0.000 C 
ATOM     24  C   UNL     1     -23.016  33.958   7.120  0.00  0.00    +0.000 C 
ATOM     25  C   UNL     1     -16.801  42.340   6.291  0.00  0.00    +0.000 C 
ATOM     26  C   UNL     1     -15.035  42.082   4.493  0.00  0.00    +0.000 C 
ATOM     27  C   UNL     1     -22.266  33.033   8.030  0.00  0.00    +0.000 C 
ATOM     28  C   UNL     1     -23.911  33.190   6.130  0.00  0.00    +0.000 C 
ATOM     29  C   UNL     1     -23.793  35.028   7.908  0.00  0.00    +0.000 C 
ENDROOT
BRANCH  17  30
ATOM     30  O   UNL     1     -17.469  43.604   3.566  0.00  0.00    +0.000 OA
ATOM     31  H   UNL     1     -16.584  44.005   3.691  0.00  0.00    +0.000 HD
ENDBRANCH  17  30
BRANCH  19  32
ATOM     32  O   UNL     1     -19.206  41.894   2.279  0.00  0.00    +0.000 OA
ATOM     33  H   UNL     1     -20.104  41.510   2.312  0.00  0.00    +0.000 HD
ENDBRANCH  19  32
BRANCH  14  35
ATOM     34  O   UNL     1     -19.549  31.938   5.317  0.00  0.00    +0.000 OA
ATOM     35  C   UNL     1     -19.024  32.369   6.336  0.00  0.00    +0.000 C 
BRANCH  35  36
ATOM     36  O   UNL     1     -17.836  31.862   6.735  0.00  0.00    +0.000 OA
ATOM     37  H   UNL     1     -17.232  32.636   6.783  0.00  0.00    +0.000 HD
ENDBRANCH  35  36
ENDBRANCH  14  35
TORSDOF 4
ENDMDL
MODEL 8
REMARK VINA RESULT:      -7.0      3.593      6.675
REMARK  Name = 73659_MaslinicAcid.pdbqt.pdb
REMARK  4 active torsions:
REMARK  status: ('A' for Active; 'I' for Inactive)
REMARK    1  A    between atoms: C_14  and  C_35
REMARK    2  A    between atoms: C_17  and  O_30
REMARK    3  A    between atoms: C_19  and  O_32
REMARK    4  A    between atoms: C_35  and  O_36
REMARK                            x       y       z     vdW  Elec       q    Type
REMARK                         _______ _______ _______ _____ _____    ______ ____
ROOT
ATOM      1  C   UNL     1      -0.196  48.792  29.144  0.00  0.00    +0.000 C 
ATOM      2  C   UNL     1      -0.144  47.872  30.438  0.00  0.00    +0.000 C 
ATOM      3  C   UNL     1       1.146  47.570  31.207  0.00  0.00    +0.000 C 
ATOM      4  C   UNL     1      -1.226  48.196  27.994  0.00  0.00    +0.000 C 
ATOM      5  C   UNL     1       2.447  47.497  30.399  0.00  0.00    +0.000 C 
ATOM      6  C   UNL     1       1.185  48.840  28.652  0.00  0.00    +0.000 C 
ATOM      7  C   UNL     1       2.446  48.256  29.198  0.00  0.00    +0.000 C 
ATOM      8  C   UNL     1      -2.674  47.799  28.615  0.00  0.00    +0.000 C 
ATOM      9  C   UNL     1       3.553  46.543  30.823  0.00  0.00    +0.000 C 
ATOM     10  C   UNL     1      -3.977  48.092  27.979  0.00  0.00    +0.000 C 
ATOM     11  C   UNL     1      -1.419  47.304  30.750  0.00  0.00    +0.000 C 
ATOM     12  C   UNL     1       1.052  46.264  31.838  0.00  0.00    +0.000 C 
ATOM     13  C   UNL     1      -1.557  49.172  26.940  0.00  0.00    +0.000 C 
ATOM     14  C   UNL     1      -4.226  49.394  26.995  0.00  0.00    +0.000 C 
ATOM     15  C   UNL     1      -0.643  50.230  29.630  0.00  0.00    +0.000 C 
ATOM     16  C   UNL     1      -2.895  49.692  26.466  0.00  0.00    +0.000 C 
ATOM     17  C   UNL     1       3.205  45.382  31.788  0.00  0.00    +0.000 C 
ATOM     18  C   UNL     1       1.320  48.672  32.279  0.00  0.00    +0.000 C 
ATOM     19  C   UNL     1       1.850  45.178  32.180  0.00  0.00    +0.000 C 
ATOM     20  C   UNL     1      -2.605  47.327  29.828  0.00  0.00    +0.000 C 
ATOM     21  C   UNL     1      -0.676  46.859  27.334  0.00  0.00    +0.000 C 
ATOM     22  C   UNL     1      -4.903  46.982  27.763  0.00  0.00    +0.000 C 
ATOM     23  C   UNL     1      -5.225  48.911  26.004  0.00  0.00    +0.000 C 
ATOM     24  C   UNL     1      -5.992  46.439  26.866  0.00  0.00    +0.000 C 
ATOM     25  C   UNL     1       4.109  45.825  29.544  0.00  0.00    +0.000 C 
ATOM     26  C   UNL     1       4.710  47.356  31.472  0.00  0.00    +0.000 C 
ATOM     27  C   UNL     1      -6.052  47.603  25.924  0.00  0.00    +0.000 C 
ATOM     28  C   UNL     1      -7.313  46.251  27.633  0.00  0.00    +0.000 C 
ATOM     29  C   UNL     1      -5.536  45.151  26.155  0.00  0.00    +0.000 C 
ENDROOT
BRANCH  17  30
ATOM     30  O   UNL     1       4.153  44.517  32.329  0.00  0.00    +0.000 OA
ATOM     31  H   UNL     1       3.770  43.629  32.490  0.00  0.00    +0.000 HD
ENDBRANCH  17  30
BRANCH  19  32
ATOM     32  O   UNL     1       1.535  44.290  33.164  0.00  0.00    +0.000 OA
ATOM     33  H   UNL     1       0.733  43.782  32.934  0.00  0.00    +0.000 HD
ENDBRANCH  19  32
BRANCH  14  35
ATOM     34  O   UNL     1      -5.967  50.632  28.222  0.00  0.00    +0.000 OA
ATOM     35  C   UNL     1      -4.805  50.523  27.856  0.00  0.00    +0.000 C 
BRANCH  35  36
ATOM     36  O   UNL     1      -3.921  51.500  28.158  0.00  0.00    +0.000 OA
ATOM     37  H   UNL     1      -3.604  51.287  29.062  0.00  0.00    +0.000 HD
ENDBRANCH  35  36
ENDBRANCH  14  35
TORSDOF 4
ENDMDL
MODEL 9
REMARK VINA RESULT:      -6.7      5.042      8.682
REMARK  Name = 73659_MaslinicAcid.pdbqt.pdb
REMARK  4 active torsions:
REMARK  status: ('A' for Active; 'I' for Inactive)
REMARK    1  A    between atoms: C_14  and  C_35
REMARK    2  A    between atoms: C_17  and  O_30
REMARK    3  A    between atoms: C_19  and  O_32
REMARK    4  A    between atoms: C_35  and  O_36
REMARK                            x       y       z     vdW  Elec       q    Type
REMARK                         _______ _______ _______ _____ _____    ______ ____
ROOT
ATOM      1  C   UNL     1     -12.717  49.976  29.412  0.00  0.00    +0.000 C 
ATOM      2  C   UNL     1     -13.310  48.625  30.002  0.00  0.00    +0.000 C 
ATOM      3  C   UNL     1     -13.856  48.494  31.427  0.00  0.00    +0.000 C 
ATOM      4  C   UNL     1     -11.377  49.715  28.476  0.00  0.00    +0.000 C 
ATOM      5  C   UNL     1     -13.202  49.356  32.514  0.00  0.00    +0.000 C 
ATOM      6  C   UNL     1     -12.399  50.798  30.585  0.00  0.00    +0.000 C 
ATOM      7  C   UNL     1     -12.604  50.556  32.044  0.00  0.00    +0.000 C 
ATOM      8  C   UNL     1     -11.613  48.533  27.386  0.00  0.00    +0.000 C 
ATOM      9  C   UNL     1     -13.098  48.834  33.939  0.00  0.00    +0.000 C 
ATOM     10  C   UNL     1     -11.172  48.584  25.975  0.00  0.00    +0.000 C 
ATOM     11  C   UNL     1     -13.200  47.538  29.078  0.00  0.00    +0.000 C 
ATOM     12  C   UNL     1     -13.675  47.133  31.904  0.00  0.00    +0.000 C 
ATOM     13  C   UNL     1     -11.004  50.878  27.650  0.00  0.00    +0.000 C 
ATOM     14  C   UNL     1     -11.037  49.991  25.123  0.00  0.00    +0.000 C 
ATOM     15  C   UNL     1     -13.880  50.654  28.581  0.00  0.00    +0.000 C 
ATOM     16  C   UNL     1     -10.820  51.005  26.155  0.00  0.00    +0.000 C 
ATOM     17  C   UNL     1     -13.263  47.313  34.187  0.00  0.00    +0.000 C 
ATOM     18  C   UNL     1     -15.361  48.852  31.385  0.00  0.00    +0.000 C 
ATOM     19  C   UNL     1     -13.415  46.434  33.077  0.00  0.00    +0.000 C 
ATOM     20  C   UNL     1     -12.380  47.573  27.821  0.00  0.00    +0.000 C 
ATOM     21  C   UNL     1     -10.128  49.244  29.337  0.00  0.00    +0.000 C 
ATOM     22  C   UNL     1     -10.345  47.488  25.472  0.00  0.00    +0.000 C 
ATOM     23  C   UNL     1      -9.895  49.747  24.202  0.00  0.00    +0.000 C 
ATOM     24  C   UNL     1      -9.244  47.115  24.506  0.00  0.00    +0.000 C 
ATOM     25  C   UNL     1     -11.663  49.158  34.483  0.00  0.00    +0.000 C 
ATOM     26  C   UNL     1     -14.140  49.567  34.832  0.00  0.00    +0.000 C 
ATOM     27  C   UNL     1      -9.079  48.468  23.884  0.00  0.00    +0.000 C 
ATOM     28  C   UNL     1      -9.721  46.067  23.485  0.00  0.00    +0.000 C 
ATOM     29  C   UNL     1      -7.974  46.671  25.255  0.00  0.00    +0.000 C 
ENDROOT
BRANCH  17  30
ATOM     30  O   UNL     1     -13.297  46.738  35.455  0.00  0.00    +0.000 OA
ATOM     31  H   UNL     1     -12.392  46.554  35.784  0.00  0.00    +0.000 HD
ENDBRANCH  17  30
BRANCH  19  32
ATOM     32  O   UNL     1     -13.746  45.126  33.264  0.00  0.00    +0.000 OA
ATOM     33  H   UNL     1     -13.125  44.536  32.794  0.00  0.00    +0.000 HD
ENDBRANCH  19  32
BRANCH  14  35
ATOM     34  O   UNL     1     -12.960  51.237  24.216  0.00  0.00    +0.000 OA
ATOM     35  C   UNL     1     -12.342  50.188  24.342  0.00  0.00    +0.000 C 
BRANCH  35  36
ATOM     36  O   UNL     1     -12.852  49.051  23.817  0.00  0.00    +0.000 OA
ATOM     37  H   UNL     1     -12.719  48.368  24.511  0.00  0.00    +0.000 HD
ENDBRANCH  35  36
ENDBRANCH  14  35
TORSDOF 4
ENDMDL
