MODEL 1
REMARK VINA RESULT:      -4.5      0.000      0.000
REMARK  Name = 76617_Cardol.pdbqt.pdb
REMARK  10 active torsions:
REMARK  status: ('A' for Active; 'I' for Inactive)
REMARK    1  A    between atoms: C_1  and  C_2
REMARK    2  A    between atoms: C_3  and  C_4
REMARK    3  A    between atoms: C_5  and  C_6
REMARK    4  A    between atoms: C_7  and  C_8
REMARK    5  A    between atoms: C_8  and  C_9
REMARK    6  A    between atoms: C_10  and  C_11
REMARK    7  A    between atoms: C_14  and  C_15
REMARK    8  A    between atoms: C_15  and  C_16
REMARK    9  A    between atoms: C_19  and  O_24
REMARK   10  A    between atoms: C_20  and  O_22
REMARK                            x       y       z     vdW  Elec       q    Type
REMARK                         _______ _______ _______ _____ _____    ______ ____
ROOT
ATOM      1  C   UNL     1     -17.945  36.617   7.121  0.00  0.00    +0.000 C 
ATOM      2  C   UNL     1     -17.542  37.694   6.779  0.00  0.00    +0.000 C 
ENDROOT
BRANCH   1   3
ATOM      3  C   UNL     1     -18.458  35.242   7.558  0.00  0.00    +0.000 C 
ATOM      4  C   UNL     1     -18.973  33.866   7.994  0.00  0.00    +0.000 C 
BRANCH   4   5
ATOM      5  C   UNL     1     -19.487  32.490   8.428  0.00  0.00    +0.000 C 
ATOM      6  C   UNL     1     -20.001  31.115   8.862  0.00  0.00    +0.000 C 
BRANCH   6   7
ATOM      7  C   UNL     1     -20.515  29.738   9.297  0.00  0.00    +0.000 C 
ATOM      8  C   UNL     1     -21.029  28.362   9.730  0.00  0.00    +0.000 C 
BRANCH   8   9
ATOM      9  C   UNL     1     -21.543  26.987  10.164  0.00  0.00    +0.000 C 
BRANCH   9  10
ATOM     10  C   UNL     1     -22.058  25.611  10.598  0.00  0.00    +0.000 C 
ATOM     11  C   UNL     1     -22.574  24.236  11.033  0.00  0.00    +0.000 C 
BRANCH  11  12
ATOM     12  C   UNL     1     -23.089  22.861  11.468  0.00  0.00    +0.000 C 
ATOM     13  C   UNL     1     -23.605  21.486  11.902  0.00  0.00    +0.000 C 
ATOM     14  C   UNL     1     -24.120  20.110  12.337  0.00  0.00    +0.000 C 
ENDBRANCH  11  12
ENDBRANCH   9  10
ENDBRANCH   8   9
ENDBRANCH   6   7
ENDBRANCH   4   5
ENDBRANCH   1   3
BRANCH   2  15
ATOM     15  C   UNL     1     -17.029  39.070   6.342  0.00  0.00    +0.000 C 
BRANCH  15  16
ATOM     16  C   UNL     1     -16.553  40.350   5.937  0.00  0.00    +0.000 A 
ATOM     17  C   UNL     1     -17.427  41.435   5.895  0.00  0.00    +0.000 A 
ATOM     18  C   UNL     1     -15.214  40.511   5.584  0.00  0.00    +0.000 A 
ATOM     19  C   UNL     1     -14.758  41.767   5.190  0.00  0.00    +0.000 A 
ATOM     20  C   UNL     1     -16.951  42.682   5.498  0.00  0.00    +0.000 A 
ATOM     21  C   UNL     1     -15.618  42.859   5.142  0.00  0.00    +0.000 A 
BRANCH  20  22
ATOM     22  O   UNL     1     -17.787  43.759   5.449  0.00  0.00    +0.000 OA
ATOM     23  H   UNL     1     -17.382  44.486   5.953  0.00  0.00    +0.000 HD
ENDBRANCH  20  22
BRANCH  19  24
ATOM     24  O   UNL     1     -13.452  41.952   4.838  0.00  0.00    +0.000 OA
ATOM     25  H   UNL     1     -13.428  42.423   3.987  0.00  0.00    +0.000 HD
ENDBRANCH  19  24
ENDBRANCH  15  16
ENDBRANCH   2  15
TORSDOF 10
ENDMDL
MODEL 2
REMARK VINA RESULT:      -4.0     20.224     20.835
REMARK  Name = 76617_Cardol.pdbqt.pdb
REMARK  10 active torsions:
REMARK  status: ('A' for Active; 'I' for Inactive)
REMARK    1  A    between atoms: C_1  and  C_2
REMARK    2  A    between atoms: C_3  and  C_4
REMARK    3  A    between atoms: C_5  and  C_6
REMARK    4  A    between atoms: C_7  and  C_8
REMARK    5  A    between atoms: C_8  and  C_9
REMARK    6  A    between atoms: C_10  and  C_11
REMARK    7  A    between atoms: C_14  and  C_15
REMARK    8  A    between atoms: C_15  and  C_16
REMARK    9  A    between atoms: C_19  and  O_24
REMARK   10  A    between atoms: C_20  and  O_22
REMARK                            x       y       z     vdW  Elec       q    Type
REMARK                         _______ _______ _______ _____ _____    ______ ____
ROOT
ATOM      1  C   UNL     1      -5.502  26.770  20.997  0.00  0.00    +0.000 C 
ATOM      2  C   UNL     1      -4.482  27.147  20.490  0.00  0.00    +0.000 C 
ENDROOT
BRANCH   1   3
ATOM      3  C   UNL     1      -6.805  26.289  21.643  0.00  0.00    +0.000 C 
ATOM      4  C   UNL     1      -8.108  25.809  22.290  0.00  0.00    +0.000 C 
BRANCH   4   5
ATOM      5  C   UNL     1      -9.412  25.330  22.935  0.00  0.00    +0.000 C 
ATOM      6  C   UNL     1     -10.715  24.850  23.581  0.00  0.00    +0.000 C 
BRANCH   6   7
ATOM      7  C   UNL     1     -12.018  24.370  24.228  0.00  0.00    +0.000 C 
ATOM      8  C   UNL     1     -13.321  23.891  24.874  0.00  0.00    +0.000 C 
BRANCH   8   9
ATOM      9  C   UNL     1     -14.624  23.413  25.521  0.00  0.00    +0.000 C 
BRANCH   9  10
ATOM     10  C   UNL     1     -15.927  22.934  26.169  0.00  0.00    +0.000 C 
ATOM     11  C   UNL     1     -17.229  22.455  26.818  0.00  0.00    +0.000 C 
BRANCH  11  12
ATOM     12  C   UNL     1     -18.531  21.975  27.466  0.00  0.00    +0.000 C 
ATOM     13  C   UNL     1     -19.833  21.495  28.114  0.00  0.00    +0.000 C 
ATOM     14  C   UNL     1     -21.135  21.015  28.763  0.00  0.00    +0.000 C 
ENDBRANCH  11  12
ENDBRANCH   9  10
ENDBRANCH   8   9
ENDBRANCH   6   7
ENDBRANCH   4   5
ENDBRANCH   1   3
BRANCH   2  15
ATOM     15  C   UNL     1      -3.179  27.628  19.845  0.00  0.00    +0.000 C 
BRANCH  15  16
ATOM     16  C   UNL     1      -1.967  28.076  19.245  0.00  0.00    +0.000 A 
ATOM     17  C   UNL     1      -1.927  28.348  17.879  0.00  0.00    +0.000 A 
ATOM     18  C   UNL     1      -0.826  28.240  20.028  0.00  0.00    +0.000 A 
ATOM     19  C   UNL     1       0.355  28.678  19.433  0.00  0.00    +0.000 A 
ATOM     20  C   UNL     1      -0.737  28.786  17.303  0.00  0.00    +0.000 A 
ATOM     21  C   UNL     1       0.411  28.954  18.071  0.00  0.00    +0.000 A 
BRANCH  20  22
ATOM     22  O   UNL     1      -0.672  29.059  15.967  0.00  0.00    +0.000 OA
ATOM     23  H   UNL     1       0.081  28.573  15.590  0.00  0.00    +0.000 HD
ENDBRANCH  20  22
BRANCH  19  24
ATOM     24  O   UNL     1       1.487  28.846  20.178  0.00  0.00    +0.000 OA
ATOM     25  H   UNL     1       1.500  28.167  20.874  0.00  0.00    +0.000 HD
ENDBRANCH  19  24
ENDBRANCH  15  16
ENDBRANCH   2  15
TORSDOF 10
ENDMDL
MODEL 3
REMARK VINA RESULT:      -3.9     21.670     23.099
REMARK  Name = 76617_Cardol.pdbqt.pdb
REMARK  10 active torsions:
REMARK  status: ('A' for Active; 'I' for Inactive)
REMARK    1  A    between atoms: C_1  and  C_2
REMARK    2  A    between atoms: C_3  and  C_4
REMARK    3  A    between atoms: C_5  and  C_6
REMARK    4  A    between atoms: C_7  and  C_8
REMARK    5  A    between atoms: C_8  and  C_9
REMARK    6  A    between atoms: C_10  and  C_11
REMARK    7  A    between atoms: C_14  and  C_15
REMARK    8  A    between atoms: C_15  and  C_16
REMARK    9  A    between atoms: C_19  and  O_24
REMARK   10  A    between atoms: C_20  and  O_22
REMARK                            x       y       z     vdW  Elec       q    Type
REMARK                         _______ _______ _______ _____ _____    ______ ____
ROOT
ATOM      1  C   UNL     1      -4.620  26.431  21.566  0.00  0.00    +0.000 C 
ATOM      2  C   UNL     1      -3.902  26.662  20.633  0.00  0.00    +0.000 C 
ENDROOT
BRANCH   1   3
ATOM      3  C   UNL     1      -5.538  26.136  22.755  0.00  0.00    +0.000 C 
ATOM      4  C   UNL     1      -6.456  25.839  23.946  0.00  0.00    +0.000 C 
BRANCH   4   5
ATOM      5  C   UNL     1      -7.372  25.543  25.137  0.00  0.00    +0.000 C 
ATOM      6  C   UNL     1      -8.289  25.248  26.327  0.00  0.00    +0.000 C 
BRANCH   6   7
ATOM      7  C   UNL     1      -9.207  24.952  27.518  0.00  0.00    +0.000 C 
ATOM      8  C   UNL     1     -10.124  24.656  28.708  0.00  0.00    +0.000 C 
BRANCH   8   9
ATOM      9  C   UNL     1     -11.041  24.359  29.898  0.00  0.00    +0.000 C 
BRANCH   9  10
ATOM     10  C   UNL     1     -11.960  24.063  31.087  0.00  0.00    +0.000 C 
ATOM     11  C   UNL     1     -12.877  23.767  32.277  0.00  0.00    +0.000 C 
BRANCH  11  12
ATOM     12  C   UNL     1     -13.796  23.470  33.467  0.00  0.00    +0.000 C 
ATOM     13  C   UNL     1     -14.713  23.173  34.656  0.00  0.00    +0.000 C 
ATOM     14  C   UNL     1     -15.631  22.876  35.846  0.00  0.00    +0.000 C 
ENDBRANCH  11  12
ENDBRANCH   9  10
ENDBRANCH   8   9
ENDBRANCH   6   7
ENDBRANCH   4   5
ENDBRANCH   1   3
BRANCH   2  15
ATOM     15  C   UNL     1      -2.983  26.957  19.443  0.00  0.00    +0.000 C 
BRANCH  15  16
ATOM     16  C   UNL     1      -2.129  27.231  18.336  0.00  0.00    +0.000 A 
ATOM     17  C   UNL     1      -2.109  28.505  17.772  0.00  0.00    +0.000 A 
ATOM     18  C   UNL     1      -1.316  26.222  17.823  0.00  0.00    +0.000 A 
ATOM     19  C   UNL     1      -0.484  26.499  16.741  0.00  0.00    +0.000 A 
ATOM     20  C   UNL     1      -1.270  28.762  16.691  0.00  0.00    +0.000 A 
ATOM     21  C   UNL     1      -0.453  27.766  16.167  0.00  0.00    +0.000 A 
BRANCH  20  22
ATOM     22  O   UNL     1      -1.233  30.002  16.121  0.00  0.00    +0.000 OA
ATOM     23  H   UNL     1      -0.472  30.485  16.487  0.00  0.00    +0.000 HD
ENDBRANCH  20  22
BRANCH  19  24
ATOM     24  O   UNL     1       0.323  25.529  16.218  0.00  0.00    +0.000 OA
ATOM     25  H   UNL     1       0.683  25.852  15.374  0.00  0.00    +0.000 HD
ENDBRANCH  19  24
ENDBRANCH  15  16
ENDBRANCH   2  15
TORSDOF 10
ENDMDL
MODEL 4
REMARK VINA RESULT:      -3.9      9.788     21.874
REMARK  Name = 76617_Cardol.pdbqt.pdb
REMARK  10 active torsions:
REMARK  status: ('A' for Active; 'I' for Inactive)
REMARK    1  A    between atoms: C_1  and  C_2
REMARK    2  A    between atoms: C_3  and  C_4
REMARK    3  A    between atoms: C_5  and  C_6
REMARK    4  A    between atoms: C_7  and  C_8
REMARK    5  A    between atoms: C_8  and  C_9
REMARK    6  A    between atoms: C_10  and  C_11
REMARK    7  A    between atoms: C_14  and  C_15
REMARK    8  A    between atoms: C_15  and  C_16
REMARK    9  A    between atoms: C_19  and  O_24
REMARK   10  A    between atoms: C_20  and  O_22
REMARK                            x       y       z     vdW  Elec       q    Type
REMARK                         _______ _______ _______ _____ _____    ______ ____
ROOT
ATOM      1  C   UNL     1     -15.370  43.336   2.383  0.00  0.00    +0.000 C 
ATOM      2  C   UNL     1     -15.594  42.422   3.127  0.00  0.00    +0.000 C 
ENDROOT
BRANCH   1   3
ATOM      3  C   UNL     1     -15.083  44.503   1.434  0.00  0.00    +0.000 C 
ATOM      4  C   UNL     1     -14.794  45.670   0.484  0.00  0.00    +0.000 C 
BRANCH   4   5
ATOM      5  C   UNL     1     -14.507  46.835  -0.467  0.00  0.00    +0.000 C 
ATOM      6  C   UNL     1     -14.219  48.001  -1.418  0.00  0.00    +0.000 C 
BRANCH   6   7
ATOM      7  C   UNL     1     -13.931  49.167  -2.369  0.00  0.00    +0.000 C 
ATOM      8  C   UNL     1     -13.642  50.332  -3.319  0.00  0.00    +0.000 C 
BRANCH   8   9
ATOM      9  C   UNL     1     -13.353  51.498  -4.269  0.00  0.00    +0.000 C 
BRANCH   9  10
ATOM     10  C   UNL     1     -13.065  52.664  -5.220  0.00  0.00    +0.000 C 
ATOM     11  C   UNL     1     -12.777  53.828  -6.172  0.00  0.00    +0.000 C 
BRANCH  11  12
ATOM     12  C   UNL     1     -12.488  54.994  -7.123  0.00  0.00    +0.000 C 
ATOM     13  C   UNL     1     -12.200  56.160  -8.074  0.00  0.00    +0.000 C 
ATOM     14  C   UNL     1     -11.912  57.325  -9.025  0.00  0.00    +0.000 C 
ENDBRANCH  11  12
ENDBRANCH   9  10
ENDBRANCH   8   9
ENDBRANCH   6   7
ENDBRANCH   4   5
ENDBRANCH   1   3
BRANCH   2  15
ATOM     15  C   UNL     1     -15.882  41.254   4.077  0.00  0.00    +0.000 C 
BRANCH  15  16
ATOM     16  C   UNL     1     -16.151  40.169   4.959  0.00  0.00    +0.000 A 
ATOM     17  C   UNL     1     -17.450  39.948   5.413  0.00  0.00    +0.000 A 
ATOM     18  C   UNL     1     -15.113  39.331   5.363  0.00  0.00    +0.000 A 
ATOM     19  C   UNL     1     -15.385  38.272   6.226  0.00  0.00    +0.000 A 
ATOM     20  C   UNL     1     -17.701  38.883   6.275  0.00  0.00    +0.000 A 
ATOM     21  C   UNL     1     -16.676  38.039   6.688  0.00  0.00    +0.000 A 
BRANCH  20  22
ATOM     22  O   UNL     1     -18.965  38.646   6.733  0.00  0.00    +0.000 OA
ATOM     23  H   UNL     1     -18.965  37.799   7.212  0.00  0.00    +0.000 HD
ENDBRANCH  20  22
BRANCH  19  24
ATOM     24  O   UNL     1     -14.386  37.437   6.638  0.00  0.00    +0.000 OA
ATOM     25  H   UNL     1     -14.671  36.520   6.485  0.00  0.00    +0.000 HD
ENDBRANCH  19  24
ENDBRANCH  15  16
ENDBRANCH   2  15
TORSDOF 10
ENDMDL
MODEL 5
REMARK VINA RESULT:      -3.8     11.768     23.543
REMARK  Name = 76617_Cardol.pdbqt.pdb
REMARK  10 active torsions:
REMARK  status: ('A' for Active; 'I' for Inactive)
REMARK    1  A    between atoms: C_1  and  C_2
REMARK    2  A    between atoms: C_3  and  C_4
REMARK    3  A    between atoms: C_5  and  C_6
REMARK    4  A    between atoms: C_7  and  C_8
REMARK    5  A    between atoms: C_8  and  C_9
REMARK    6  A    between atoms: C_10  and  C_11
REMARK    7  A    between atoms: C_14  and  C_15
REMARK    8  A    between atoms: C_15  and  C_16
REMARK    9  A    between atoms: C_19  and  O_24
REMARK   10  A    between atoms: C_20  and  O_22
REMARK                            x       y       z     vdW  Elec       q    Type
REMARK                         _______ _______ _______ _____ _____    ______ ____
ROOT
ATOM      1  C   UNL     1     -14.670  45.539   0.660  0.00  0.00    +0.000 C 
ATOM      2  C   UNL     1     -14.993  44.852   1.590  0.00  0.00    +0.000 C 
ENDROOT
BRANCH   1   3
ATOM      3  C   UNL     1     -14.260  46.415  -0.526  0.00  0.00    +0.000 C 
ATOM      4  C   UNL     1     -13.849  47.293  -1.713  0.00  0.00    +0.000 C 
BRANCH   4   5
ATOM      5  C   UNL     1     -13.438  48.170  -2.899  0.00  0.00    +0.000 C 
ATOM      6  C   UNL     1     -13.026  49.048  -4.084  0.00  0.00    +0.000 C 
BRANCH   6   7
ATOM      7  C   UNL     1     -12.613  49.926  -5.270  0.00  0.00    +0.000 C 
ATOM      8  C   UNL     1     -12.200  50.803  -6.455  0.00  0.00    +0.000 C 
BRANCH   8   9
ATOM      9  C   UNL     1     -11.787  51.681  -7.640  0.00  0.00    +0.000 C 
BRANCH   9  10
ATOM     10  C   UNL     1     -11.376  52.559  -8.826  0.00  0.00    +0.000 C 
ATOM     11  C   UNL     1     -10.965  53.438 -10.011  0.00  0.00    +0.000 C 
BRANCH  11  12
ATOM     12  C   UNL     1     -10.554  54.317 -11.197  0.00  0.00    +0.000 C 
ATOM     13  C   UNL     1     -10.144  55.195 -12.382  0.00  0.00    +0.000 C 
ATOM     14  C   UNL     1      -9.733  56.074 -13.568  0.00  0.00    +0.000 C 
ENDBRANCH  11  12
ENDBRANCH   9  10
ENDBRANCH   8   9
ENDBRANCH   6   7
ENDBRANCH   4   5
ENDBRANCH   1   3
BRANCH   2  15
ATOM     15  C   UNL     1     -15.403  43.976   2.778  0.00  0.00    +0.000 C 
BRANCH  15  16
ATOM     16  C   UNL     1     -15.784  43.162   3.883  0.00  0.00    +0.000 A 
ATOM     17  C   UNL     1     -15.032  42.034   4.207  0.00  0.00    +0.000 A 
ATOM     18  C   UNL     1     -16.907  43.497   4.637  0.00  0.00    +0.000 A 
ATOM     19  C   UNL     1     -17.272  42.695   5.715  0.00  0.00    +0.000 A 
ATOM     20  C   UNL     1     -15.412  41.246   5.289  0.00  0.00    +0.000 A 
ATOM     21  C   UNL     1     -16.531  41.566   6.051  0.00  0.00    +0.000 A 
BRANCH  20  22
ATOM     22  O   UNL     1     -14.692  40.136   5.626  0.00  0.00    +0.000 OA
ATOM     23  H   UNL     1     -14.210  40.321   6.451  0.00  0.00    +0.000 HD
ENDBRANCH  20  22
BRANCH  19  24
ATOM     24  O   UNL     1     -18.368  43.001   6.469  0.00  0.00    +0.000 OA
ATOM     25  H   UNL     1     -18.691  42.183   6.886  0.00  0.00    +0.000 HD
ENDBRANCH  19  24
ENDBRANCH  15  16
ENDBRANCH   2  15
TORSDOF 10
ENDMDL
MODEL 6
REMARK VINA RESULT:      -3.8     29.113     32.474
REMARK  Name = 76617_Cardol.pdbqt.pdb
REMARK  10 active torsions:
REMARK  status: ('A' for Active; 'I' for Inactive)
REMARK    1  A    between atoms: C_1  and  C_2
REMARK    2  A    between atoms: C_3  and  C_4
REMARK    3  A    between atoms: C_5  and  C_6
REMARK    4  A    between atoms: C_7  and  C_8
REMARK    5  A    between atoms: C_8  and  C_9
REMARK    6  A    between atoms: C_10  and  C_11
REMARK    7  A    between atoms: C_14  and  C_15
REMARK    8  A    between atoms: C_15  and  C_16
REMARK    9  A    between atoms: C_19  and  O_24
REMARK   10  A    between atoms: C_20  and  O_22
REMARK                            x       y       z     vdW  Elec       q    Type
REMARK                         _______ _______ _______ _____ _____    ______ ____
ROOT
ATOM      1  C   UNL     1      -3.003  28.111  30.464  0.00  0.00    +0.000 C 
ATOM      2  C   UNL     1      -3.969  27.634  30.992  0.00  0.00    +0.000 C 
ENDROOT
BRANCH   1   3
ATOM      3  C   UNL     1      -1.770  28.722  29.790  0.00  0.00    +0.000 C 
ATOM      4  C   UNL     1      -0.537  29.331  29.115  0.00  0.00    +0.000 C 
BRANCH   4   5
ATOM      5  C   UNL     1       0.695  29.940  28.440  0.00  0.00    +0.000 C 
ATOM      6  C   UNL     1       1.927  30.550  27.765  0.00  0.00    +0.000 C 
BRANCH   6   7
ATOM      7  C   UNL     1       3.160  31.160  27.090  0.00  0.00    +0.000 C 
ATOM      8  C   UNL     1       4.392  31.769  26.415  0.00  0.00    +0.000 C 
BRANCH   8   9
ATOM      9  C   UNL     1       5.623  32.378  25.739  0.00  0.00    +0.000 C 
BRANCH   9  10
ATOM     10  C   UNL     1       6.857  32.987  25.063  0.00  0.00    +0.000 C 
ATOM     11  C   UNL     1       8.089  33.595  24.389  0.00  0.00    +0.000 C 
BRANCH  11  12
ATOM     12  C   UNL     1       9.322  34.204  23.713  0.00  0.00    +0.000 C 
ATOM     13  C   UNL     1      10.554  34.813  23.038  0.00  0.00    +0.000 C 
ATOM     14  C   UNL     1      11.787  35.422  22.362  0.00  0.00    +0.000 C 
ENDBRANCH  11  12
ENDBRANCH   9  10
ENDBRANCH   8   9
ENDBRANCH   6   7
ENDBRANCH   4   5
ENDBRANCH   1   3
BRANCH   2  15
ATOM     15  C   UNL     1      -5.202  27.023  31.666  0.00  0.00    +0.000 C 
BRANCH  15  16
ATOM     16  C   UNL     1      -6.347  26.454  32.292  0.00  0.00    +0.000 A 
ATOM     17  C   UNL     1      -6.685  26.825  33.592  0.00  0.00    +0.000 A 
ATOM     18  C   UNL     1      -7.126  25.528  31.601  0.00  0.00    +0.000 A 
ATOM     19  C   UNL     1      -8.245  24.977  32.221  0.00  0.00    +0.000 A 
ATOM     20  C   UNL     1      -7.807  26.263  34.194  0.00  0.00    +0.000 A 
ATOM     21  C   UNL     1      -8.595  25.337  33.519  0.00  0.00    +0.000 A 
BRANCH  20  22
ATOM     22  O   UNL     1      -8.158  26.611  35.467  0.00  0.00    +0.000 OA
ATOM     23  H   UNL     1      -8.311  25.797  35.978  0.00  0.00    +0.000 HD
ENDBRANCH  20  22
BRANCH  19  24
ATOM     24  O   UNL     1      -9.025  24.067  31.567  0.00  0.00    +0.000 OA
ATOM     25  H   UNL     1      -9.310  24.458  30.724  0.00  0.00    +0.000 HD
ENDBRANCH  19  24
ENDBRANCH  15  16
ENDBRANCH   2  15
TORSDOF 10
ENDMDL
MODEL 7
REMARK VINA RESULT:      -3.6     13.202     13.767
REMARK  Name = 76617_Cardol.pdbqt.pdb
REMARK  10 active torsions:
REMARK  status: ('A' for Active; 'I' for Inactive)
REMARK    1  A    between atoms: C_1  and  C_2
REMARK    2  A    between atoms: C_3  and  C_4
REMARK    3  A    between atoms: C_5  and  C_6
REMARK    4  A    between atoms: C_7  and  C_8
REMARK    5  A    between atoms: C_8  and  C_9
REMARK    6  A    between atoms: C_10  and  C_11
REMARK    7  A    between atoms: C_14  and  C_15
REMARK    8  A    between atoms: C_15  and  C_16
REMARK    9  A    between atoms: C_19  and  O_24
REMARK   10  A    between atoms: C_20  and  O_22
REMARK                            x       y       z     vdW  Elec       q    Type
REMARK                         _______ _______ _______ _____ _____    ______ ____
ROOT
ATOM      1  C   UNL     1     -24.607  39.396  19.755  0.00  0.00    +0.000 C 
ATOM      2  C   UNL     1     -24.521  40.590  19.838  0.00  0.00    +0.000 C 
ENDROOT
BRANCH   1   3
ATOM      3  C   UNL     1     -24.716  37.872  19.649  0.00  0.00    +0.000 C 
ATOM      4  C   UNL     1     -24.825  36.348  19.541  0.00  0.00    +0.000 C 
BRANCH   4   5
ATOM      5  C   UNL     1     -24.933  34.824  19.434  0.00  0.00    +0.000 C 
ATOM      6  C   UNL     1     -25.041  33.300  19.328  0.00  0.00    +0.000 C 
BRANCH   6   7
ATOM      7  C   UNL     1     -25.148  31.775  19.222  0.00  0.00    +0.000 C 
ATOM      8  C   UNL     1     -25.255  30.251  19.117  0.00  0.00    +0.000 C 
BRANCH   8   9
ATOM      9  C   UNL     1     -25.362  28.728  19.012  0.00  0.00    +0.000 C 
BRANCH   9  10
ATOM     10  C   UNL     1     -25.467  27.203  18.907  0.00  0.00    +0.000 C 
ATOM     11  C   UNL     1     -25.574  25.679  18.802  0.00  0.00    +0.000 C 
BRANCH  11  12
ATOM     12  C   UNL     1     -25.680  24.154  18.698  0.00  0.00    +0.000 C 
ATOM     13  C   UNL     1     -25.786  22.630  18.595  0.00  0.00    +0.000 C 
ATOM     14  C   UNL     1     -25.892  21.105  18.491  0.00  0.00    +0.000 C 
ENDBRANCH  11  12
ENDBRANCH   9  10
ENDBRANCH   8   9
ENDBRANCH   6   7
ENDBRANCH   4   5
ENDBRANCH   1   3
BRANCH   2  15
ATOM     15  C   UNL     1     -24.411  42.115  19.945  0.00  0.00    +0.000 C 
BRANCH  15  16
ATOM     16  C   UNL     1     -24.307  43.531  20.045  0.00  0.00    +0.000 A 
ATOM     17  C   UNL     1     -25.218  44.241  20.824  0.00  0.00    +0.000 A 
ATOM     18  C   UNL     1     -23.293  44.202  19.363  0.00  0.00    +0.000 A 
ATOM     19  C   UNL     1     -23.200  45.587  19.467  0.00  0.00    +0.000 A 
ATOM     20  C   UNL     1     -25.107  45.627  20.915  0.00  0.00    +0.000 A 
ATOM     21  C   UNL     1     -24.102  46.311  20.240  0.00  0.00    +0.000 A 
BRANCH  20  22
ATOM     22  O   UNL     1     -25.988  46.344  21.672  0.00  0.00    +0.000 OA
ATOM     23  H   UNL     1     -26.275  47.119  21.158  0.00  0.00    +0.000 HD
ENDBRANCH  20  22
BRANCH  19  24
ATOM     24  O   UNL     1     -22.217  46.269  18.808  0.00  0.00    +0.000 OA
ATOM     25  H   UNL     1     -21.573  46.589  19.464  0.00  0.00    +0.000 HD
ENDBRANCH  19  24
ENDBRANCH  15  16
ENDBRANCH   2  15
TORSDOF 10
ENDMDL
MODEL 8
REMARK VINA RESULT:      -3.5     34.031     41.039
REMARK  Name = 76617_Cardol.pdbqt.pdb
REMARK  10 active torsions:
REMARK  status: ('A' for Active; 'I' for Inactive)
REMARK    1  A    between atoms: C_1  and  C_2
REMARK    2  A    between atoms: C_3  and  C_4
REMARK    3  A    between atoms: C_5  and  C_6
REMARK    4  A    between atoms: C_7  and  C_8
REMARK    5  A    between atoms: C_8  and  C_9
REMARK    6  A    between atoms: C_10  and  C_11
REMARK    7  A    between atoms: C_14  and  C_15
REMARK    8  A    between atoms: C_15  and  C_16
REMARK    9  A    between atoms: C_19  and  O_24
REMARK   10  A    between atoms: C_20  and  O_22
REMARK                            x       y       z     vdW  Elec       q    Type
REMARK                         _______ _______ _______ _____ _____    ______ ____
ROOT
ATOM      1  C   UNL     1       9.043  54.426  18.849  0.00  0.00    +0.000 C 
ATOM      2  C   UNL     1       8.058  54.319  18.174  0.00  0.00    +0.000 C 
ENDROOT
BRANCH   1   3
ATOM      3  C   UNL     1      10.301  54.563  19.713  0.00  0.00    +0.000 C 
ATOM      4  C   UNL     1      11.559  54.699  20.576  0.00  0.00    +0.000 C 
BRANCH   4   5
ATOM      5  C   UNL     1      12.818  54.835  21.438  0.00  0.00    +0.000 C 
ATOM      6  C   UNL     1      14.077  54.971  22.299  0.00  0.00    +0.000 C 
BRANCH   6   7
ATOM      7  C   UNL     1      15.337  55.108  23.160  0.00  0.00    +0.000 C 
ATOM      8  C   UNL     1      16.596  55.243  24.021  0.00  0.00    +0.000 C 
BRANCH   8   9
ATOM      9  C   UNL     1      17.855  55.379  24.881  0.00  0.00    +0.000 C 
BRANCH   9  10
ATOM     10  C   UNL     1      19.115  55.515  25.743  0.00  0.00    +0.000 C 
ATOM     11  C   UNL     1      20.374  55.650  26.604  0.00  0.00    +0.000 C 
BRANCH  11  12
ATOM     12  C   UNL     1      21.633  55.786  27.466  0.00  0.00    +0.000 C 
ATOM     13  C   UNL     1      22.892  55.922  28.327  0.00  0.00    +0.000 C 
ATOM     14  C   UNL     1      24.151  56.057  29.189  0.00  0.00    +0.000 C 
ENDBRANCH  11  12
ENDBRANCH   9  10
ENDBRANCH   8   9
ENDBRANCH   6   7
ENDBRANCH   4   5
ENDBRANCH   1   3
BRANCH   2  15
ATOM     15  C   UNL     1       6.800  54.181  17.309  0.00  0.00    +0.000 C 
BRANCH  15  16
ATOM     16  C   UNL     1       5.630  54.052  16.507  0.00  0.00    +0.000 A 
ATOM     17  C   UNL     1       5.652  54.466  15.176  0.00  0.00    +0.000 A 
ATOM     18  C   UNL     1       4.469  53.512  17.056  0.00  0.00    +0.000 A 
ATOM     19  C   UNL     1       3.330  53.390  16.264  0.00  0.00    +0.000 A 
ATOM     20  C   UNL     1       4.503  54.335  14.400  0.00  0.00    +0.000 A 
ATOM     21  C   UNL     1       3.336  53.799  14.934  0.00  0.00    +0.000 A 
BRANCH  20  22
ATOM     22  O   UNL     1       4.500  54.732  13.094  0.00  0.00    +0.000 OA
ATOM     23  H   UNL     1       3.652  55.173  12.909  0.00  0.00    +0.000 HD
ENDBRANCH  20  22
BRANCH  19  24
ATOM     24  O   UNL     1       2.179  52.866  16.777  0.00  0.00    +0.000 OA
ATOM     25  H   UNL     1       2.279  51.899  16.830  0.00  0.00    +0.000 HD
ENDBRANCH  19  24
ENDBRANCH  15  16
ENDBRANCH   2  15
TORSDOF 10
ENDMDL
MODEL 9
REMARK VINA RESULT:      -3.5     12.841     13.517
REMARK  Name = 76617_Cardol.pdbqt.pdb
REMARK  10 active torsions:
REMARK  status: ('A' for Active; 'I' for Inactive)
REMARK    1  A    between atoms: C_1  and  C_2
REMARK    2  A    between atoms: C_3  and  C_4
REMARK    3  A    between atoms: C_5  and  C_6
REMARK    4  A    between atoms: C_7  and  C_8
REMARK    5  A    between atoms: C_8  and  C_9
REMARK    6  A    between atoms: C_10  and  C_11
REMARK    7  A    between atoms: C_14  and  C_15
REMARK    8  A    between atoms: C_15  and  C_16
REMARK    9  A    between atoms: C_19  and  O_24
REMARK   10  A    between atoms: C_20  and  O_22
REMARK                            x       y       z     vdW  Elec       q    Type
REMARK                         _______ _______ _______ _____ _____    ______ ____
ROOT
ATOM      1  C   UNL     1     -24.807  37.882  19.461  0.00  0.00    +0.000 C 
ATOM      2  C   UNL     1     -24.763  39.081  19.488  0.00  0.00    +0.000 C 
ENDROOT
BRANCH   1   3
ATOM      3  C   UNL     1     -24.864  36.352  19.427  0.00  0.00    +0.000 C 
ATOM      4  C   UNL     1     -24.921  34.821  19.392  0.00  0.00    +0.000 C 
BRANCH   4   5
ATOM      5  C   UNL     1     -24.976  33.291  19.358  0.00  0.00    +0.000 C 
ATOM      6  C   UNL     1     -25.032  31.761  19.324  0.00  0.00    +0.000 C 
BRANCH   6   7
ATOM      7  C   UNL     1     -25.088  30.230  19.290  0.00  0.00    +0.000 C 
ATOM      8  C   UNL     1     -25.144  28.701  19.257  0.00  0.00    +0.000 C 
BRANCH   8   9
ATOM      9  C   UNL     1     -25.199  27.171  19.223  0.00  0.00    +0.000 C 
BRANCH   9  10
ATOM     10  C   UNL     1     -25.254  25.640  19.190  0.00  0.00    +0.000 C 
ATOM     11  C   UNL     1     -25.309  24.110  19.156  0.00  0.00    +0.000 C 
BRANCH  11  12
ATOM     12  C   UNL     1     -25.364  22.579  19.123  0.00  0.00    +0.000 C 
ATOM     13  C   UNL     1     -25.419  21.049  19.090  0.00  0.00    +0.000 C 
ATOM     14  C   UNL     1     -25.474  19.519  19.057  0.00  0.00    +0.000 C 
ENDBRANCH  11  12
ENDBRANCH   9  10
ENDBRANCH   8   9
ENDBRANCH   6   7
ENDBRANCH   4   5
ENDBRANCH   1   3
BRANCH   2  15
ATOM     15  C   UNL     1     -24.705  40.611  19.522  0.00  0.00    +0.000 C 
BRANCH  15  16
ATOM     16  C   UNL     1     -24.652  42.034  19.555  0.00  0.00    +0.000 A 
ATOM     17  C   UNL     1     -24.468  42.749  18.373  0.00  0.00    +0.000 A 
ATOM     18  C   UNL     1     -24.784  42.705  20.769  0.00  0.00    +0.000 A 
ATOM     19  C   UNL     1     -24.731  44.097  20.790  0.00  0.00    +0.000 A 
ATOM     20  C   UNL     1     -24.418  44.140  18.415  0.00  0.00    +0.000 A 
ATOM     21  C   UNL     1     -24.547  44.825  19.619  0.00  0.00    +0.000 A 
BRANCH  20  22
ATOM     22  O   UNL     1     -24.238  44.863  17.271  0.00  0.00    +0.000 OA
ATOM     23  H   UNL     1     -23.474  45.452  17.396  0.00  0.00    +0.000 HD
ENDBRANCH  20  22
BRANCH  19  24
ATOM     24  O   UNL     1     -24.857  44.779  21.966  0.00  0.00    +0.000 OA
ATOM     25  H   UNL     1     -24.037  45.279  22.120  0.00  0.00    +0.000 HD
ENDBRANCH  19  24
ENDBRANCH  15  16
ENDBRANCH   2  15
TORSDOF 10
ENDMDL
