MODEL 1
REMARK VINA RESULT:      -6.1      0.000      0.000
REMARK  Name = 85668777_Hyaluronidase.pdbqt.pdb
REMARK  5 active torsions:
REMARK  status: ('A' for Active; 'I' for Inactive)
REMARK    1  A    between atoms: N_1  and  C_13
REMARK    2  A    between atoms: C_14  and  C_15
REMARK    3  A    between atoms: C_15  and  C_16
REMARK    4  A    between atoms: C_17  and  C_19
REMARK    5  A    between atoms: C_19  and  O_20
REMARK                            x       y       z     vdW  Elec       q    Type
REMARK                         _______ _______ _______ _____ _____    ______ ____
ROOT
ATOM      1  N   UNL     1      -4.171  47.507  26.593  0.00  0.00    +0.000 N 
ATOM      2  C   UNL     1      -5.396  45.443  26.904  0.00  0.00    +0.000 C 
ATOM      3  C   UNL     1      -6.198  46.488  26.129  0.00  0.00    +0.000 A 
ATOM      4  C   UNL     1      -4.056  46.236  27.160  0.00  0.00    +0.000 C 
ATOM      5  C   UNL     1      -5.428  47.661  25.985  0.00  0.00    +0.000 A 
ATOM      6  C   UNL     1      -6.147  45.100  28.229  0.00  0.00    +0.000 C 
ATOM      7  C   UNL     1      -5.179  44.190  25.996  0.00  0.00    +0.000 C 
ATOM      8  C   UNL     1      -7.481  46.407  25.607  0.00  0.00    +0.000 A 
ATOM      9  C   UNL     1      -5.931  48.764  25.318  0.00  0.00    +0.000 A 
ATOM     10  C   UNL     1      -2.934  45.854  27.802  0.00  0.00    +0.000 C 
ATOM     11  C   UNL     1      -7.986  47.519  24.934  0.00  0.00    +0.000 A 
ATOM     12  C   UNL     1      -7.220  48.684  24.791  0.00  0.00    +0.000 A 
ENDROOT
BRANCH   1  13
ATOM     13  C   UNL     1      -3.160  48.537  26.610  0.00  0.00    +0.000 C 
ATOM     14  C   UNL     1      -2.085  49.628  26.631  0.00  0.00    +0.000 C 
BRANCH  14  15
ATOM     15  C   UNL     1      -1.009  50.718  26.653  0.00  0.00    +0.000 C 
BRANCH  15  16
ATOM     16  C   UNL     1       0.066  51.808  26.674  0.00  0.00    +0.000 C 
ATOM     17  C   UNL     1       1.141  52.898  26.696  0.00  0.00    +0.000 C 
BRANCH  17  19
ATOM     18  O   UNL     1       2.120  54.871  27.475  0.00  0.00    +0.000 OA
ATOM     19  C   UNL     1       2.148  53.916  26.718  0.00  0.00    +0.000 C 
BRANCH  19  20
ATOM     20  O   UNL     1       3.135  53.730  25.824  0.00  0.00    +0.000 OA
ATOM     21  H   UNL     1       2.993  52.814  25.511  0.00  0.00    +0.000 HD
ENDBRANCH  19  20
ENDBRANCH  17  19
ENDBRANCH  15  16
ENDBRANCH  14  15
ENDBRANCH   1  13
TORSDOF 5
ENDMDL
MODEL 2
REMARK VINA RESULT:      -5.7      1.342      2.761
REMARK  Name = 85668777_Hyaluronidase.pdbqt.pdb
REMARK  5 active torsions:
REMARK  status: ('A' for Active; 'I' for Inactive)
REMARK    1  A    between atoms: N_1  and  C_13
REMARK    2  A    between atoms: C_14  and  C_15
REMARK    3  A    between atoms: C_15  and  C_16
REMARK    4  A    between atoms: C_17  and  C_19
REMARK    5  A    between atoms: C_19  and  O_20
REMARK                            x       y       z     vdW  Elec       q    Type
REMARK                         _______ _______ _______ _____ _____    ______ ____
ROOT
ATOM      1  N   UNL     1      -4.460  48.615  26.849  0.00  0.00    +0.000 N 
ATOM      2  C   UNL     1      -6.727  47.803  27.087  0.00  0.00    +0.000 C 
ATOM      3  C   UNL     1      -5.767  46.721  26.595  0.00  0.00    +0.000 A 
ATOM      4  C   UNL     1      -5.740  49.027  27.224  0.00  0.00    +0.000 C 
ATOM      5  C   UNL     1      -4.469  47.260  26.478  0.00  0.00    +0.000 A 
ATOM      6  C   UNL     1      -7.827  48.044  26.004  0.00  0.00    +0.000 C 
ATOM      7  C   UNL     1      -7.327  47.367  28.462  0.00  0.00    +0.000 C 
ATOM      8  C   UNL     1      -6.020  45.393  26.280  0.00  0.00    +0.000 A 
ATOM      9  C   UNL     1      -3.411  46.479  26.048  0.00  0.00    +0.000 A 
ATOM     10  C   UNL     1      -5.982  50.293  27.621  0.00  0.00    +0.000 C 
ATOM     11  C   UNL     1      -4.952  44.608  25.847  0.00  0.00    +0.000 A 
ATOM     12  C   UNL     1      -3.663  45.145  25.733  0.00  0.00    +0.000 A 
ENDROOT
BRANCH   1  13
ATOM     13  C   UNL     1      -3.275  49.439  26.836  0.00  0.00    +0.000 C 
ATOM     14  C   UNL     1      -2.015  50.309  26.819  0.00  0.00    +0.000 C 
BRANCH  14  15
ATOM     15  C   UNL     1      -0.754  51.180  26.801  0.00  0.00    +0.000 C 
BRANCH  15  16
ATOM     16  C   UNL     1       0.505  52.050  26.783  0.00  0.00    +0.000 C 
ATOM     17  C   UNL     1       1.765  52.921  26.764  0.00  0.00    +0.000 C 
BRANCH  17  19
ATOM     18  O   UNL     1       3.219  54.535  27.624  0.00  0.00    +0.000 OA
ATOM     19  C   UNL     1       2.941  53.737  26.746  0.00  0.00    +0.000 C 
BRANCH  19  20
ATOM     20  O   UNL     1       3.722  53.548  25.667  0.00  0.00    +0.000 OA
ATOM     21  H   UNL     1       3.088  53.307  24.962  0.00  0.00    +0.000 HD
ENDBRANCH  19  20
ENDBRANCH  17  19
ENDBRANCH  15  16
ENDBRANCH  14  15
ENDBRANCH   1  13
TORSDOF 5
ENDMDL
MODEL 3
REMARK VINA RESULT:      -5.5      6.284      9.128
REMARK  Name = 85668777_Hyaluronidase.pdbqt.pdb
REMARK  5 active torsions:
REMARK  status: ('A' for Active; 'I' for Inactive)
REMARK    1  A    between atoms: N_1  and  C_13
REMARK    2  A    between atoms: C_14  and  C_15
REMARK    3  A    between atoms: C_15  and  C_16
REMARK    4  A    between atoms: C_17  and  C_19
REMARK    5  A    between atoms: C_19  and  O_20
REMARK                            x       y       z     vdW  Elec       q    Type
REMARK                         _______ _______ _______ _____ _____    ______ ____
ROOT
ATOM      1  N   UNL     1      -5.411  47.379  27.055  0.00  0.00    +0.000 N 
ATOM      2  C   UNL     1      -3.205  46.385  27.020  0.00  0.00    +0.000 C 
ATOM      3  C   UNL     1      -3.158  47.909  27.120  0.00  0.00    +0.000 A 
ATOM      4  C   UNL     1      -4.765  46.144  26.984  0.00  0.00    +0.000 C 
ATOM      5  C   UNL     1      -4.472  48.421  27.135  0.00  0.00    +0.000 A 
ATOM      6  C   UNL     1      -2.504  45.936  25.698  0.00  0.00    +0.000 C 
ATOM      7  C   UNL     1      -2.539  45.768  28.291  0.00  0.00    +0.000 C 
ATOM      8  C   UNL     1      -2.060  48.755  27.189  0.00  0.00    +0.000 A 
ATOM      9  C   UNL     1      -4.703  49.783  27.221  0.00  0.00    +0.000 A 
ATOM     10  C   UNL     1      -5.461  44.992  26.901  0.00  0.00    +0.000 C 
ATOM     11  C   UNL     1      -2.295  50.127  27.275  0.00  0.00    +0.000 A 
ATOM     12  C   UNL     1      -3.601  50.635  27.291  0.00  0.00    +0.000 A 
ENDROOT
BRANCH   1  13
ATOM     13  C   UNL     1      -6.839  47.590  27.052  0.00  0.00    +0.000 C 
ATOM     14  C   UNL     1      -8.355  47.810  27.051  0.00  0.00    +0.000 C 
BRANCH  14  15
ATOM     15  C   UNL     1      -9.871  48.029  27.050  0.00  0.00    +0.000 C 
BRANCH  15  16
ATOM     16  C   UNL     1     -11.386  48.247  27.050  0.00  0.00    +0.000 C 
ATOM     17  C   UNL     1     -12.903  48.464  27.051  0.00  0.00    +0.000 C 
BRANCH  17  19
ATOM     18  O   UNL     1     -14.863  49.612  26.503  0.00  0.00    +0.000 OA
ATOM     19  C   UNL     1     -14.320  48.669  27.053  0.00  0.00    +0.000 C 
BRANCH  19  20
ATOM     20  O   UNL     1     -15.008  47.726  27.719  0.00  0.00    +0.000 OA
ATOM     21  H   UNL     1     -15.766  47.533  27.131  0.00  0.00    +0.000 HD
ENDBRANCH  19  20
ENDBRANCH  17  19
ENDBRANCH  15  16
ENDBRANCH  14  15
ENDBRANCH   1  13
TORSDOF 5
ENDMDL
MODEL 4
REMARK VINA RESULT:      -5.2      5.436      7.744
REMARK  Name = 85668777_Hyaluronidase.pdbqt.pdb
REMARK  5 active torsions:
REMARK  status: ('A' for Active; 'I' for Inactive)
REMARK    1  A    between atoms: N_1  and  C_13
REMARK    2  A    between atoms: C_14  and  C_15
REMARK    3  A    between atoms: C_15  and  C_16
REMARK    4  A    between atoms: C_17  and  C_19
REMARK    5  A    between atoms: C_19  and  O_20
REMARK                            x       y       z     vdW  Elec       q    Type
REMARK                         _______ _______ _______ _____ _____    ______ ____
ROOT
ATOM      1  N   UNL     1      -5.813  47.997  26.229  0.00  0.00    +0.000 N 
ATOM      2  C   UNL     1      -4.649  45.876  26.287  0.00  0.00    +0.000 C 
ATOM      3  C   UNL     1      -3.709  47.064  26.485  0.00  0.00    +0.000 A 
ATOM      4  C   UNL     1      -6.030  46.622  26.127  0.00  0.00    +0.000 C 
ATOM      5  C   UNL     1      -4.449  48.264  26.439  0.00  0.00    +0.000 A 
ATOM      6  C   UNL     1      -4.235  45.106  24.993  0.00  0.00    +0.000 C 
ATOM      7  C   UNL     1      -4.606  44.973  27.561  0.00  0.00    +0.000 C 
ATOM      8  C   UNL     1      -2.335  47.080  26.683  0.00  0.00    +0.000 A 
ATOM      9  C   UNL     1      -3.827  49.490  26.593  0.00  0.00    +0.000 A 
ATOM     10  C   UNL     1      -7.266  46.120  25.923  0.00  0.00    +0.000 C 
ATOM     11  C   UNL     1      -1.709  48.316  26.838  0.00  0.00    +0.000 A 
ATOM     12  C   UNL     1      -2.447  49.507  26.794  0.00  0.00    +0.000 A 
ENDROOT
BRANCH   1  13
ATOM     13  C   UNL     1      -6.822  49.024  26.138  0.00  0.00    +0.000 C 
ATOM     14  C   UNL     1      -7.897  50.111  26.044  0.00  0.00    +0.000 C 
BRANCH  14  15
ATOM     15  C   UNL     1      -8.973  51.198  25.950  0.00  0.00    +0.000 C 
BRANCH  15  16
ATOM     16  C   UNL     1     -10.048  52.284  25.857  0.00  0.00    +0.000 C 
ATOM     17  C   UNL     1     -11.123  53.371  25.764  0.00  0.00    +0.000 C 
BRANCH  17  19
ATOM     18  O   UNL     1     -12.807  54.744  26.622  0.00  0.00    +0.000 OA
ATOM     19  C   UNL     1     -12.128  54.387  25.675  0.00  0.00    +0.000 C 
BRANCH  19  20
ATOM     20  O   UNL     1     -12.261  54.919  24.447  0.00  0.00    +0.000 OA
ATOM     21  H   UNL     1     -12.790  54.254  23.963  0.00  0.00    +0.000 HD
ENDBRANCH  19  20
ENDBRANCH  17  19
ENDBRANCH  15  16
ENDBRANCH  14  15
ENDBRANCH   1  13
TORSDOF 5
ENDMDL
MODEL 5
REMARK VINA RESULT:      -5.1     21.029     24.130
REMARK  Name = 85668777_Hyaluronidase.pdbqt.pdb
REMARK  5 active torsions:
REMARK  status: ('A' for Active; 'I' for Inactive)
REMARK    1  A    between atoms: N_1  and  C_13
REMARK    2  A    between atoms: C_14  and  C_15
REMARK    3  A    between atoms: C_15  and  C_16
REMARK    4  A    between atoms: C_17  and  C_19
REMARK    5  A    between atoms: C_19  and  O_20
REMARK                            x       y       z     vdW  Elec       q    Type
REMARK                         _______ _______ _______ _____ _____    ______ ____
ROOT
ATOM      1  N   UNL     1     -25.510  39.207  20.122  0.00  0.00    +0.000 N 
ATOM      2  C   UNL     1     -26.882  37.282  20.642  0.00  0.00    +0.000 C 
ATOM      3  C   UNL     1     -25.540  36.893  20.024  0.00  0.00    +0.000 A 
ATOM      4  C   UNL     1     -26.749  38.854  20.660  0.00  0.00    +0.000 C 
ATOM      5  C   UNL     1     -24.794  38.058  19.746  0.00  0.00    +0.000 A 
ATOM      6  C   UNL     1     -28.036  36.793  19.711  0.00  0.00    +0.000 C 
ATOM      7  C   UNL     1     -26.976  36.678  22.080  0.00  0.00    +0.000 C 
ATOM      8  C   UNL     1     -25.032  35.634  19.735  0.00  0.00    +0.000 A 
ATOM      9  C   UNL     1     -23.535  37.977  19.178  0.00  0.00    +0.000 A 
ATOM     10  C   UNL     1     -27.617  39.791  21.094  0.00  0.00    +0.000 C 
ATOM     11  C   UNL     1     -23.763  35.554  19.163  0.00  0.00    +0.000 A 
ATOM     12  C   UNL     1     -23.023  36.713  18.889  0.00  0.00    +0.000 A 
ENDROOT
BRANCH   1  13
ATOM     13  C   UNL     1     -25.006  40.549  19.962  0.00  0.00    +0.000 C 
ATOM     14  C   UNL     1     -24.467  41.973  19.790  0.00  0.00    +0.000 C 
BRANCH  14  15
ATOM     15  C   UNL     1     -23.927  43.396  19.618  0.00  0.00    +0.000 C 
BRANCH  15  16
ATOM     16  C   UNL     1     -23.387  44.818  19.445  0.00  0.00    +0.000 C 
ATOM     17  C   UNL     1     -22.847  46.241  19.272  0.00  0.00    +0.000 C 
BRANCH  17  19
ATOM     18  O   UNL     1     -22.938  48.448  18.513  0.00  0.00    +0.000 OA
ATOM     19  C   UNL     1     -22.341  47.571  19.112  0.00  0.00    +0.000 C 
BRANCH  19  20
ATOM     20  O   UNL     1     -21.141  47.773  19.684  0.00  0.00    +0.000 OA
ATOM     21  H   UNL     1     -21.085  47.067  20.359  0.00  0.00    +0.000 HD
ENDBRANCH  19  20
ENDBRANCH  17  19
ENDBRANCH  15  16
ENDBRANCH  14  15
ENDBRANCH   1  13
TORSDOF 5
ENDMDL
MODEL 6
REMARK VINA RESULT:      -4.9      6.614      8.555
REMARK  Name = 85668777_Hyaluronidase.pdbqt.pdb
REMARK  5 active torsions:
REMARK  status: ('A' for Active; 'I' for Inactive)
REMARK    1  A    between atoms: N_1  and  C_13
REMARK    2  A    between atoms: C_14  and  C_15
REMARK    3  A    between atoms: C_15  and  C_16
REMARK    4  A    between atoms: C_17  and  C_19
REMARK    5  A    between atoms: C_19  and  O_20
REMARK                            x       y       z     vdW  Elec       q    Type
REMARK                         _______ _______ _______ _____ _____    ______ ____
ROOT
ATOM      1  N   UNL     1      -6.989  47.284  28.019  0.00  0.00    +0.000 N 
ATOM      2  C   UNL     1      -7.229  47.523  25.622  0.00  0.00    +0.000 C 
ATOM      3  C   UNL     1      -6.106  46.559  26.004  0.00  0.00    +0.000 A 
ATOM      4  C   UNL     1      -7.748  47.945  27.051  0.00  0.00    +0.000 C 
ATOM      5  C   UNL     1      -6.021  46.467  27.409  0.00  0.00    +0.000 A 
ATOM      6  C   UNL     1      -6.624  48.726  24.830  0.00  0.00    +0.000 C 
ATOM      7  C   UNL     1      -8.311  46.749  24.802  0.00  0.00    +0.000 C 
ATOM      8  C   UNL     1      -5.247  45.838  25.188  0.00  0.00    +0.000 A 
ATOM      9  C   UNL     1      -5.079  45.654  28.012  0.00  0.00    +0.000 A 
ATOM     10  C   UNL     1      -8.742  48.788  27.397  0.00  0.00    +0.000 C 
ATOM     11  C   UNL     1      -4.297  45.019  25.797  0.00  0.00    +0.000 A 
ATOM     12  C   UNL     1      -4.215  44.928  27.193  0.00  0.00    +0.000 A 
ENDROOT
BRANCH   1  13
ATOM     13  C   UNL     1      -7.150  47.399  29.448  0.00  0.00    +0.000 C 
ATOM     14  C   UNL     1      -7.325  47.524  30.964  0.00  0.00    +0.000 C 
BRANCH  14  15
ATOM     15  C   UNL     1      -7.502  47.649  32.481  0.00  0.00    +0.000 C 
BRANCH  15  16
ATOM     16  C   UNL     1      -7.677  47.774  33.997  0.00  0.00    +0.000 C 
ATOM     17  C   UNL     1      -7.852  47.900  35.513  0.00  0.00    +0.000 C 
BRANCH  17  19
ATOM     18  O   UNL     1      -8.234  49.076  37.496  0.00  0.00    +0.000 OA
ATOM     19  C   UNL     1      -8.014  48.018  36.931  0.00  0.00    +0.000 C 
BRANCH  19  20
ATOM     20  O   UNL     1      -7.902  46.854  37.594  0.00  0.00    +0.000 OA
ATOM     21  H   UNL     1      -8.300  46.201  36.984  0.00  0.00    +0.000 HD
ENDBRANCH  19  20
ENDBRANCH  17  19
ENDBRANCH  15  16
ENDBRANCH  14  15
ENDBRANCH   1  13
TORSDOF 5
ENDMDL
MODEL 7
REMARK VINA RESULT:      -4.9     25.781     27.781
REMARK  Name = 85668777_Hyaluronidase.pdbqt.pdb
REMARK  5 active torsions:
REMARK  status: ('A' for Active; 'I' for Inactive)
REMARK    1  A    between atoms: N_1  and  C_13
REMARK    2  A    between atoms: C_14  and  C_15
REMARK    3  A    between atoms: C_15  and  C_16
REMARK    4  A    between atoms: C_17  and  C_19
REMARK    5  A    between atoms: C_19  and  O_20
REMARK                            x       y       z     vdW  Elec       q    Type
REMARK                         _______ _______ _______ _____ _____    ______ ____
ROOT
ATOM      1  N   UNL     1     -13.312  34.372   5.130  0.00  0.00    +0.000 N 
ATOM      2  C   UNL     1     -11.822  32.466   5.196  0.00  0.00    +0.000 C 
ATOM      3  C   UNL     1     -13.180  32.126   4.581  0.00  0.00    +0.000 A 
ATOM      4  C   UNL     1     -12.027  33.996   5.524  0.00  0.00    +0.000 C 
ATOM      5  C   UNL     1     -13.995  33.277   4.575  0.00  0.00    +0.000 A 
ATOM      6  C   UNL     1     -11.611  31.604   6.481  0.00  0.00    +0.000 C 
ATOM      7  C   UNL     1     -10.706  32.232   4.128  0.00  0.00    +0.000 C 
ATOM      8  C   UNL     1     -13.645  30.918   4.081  0.00  0.00    +0.000 A 
ATOM      9  C   UNL     1     -15.282  33.233   4.068  0.00  0.00    +0.000 A 
ATOM     10  C   UNL     1     -11.178  34.881   6.086  0.00  0.00    +0.000 C 
ATOM     11  C   UNL     1     -14.942  30.876   3.571  0.00  0.00    +0.000 A 
ATOM     12  C   UNL     1     -15.750  32.020   3.564  0.00  0.00    +0.000 A 
ENDROOT
BRANCH   1  13
ATOM     13  C   UNL     1     -13.887  35.689   5.259  0.00  0.00    +0.000 C 
ATOM     14  C   UNL     1     -14.492  37.089   5.398  0.00  0.00    +0.000 C 
BRANCH  14  15
ATOM     15  C   UNL     1     -15.097  38.490   5.538  0.00  0.00    +0.000 C 
BRANCH  15  16
ATOM     16  C   UNL     1     -15.701  39.890   5.676  0.00  0.00    +0.000 C 
ATOM     17  C   UNL     1     -16.305  41.291   5.815  0.00  0.00    +0.000 C 
BRANCH  17  19
ATOM     18  O   UNL     1     -17.938  42.822   6.484  0.00  0.00    +0.000 OA
ATOM     19  C   UNL     1     -16.868  42.601   5.944  0.00  0.00    +0.000 C 
BRANCH  19  20
ATOM     20  O   UNL     1     -16.110  43.577   5.414  0.00  0.00    +0.000 OA
ATOM     21  H   UNL     1     -16.760  44.161   4.973  0.00  0.00    +0.000 HD
ENDBRANCH  19  20
ENDBRANCH  17  19
ENDBRANCH  15  16
ENDBRANCH  14  15
ENDBRANCH   1  13
TORSDOF 5
ENDMDL
MODEL 8
REMARK VINA RESULT:      -4.7      8.205     11.328
REMARK  Name = 85668777_Hyaluronidase.pdbqt.pdb
REMARK  5 active torsions:
REMARK  status: ('A' for Active; 'I' for Inactive)
REMARK    1  A    between atoms: N_1  and  C_13
REMARK    2  A    between atoms: C_14  and  C_15
REMARK    3  A    between atoms: C_15  and  C_16
REMARK    4  A    between atoms: C_17  and  C_19
REMARK    5  A    between atoms: C_19  and  O_20
REMARK                            x       y       z     vdW  Elec       q    Type
REMARK                         _______ _______ _______ _____ _____    ______ ____
ROOT
ATOM      1  N   UNL     1      -9.289  48.572  25.856  0.00  0.00    +0.000 N 
ATOM      2  C   UNL     1      -7.091  47.983  25.032  0.00  0.00    +0.000 C 
ATOM      3  C   UNL     1      -7.036  49.006  26.166  0.00  0.00    +0.000 A 
ATOM      4  C   UNL     1      -8.649  47.766  24.912  0.00  0.00    +0.000 C 
ATOM      5  C   UNL     1      -8.346  49.303  26.597  0.00  0.00    +0.000 A 
ATOM      6  C   UNL     1      -6.477  48.614  23.742  0.00  0.00    +0.000 C 
ATOM      7  C   UNL     1      -6.344  46.685  25.478  0.00  0.00    +0.000 C 
ATOM      8  C   UNL     1      -5.936  49.613  26.755  0.00  0.00    +0.000 A 
ATOM      9  C   UNL     1      -8.570  50.208  27.619  0.00  0.00    +0.000 A 
ATOM     10  C   UNL     1      -9.350  46.969  24.080  0.00  0.00    +0.000 C 
ATOM     11  C   UNL     1      -6.163  50.524  27.785  0.00  0.00    +0.000 A 
ATOM     12  C   UNL     1      -7.465  50.818  28.213  0.00  0.00    +0.000 A 
ENDROOT
BRANCH   1  13
ATOM     13  C   UNL     1     -10.714  48.662  26.067  0.00  0.00    +0.000 C 
ATOM     14  C   UNL     1     -12.226  48.752  26.293  0.00  0.00    +0.000 C 
BRANCH  14  15
ATOM     15  C   UNL     1     -13.739  48.841  26.519  0.00  0.00    +0.000 C 
BRANCH  15  16
ATOM     16  C   UNL     1     -15.250  48.932  26.744  0.00  0.00    +0.000 C 
ATOM     17  C   UNL     1     -16.763  49.023  26.969  0.00  0.00    +0.000 C 
BRANCH  17  19
ATOM     18  O   UNL     1     -18.759  50.151  27.417  0.00  0.00    +0.000 OA
ATOM     19  C   UNL     1     -18.177  49.107  27.177  0.00  0.00    +0.000 C 
BRANCH  19  20
ATOM     20  O   UNL     1     -18.815  47.927  27.086  0.00  0.00    +0.000 OA
ATOM     21  H   UNL     1     -18.093  47.269  27.138  0.00  0.00    +0.000 HD
ENDBRANCH  19  20
ENDBRANCH  17  19
ENDBRANCH  15  16
ENDBRANCH  14  15
ENDBRANCH   1  13
TORSDOF 5
ENDMDL
MODEL 9
REMARK VINA RESULT:      -4.6     25.718     26.892
REMARK  Name = 85668777_Hyaluronidase.pdbqt.pdb
REMARK  5 active torsions:
REMARK  status: ('A' for Active; 'I' for Inactive)
REMARK    1  A    between atoms: N_1  and  C_13
REMARK    2  A    between atoms: C_14  and  C_15
REMARK    3  A    between atoms: C_15  and  C_16
REMARK    4  A    between atoms: C_17  and  C_19
REMARK    5  A    between atoms: C_19  and  O_20
REMARK                            x       y       z     vdW  Elec       q    Type
REMARK                         _______ _______ _______ _____ _____    ______ ____
ROOT
ATOM      1  N   UNL     1     -20.343  28.621  20.660  0.00  0.00    +0.000 N 
ATOM      2  C   UNL     1     -22.712  29.109  20.605  0.00  0.00    +0.000 C 
ATOM      3  C   UNL     1     -22.084  29.415  21.964  0.00  0.00    +0.000 A 
ATOM      4  C   UNL     1     -21.452  28.585  19.814  0.00  0.00    +0.000 C 
ATOM      5  C   UNL     1     -20.708  29.108  21.927  0.00  0.00    +0.000 A 
ATOM      6  C   UNL     1     -23.804  28.007  20.782  0.00  0.00    +0.000 C 
ATOM      7  C   UNL     1     -23.287  30.430  19.999  0.00  0.00    +0.000 C 
ATOM      8  C   UNL     1     -22.674  29.912  23.117  0.00  0.00    +0.000 A 
ATOM      9  C   UNL     1     -19.907  29.296  23.039  0.00  0.00    +0.000 A 
ATOM     10  C   UNL     1     -21.348  28.151  18.541  0.00  0.00    +0.000 C 
ATOM     11  C   UNL     1     -21.866  30.102  24.238  0.00  0.00    +0.000 A 
ATOM     12  C   UNL     1     -20.498  29.798  24.198  0.00  0.00    +0.000 A 
ENDROOT
BRANCH   1  13
ATOM     13  C   UNL     1     -18.999  28.223  20.315  0.00  0.00    +0.000 C 
ATOM     14  C   UNL     1     -17.572  27.801  19.954  0.00  0.00    +0.000 C 
BRANCH  14  15
ATOM     15  C   UNL     1     -16.144  27.378  19.593  0.00  0.00    +0.000 C 
BRANCH  15  16
ATOM     16  C   UNL     1     -14.717  26.957  19.233  0.00  0.00    +0.000 C 
ATOM     17  C   UNL     1     -13.289  26.537  18.873  0.00  0.00    +0.000 C 
BRANCH  17  19
ATOM     18  O   UNL     1     -11.418  25.141  18.979  0.00  0.00    +0.000 OA
ATOM     19  C   UNL     1     -11.953  26.143  18.538  0.00  0.00    +0.000 C 
BRANCH  19  20
ATOM     20  O   UNL     1     -11.332  26.981  17.689  0.00  0.00    +0.000 OA
ATOM     21  H   UNL     1     -11.014  26.392  16.975  0.00  0.00    +0.000 HD
ENDBRANCH  19  20
ENDBRANCH  17  19
ENDBRANCH  15  16
ENDBRANCH  14  15
ENDBRANCH   1  13
TORSDOF 5
ENDMDL
