MODEL 1
REMARK VINA RESULT:      -4.7      0.000      0.000
REMARK  Name = 86311066_OplopantriolA.pdbqt.pdb
REMARK  12 active torsions:
REMARK  status: ('A' for Active; 'I' for Inactive)
REMARK    1  A    between atoms: C_1  and  C_3
REMARK    2  A    between atoms: C_2  and  C_13
REMARK    3  A    between atoms: C_4  and  C_5
REMARK    4  A    between atoms: C_6  and  C_7
REMARK    5  A    between atoms: C_8  and  C_9
REMARK    6  A    between atoms: C_10  and  O_11
REMARK    7  A    between atoms: C_13  and  O_14
REMARK    8  A    between atoms: C_13  and  C_16
REMARK    9  A    between atoms: C_17  and  C_18
REMARK   10  A    between atoms: C_19  and  C_20
REMARK   11  A    between atoms: C_20  and  C_21
REMARK   12  A    between atoms: C_20  and  O_23
REMARK                            x       y       z     vdW  Elec       q    Type
REMARK                         _______ _______ _______ _____ _____    ______ ____
ROOT
ATOM      1  C   UNL     1       1.735  46.035  28.540  0.00  0.00    +0.000 C 
ATOM      2  C   UNL     1       2.851  45.888  28.959  0.00  0.00    +0.000 C 
ENDROOT
BRANCH   1   3
ATOM      3  C   UNL     1       0.311  46.221  28.008  0.00  0.00    +0.000 C 
ATOM      4  C   UNL     1      -1.113  46.406  27.475  0.00  0.00    +0.000 C 
BRANCH   4   5
ATOM      5  C   UNL     1      -2.536  46.591  26.941  0.00  0.00    +0.000 C 
ATOM      6  C   UNL     1      -3.960  46.779  26.408  0.00  0.00    +0.000 C 
BRANCH   6   7
ATOM      7  C   UNL     1      -5.384  46.966  25.875  0.00  0.00    +0.000 C 
ATOM      8  C   UNL     1      -6.807  47.152  25.342  0.00  0.00    +0.000 C 
BRANCH   8   9
ATOM      9  C   UNL     1      -8.232  47.338  24.810  0.00  0.00    +0.000 C 
ATOM     10  C   UNL     1      -9.656  47.525  24.278  0.00  0.00    +0.000 C 
BRANCH  10  11
ATOM     11  O   UNL     1     -10.890  47.686  23.817  0.00  0.00    +0.000 OA
ATOM     12  H   UNL     1     -10.886  48.265  23.036  0.00  0.00    +0.000 HD
ENDBRANCH  10  11
ENDBRANCH   8   9
ENDBRANCH   6   7
ENDBRANCH   4   5
ENDBRANCH   1   3
BRANCH   2  13
ATOM     13  C   UNL     1       4.168  45.715  29.450  0.00  0.00    +0.000 C 
BRANCH  13  14
ATOM     14  O   UNL     1       4.329  44.950  30.583  0.00  0.00    +0.000 OA
ATOM     15  H   UNL     1       3.957  45.388  31.366  0.00  0.00    +0.000 HD
ENDBRANCH  13  14
BRANCH  13  16
ATOM     16  C   UNL     1       5.317  46.284  28.841  0.00  0.00    +0.000 C 
ATOM     17  C   UNL     1       6.289  46.766  28.327  0.00  0.00    +0.000 C 
BRANCH  17  18
ATOM     18  C   UNL     1       7.529  47.380  27.673  0.00  0.00    +0.000 C 
ATOM     19  C   UNL     1       8.502  47.862  27.160  0.00  0.00    +0.000 C 
BRANCH  19  20
ATOM     20  C   UNL     1       9.652  48.432  26.554  0.00  0.00    +0.000 C 
BRANCH  20  21
ATOM     21  C   UNL     1       9.874  48.438  25.149  0.00  0.00    +0.000 C 
ATOM     22  C   UNL     1      10.084  48.458  23.831  0.00  0.00    +0.000 C 
ENDBRANCH  20  21
BRANCH  20  23
ATOM     23  O   UNL     1      10.604  49.010  27.370  0.00  0.00    +0.000 OA
ATOM     24  H   UNL     1      10.683  49.967  27.213  0.00  0.00    +0.000 HD
ENDBRANCH  20  23
ENDBRANCH  19  20
ENDBRANCH  17  18
ENDBRANCH  13  16
ENDBRANCH   2  13
TORSDOF 12
ENDMDL
MODEL 2
REMARK VINA RESULT:      -4.4     28.433     30.319
REMARK  Name = 86311066_OplopantriolA.pdbqt.pdb
REMARK  12 active torsions:
REMARK  status: ('A' for Active; 'I' for Inactive)
REMARK    1  A    between atoms: C_1  and  C_3
REMARK    2  A    between atoms: C_2  and  C_13
REMARK    3  A    between atoms: C_4  and  C_5
REMARK    4  A    between atoms: C_6  and  C_7
REMARK    5  A    between atoms: C_8  and  C_9
REMARK    6  A    between atoms: C_10  and  O_11
REMARK    7  A    between atoms: C_13  and  O_14
REMARK    8  A    between atoms: C_13  and  C_16
REMARK    9  A    between atoms: C_17  and  C_18
REMARK   10  A    between atoms: C_19  and  C_20
REMARK   11  A    between atoms: C_20  and  C_21
REMARK   12  A    between atoms: C_20  and  O_23
REMARK                            x       y       z     vdW  Elec       q    Type
REMARK                         _______ _______ _______ _____ _____    ______ ____
ROOT
ATOM      1  C   UNL     1     -11.382  32.291   6.648  0.00  0.00    +0.000 C 
ATOM      2  C   UNL     1     -11.483  33.308   6.018  0.00  0.00    +0.000 C 
ENDROOT
BRANCH   1   3
ATOM      3  C   UNL     1     -11.254  30.994   7.452  0.00  0.00    +0.000 C 
ATOM      4  C   UNL     1     -11.125  29.698   8.257  0.00  0.00    +0.000 C 
BRANCH   4   5
ATOM      5  C   UNL     1     -10.995  28.400   9.061  0.00  0.00    +0.000 C 
ATOM      6  C   UNL     1     -10.864  27.103   9.864  0.00  0.00    +0.000 C 
BRANCH   6   7
ATOM      7  C   UNL     1     -10.734  25.805  10.668  0.00  0.00    +0.000 C 
ATOM      8  C   UNL     1     -10.604  24.508  11.471  0.00  0.00    +0.000 C 
BRANCH   8   9
ATOM      9  C   UNL     1     -10.475  23.210  12.275  0.00  0.00    +0.000 C 
ATOM     10  C   UNL     1     -10.346  21.914  13.080  0.00  0.00    +0.000 C 
BRANCH  10  11
ATOM     11  O   UNL     1     -10.234  20.789  13.777  0.00  0.00    +0.000 OA
ATOM     12  H   UNL     1      -9.918  20.979  14.677  0.00  0.00    +0.000 HD
ENDBRANCH  10  11
ENDBRANCH   8   9
ENDBRANCH   6   7
ENDBRANCH   4   5
ENDBRANCH   1   3
BRANCH   2  13
ATOM     13  C   UNL     1     -11.601  34.509   5.275  0.00  0.00    +0.000 C 
BRANCH  13  14
ATOM     14  O   UNL     1     -10.662  34.747   4.298  0.00  0.00    +0.000 OA
ATOM     15  H   UNL     1     -10.519  35.698   4.162  0.00  0.00    +0.000 HD
ENDBRANCH  13  14
BRANCH  13  16
ATOM     16  C   UNL     1     -12.626  35.466   5.485  0.00  0.00    +0.000 C 
ATOM     17  C   UNL     1     -13.494  36.277   5.662  0.00  0.00    +0.000 C 
BRANCH  17  18
ATOM     18  C   UNL     1     -14.600  37.311   5.886  0.00  0.00    +0.000 C 
ATOM     19  C   UNL     1     -15.468  38.123   6.061  0.00  0.00    +0.000 C 
BRANCH  19  20
ATOM     20  C   UNL     1     -16.495  39.081   6.269  0.00  0.00    +0.000 C 
BRANCH  20  21
ATOM     21  C   UNL     1     -16.264  40.485   6.276  0.00  0.00    +0.000 C 
ATOM     22  C   UNL     1     -16.036  41.800   6.294  0.00  0.00    +0.000 C 
ENDBRANCH  20  21
BRANCH  20  23
ATOM     23  O   UNL     1     -17.782  38.627   6.474  0.00  0.00    +0.000 OA
ATOM     24  H   UNL     1     -18.436  39.160   5.990  0.00  0.00    +0.000 HD
ENDBRANCH  20  23
ENDBRANCH  19  20
ENDBRANCH  17  18
ENDBRANCH  13  16
ENDBRANCH   2  13
TORSDOF 12
ENDMDL
MODEL 3
REMARK VINA RESULT:      -4.4     17.882     26.519
REMARK  Name = 86311066_OplopantriolA.pdbqt.pdb
REMARK  12 active torsions:
REMARK  status: ('A' for Active; 'I' for Inactive)
REMARK    1  A    between atoms: C_1  and  C_3
REMARK    2  A    between atoms: C_2  and  C_13
REMARK    3  A    between atoms: C_4  and  C_5
REMARK    4  A    between atoms: C_6  and  C_7
REMARK    5  A    between atoms: C_8  and  C_9
REMARK    6  A    between atoms: C_10  and  O_11
REMARK    7  A    between atoms: C_13  and  O_14
REMARK    8  A    between atoms: C_13  and  C_16
REMARK    9  A    between atoms: C_17  and  C_18
REMARK   10  A    between atoms: C_19  and  C_20
REMARK   11  A    between atoms: C_20  and  C_21
REMARK   12  A    between atoms: C_20  and  O_23
REMARK                            x       y       z     vdW  Elec       q    Type
REMARK                         _______ _______ _______ _____ _____    ______ ____
ROOT
ATOM      1  C   UNL     1     -22.390  46.804  20.410  0.00  0.00    +0.000 C 
ATOM      2  C   UNL     1     -23.368  46.114  20.309  0.00  0.00    +0.000 C 
ENDROOT
BRANCH   1   3
ATOM      3  C   UNL     1     -21.143  47.682  20.540  0.00  0.00    +0.000 C 
ATOM      4  C   UNL     1     -19.895  48.561  20.670  0.00  0.00    +0.000 C 
BRANCH   4   5
ATOM      5  C   UNL     1     -18.648  49.441  20.799  0.00  0.00    +0.000 C 
ATOM      6  C   UNL     1     -17.402  50.322  20.927  0.00  0.00    +0.000 C 
BRANCH   6   7
ATOM      7  C   UNL     1     -16.155  51.203  21.055  0.00  0.00    +0.000 C 
ATOM      8  C   UNL     1     -14.908  52.083  21.183  0.00  0.00    +0.000 C 
BRANCH   8   9
ATOM      9  C   UNL     1     -13.662  52.964  21.310  0.00  0.00    +0.000 C 
ATOM     10  C   UNL     1     -12.416  53.845  21.438  0.00  0.00    +0.000 C 
BRANCH  10  11
ATOM     11  O   UNL     1     -11.335  54.609  21.548  0.00  0.00    +0.000 OA
ATOM     12  H   UNL     1     -10.646  54.311  20.930  0.00  0.00    +0.000 HD
ENDBRANCH  10  11
ENDBRANCH   8   9
ENDBRANCH   6   7
ENDBRANCH   4   5
ENDBRANCH   1   3
BRANCH   2  13
ATOM     13  C   UNL     1     -24.523  45.302  20.190  0.00  0.00    +0.000 C 
BRANCH  13  14
ATOM     14  O   UNL     1     -25.737  45.938  20.069  0.00  0.00    +0.000 OA
ATOM     15  H   UNL     1     -26.460  45.305  19.923  0.00  0.00    +0.000 HD
ENDBRANCH  13  14
BRANCH  13  16
ATOM     16  C   UNL     1     -24.491  43.884  20.190  0.00  0.00    +0.000 C 
ATOM     17  C   UNL     1     -24.465  42.684  20.190  0.00  0.00    +0.000 C 
BRANCH  17  18
ATOM     18  C   UNL     1     -24.433  41.153  20.190  0.00  0.00    +0.000 C 
ATOM     19  C   UNL     1     -24.409  39.953  20.191  0.00  0.00    +0.000 C 
BRANCH  19  20
ATOM     20  C   UNL     1     -24.381  38.533  20.190  0.00  0.00    +0.000 C 
BRANCH  20  21
ATOM     21  C   UNL     1     -23.425  37.771  19.462  0.00  0.00    +0.000 C 
ATOM     22  C   UNL     1     -22.524  37.048  18.793  0.00  0.00    +0.000 C 
ENDBRANCH  20  21
BRANCH  20  23
ATOM     23  O   UNL     1     -25.329  37.859  20.932  0.00  0.00    +0.000 OA
ATOM     24  H   UNL     1     -26.178  37.795  20.462  0.00  0.00    +0.000 HD
ENDBRANCH  20  23
ENDBRANCH  19  20
ENDBRANCH  17  18
ENDBRANCH  13  16
ENDBRANCH   2  13
TORSDOF 12
ENDMDL
MODEL 4
REMARK VINA RESULT:      -4.0     29.153     31.627
REMARK  Name = 86311066_OplopantriolA.pdbqt.pdb
REMARK  12 active torsions:
REMARK  status: ('A' for Active; 'I' for Inactive)
REMARK    1  A    between atoms: C_1  and  C_3
REMARK    2  A    between atoms: C_2  and  C_13
REMARK    3  A    between atoms: C_4  and  C_5
REMARK    4  A    between atoms: C_6  and  C_7
REMARK    5  A    between atoms: C_8  and  C_9
REMARK    6  A    between atoms: C_10  and  O_11
REMARK    7  A    between atoms: C_13  and  O_14
REMARK    8  A    between atoms: C_13  and  C_16
REMARK    9  A    between atoms: C_17  and  C_18
REMARK   10  A    between atoms: C_19  and  C_20
REMARK   11  A    between atoms: C_20  and  C_21
REMARK   12  A    between atoms: C_20  and  O_23
REMARK                            x       y       z     vdW  Elec       q    Type
REMARK                         _______ _______ _______ _____ _____    ______ ____
ROOT
ATOM      1  C   UNL     1     -14.797  36.609   5.815  0.00  0.00    +0.000 C 
ATOM      2  C   UNL     1     -15.781  37.153   6.238  0.00  0.00    +0.000 C 
ENDROOT
BRANCH   1   3
ATOM      3  C   UNL     1     -13.544  35.915   5.276  0.00  0.00    +0.000 C 
ATOM      4  C   UNL     1     -12.290  35.219   4.736  0.00  0.00    +0.000 C 
BRANCH   4   5
ATOM      5  C   UNL     1     -11.036  34.523   4.198  0.00  0.00    +0.000 C 
ATOM      6  C   UNL     1      -9.781  33.828   3.662  0.00  0.00    +0.000 C 
BRANCH   6   7
ATOM      7  C   UNL     1      -8.526  33.132   3.125  0.00  0.00    +0.000 C 
ATOM      8  C   UNL     1      -7.272  32.437   2.588  0.00  0.00    +0.000 C 
BRANCH   8   9
ATOM      9  C   UNL     1      -6.017  31.743   2.049  0.00  0.00    +0.000 C 
ATOM     10  C   UNL     1      -4.763  31.048   1.511  0.00  0.00    +0.000 C 
BRANCH  10  11
ATOM     11  O   UNL     1      -3.676  30.446   1.044  0.00  0.00    +0.000 OA
ATOM     12  H   UNL     1      -3.394  29.739   1.649  0.00  0.00    +0.000 HD
ENDBRANCH  10  11
ENDBRANCH   8   9
ENDBRANCH   6   7
ENDBRANCH   4   5
ENDBRANCH   1   3
BRANCH   2  13
ATOM     13  C   UNL     1     -16.940  37.795   6.739  0.00  0.00    +0.000 C 
BRANCH  13  14
ATOM     14  O   UNL     1     -17.618  37.174   7.762  0.00  0.00    +0.000 OA
ATOM     15  H   UNL     1     -17.597  37.702   8.578  0.00  0.00    +0.000 HD
ENDBRANCH  13  14
BRANCH  13  16
ATOM     16  C   UNL     1     -17.431  39.030   6.243  0.00  0.00    +0.000 C 
ATOM     17  C   UNL     1     -17.847  40.076   5.826  0.00  0.00    +0.000 C 
BRANCH  17  18
ATOM     18  C   UNL     1     -18.378  41.410   5.294  0.00  0.00    +0.000 C 
ATOM     19  C   UNL     1     -18.795  42.456   4.877  0.00  0.00    +0.000 C 
BRANCH  19  20
ATOM     20  C   UNL     1     -19.288  43.693   4.384  0.00  0.00    +0.000 C 
BRANCH  20  21
ATOM     21  C   UNL     1     -18.987  44.191   3.085  0.00  0.00    +0.000 C 
ATOM     22  C   UNL     1     -18.719  44.665   1.867  0.00  0.00    +0.000 C 
ENDBRANCH  20  21
BRANCH  20  23
ATOM     23  O   UNL     1     -20.099  44.449   5.205  0.00  0.00    +0.000 OA
ATOM     24  H   UNL     1     -20.187  44.055   6.090  0.00  0.00    +0.000 HD
ENDBRANCH  20  23
ENDBRANCH  19  20
ENDBRANCH  17  18
ENDBRANCH  13  16
ENDBRANCH   2  13
TORSDOF 12
ENDMDL
MODEL 5
REMARK VINA RESULT:      -4.0      2.095      2.562
REMARK  Name = 86311066_OplopantriolA.pdbqt.pdb
REMARK  12 active torsions:
REMARK  status: ('A' for Active; 'I' for Inactive)
REMARK    1  A    between atoms: C_1  and  C_3
REMARK    2  A    between atoms: C_2  and  C_13
REMARK    3  A    between atoms: C_4  and  C_5
REMARK    4  A    between atoms: C_6  and  C_7
REMARK    5  A    between atoms: C_8  and  C_9
REMARK    6  A    between atoms: C_10  and  O_11
REMARK    7  A    between atoms: C_13  and  O_14
REMARK    8  A    between atoms: C_13  and  C_16
REMARK    9  A    between atoms: C_17  and  C_18
REMARK   10  A    between atoms: C_19  and  C_20
REMARK   11  A    between atoms: C_20  and  C_21
REMARK   12  A    between atoms: C_20  and  O_23
REMARK                            x       y       z     vdW  Elec       q    Type
REMARK                         _______ _______ _______ _____ _____    ______ ____
ROOT
ATOM      1  C   UNL     1       0.329  45.761  27.780  0.00  0.00    +0.000 C 
ATOM      2  C   UNL     1       1.386  45.295  28.112  0.00  0.00    +0.000 C 
ENDROOT
BRANCH   1   3
ATOM      3  C   UNL     1      -1.017  46.353  27.357  0.00  0.00    +0.000 C 
ATOM      4  C   UNL     1      -2.365  46.946  26.935  0.00  0.00    +0.000 C 
BRANCH   4   5
ATOM      5  C   UNL     1      -3.713  47.537  26.512  0.00  0.00    +0.000 C 
ATOM      6  C   UNL     1      -5.060  48.130  26.088  0.00  0.00    +0.000 C 
BRANCH   6   7
ATOM      7  C   UNL     1      -6.408  48.723  25.665  0.00  0.00    +0.000 C 
ATOM      8  C   UNL     1      -7.755  49.316  25.243  0.00  0.00    +0.000 C 
BRANCH   8   9
ATOM      9  C   UNL     1      -9.103  49.908  24.820  0.00  0.00    +0.000 C 
ATOM     10  C   UNL     1     -10.452  50.499  24.397  0.00  0.00    +0.000 C 
BRANCH  10  11
ATOM     11  O   UNL     1     -11.620  51.012  24.031  0.00  0.00    +0.000 OA
ATOM     12  H   UNL     1     -12.345  50.584  24.517  0.00  0.00    +0.000 HD
ENDBRANCH  10  11
ENDBRANCH   8   9
ENDBRANCH   6   7
ENDBRANCH   4   5
ENDBRANCH   1   3
BRANCH   2  13
ATOM     13  C   UNL     1       2.632  44.747  28.502  0.00  0.00    +0.000 C 
BRANCH  13  14
ATOM     14  O   UNL     1       2.653  43.427  28.891  0.00  0.00    +0.000 OA
ATOM     15  H   UNL     1       3.558  43.073  28.909  0.00  0.00    +0.000 HD
ENDBRANCH  13  14
BRANCH  13  16
ATOM     16  C   UNL     1       3.846  45.481  28.512  0.00  0.00    +0.000 C 
ATOM     17  C   UNL     1       4.874  46.102  28.521  0.00  0.00    +0.000 C 
BRANCH  17  18
ATOM     18  C   UNL     1       6.185  46.892  28.533  0.00  0.00    +0.000 C 
ATOM     19  C   UNL     1       7.214  47.511  28.542  0.00  0.00    +0.000 C 
BRANCH  19  20
ATOM     20  C   UNL     1       8.430  48.245  28.554  0.00  0.00    +0.000 C 
BRANCH  20  21
ATOM     21  C   UNL     1       9.668  47.698  28.990  0.00  0.00    +0.000 C 
ATOM     22  C   UNL     1      10.836  47.199  29.403  0.00  0.00    +0.000 C 
ENDBRANCH  20  21
BRANCH  20  23
ATOM     23  O   UNL     1       8.408  49.555  28.121  0.00  0.00    +0.000 OA
ATOM     24  H   UNL     1       8.416  50.182  28.864  0.00  0.00    +0.000 HD
ENDBRANCH  20  23
ENDBRANCH  19  20
ENDBRANCH  17  18
ENDBRANCH  13  16
ENDBRANCH   2  13
TORSDOF 12
ENDMDL
MODEL 6
REMARK VINA RESULT:      -4.0      8.106     14.393
REMARK  Name = 86311066_OplopantriolA.pdbqt.pdb
REMARK  12 active torsions:
REMARK  status: ('A' for Active; 'I' for Inactive)
REMARK    1  A    between atoms: C_1  and  C_3
REMARK    2  A    between atoms: C_2  and  C_13
REMARK    3  A    between atoms: C_4  and  C_5
REMARK    4  A    between atoms: C_6  and  C_7
REMARK    5  A    between atoms: C_8  and  C_9
REMARK    6  A    between atoms: C_10  and  O_11
REMARK    7  A    between atoms: C_13  and  O_14
REMARK    8  A    between atoms: C_13  and  C_16
REMARK    9  A    between atoms: C_17  and  C_18
REMARK   10  A    between atoms: C_19  and  C_20
REMARK   11  A    between atoms: C_20  and  C_21
REMARK   12  A    between atoms: C_20  and  O_23
REMARK                            x       y       z     vdW  Elec       q    Type
REMARK                         _______ _______ _______ _____ _____    ______ ____
ROOT
ATOM      1  C   UNL     1       0.149  52.546  26.479  0.00  0.00    +0.000 C 
ATOM      2  C   UNL     1      -0.502  51.722  27.063  0.00  0.00    +0.000 C 
ENDROOT
BRANCH   1   3
ATOM      3  C   UNL     1       0.978  53.596  25.734  0.00  0.00    +0.000 C 
ATOM      4  C   UNL     1       1.808  54.646  24.989  0.00  0.00    +0.000 C 
BRANCH   4   5
ATOM      5  C   UNL     1       2.638  55.696  24.245  0.00  0.00    +0.000 C 
ATOM      6  C   UNL     1       3.466  56.747  23.499  0.00  0.00    +0.000 C 
BRANCH   6   7
ATOM      7  C   UNL     1       4.295  57.797  22.754  0.00  0.00    +0.000 C 
ATOM      8  C   UNL     1       5.124  58.848  22.009  0.00  0.00    +0.000 C 
BRANCH   8   9
ATOM      9  C   UNL     1       5.954  59.897  21.263  0.00  0.00    +0.000 C 
ATOM     10  C   UNL     1       6.784  60.945  20.516  0.00  0.00    +0.000 C 
BRANCH  10  11
ATOM     11  O   UNL     1       7.503  61.855  19.869  0.00  0.00    +0.000 OA
ATOM     12  H   UNL     1       7.173  61.964  18.962  0.00  0.00    +0.000 HD
ENDBRANCH  10  11
ENDBRANCH   8   9
ENDBRANCH   6   7
ENDBRANCH   4   5
ENDBRANCH   1   3
BRANCH   2  13
ATOM     13  C   UNL     1      -1.269  50.751  27.751  0.00  0.00    +0.000 C 
BRANCH  13  14
ATOM     14  O   UNL     1      -0.842  50.372  29.003  0.00  0.00    +0.000 OA
ATOM     15  H   UNL     1      -1.297  50.870  29.702  0.00  0.00    +0.000 HD
ENDBRANCH  13  14
BRANCH  13  16
ATOM     16  C   UNL     1      -2.442  50.155  27.220  0.00  0.00    +0.000 C 
ATOM     17  C   UNL     1      -3.436  49.651  26.771  0.00  0.00    +0.000 C 
BRANCH  17  18
ATOM     18  C   UNL     1      -4.703  49.012  26.199  0.00  0.00    +0.000 C 
ATOM     19  C   UNL     1      -5.697  48.510  25.750  0.00  0.00    +0.000 C 
BRANCH  19  20
ATOM     20  C   UNL     1      -6.873  47.917  25.218  0.00  0.00    +0.000 C 
BRANCH  20  21
ATOM     21  C   UNL     1      -7.864  48.649  24.506  0.00  0.00    +0.000 C 
ATOM     22  C   UNL     1      -8.804  49.324  23.841  0.00  0.00    +0.000 C 
ENDBRANCH  20  21
BRANCH  20  23
ATOM     23  O   UNL     1      -7.064  46.562  25.401  0.00  0.00    +0.000 OA
ATOM     24  H   UNL     1      -7.899  46.258  25.007  0.00  0.00    +0.000 HD
ENDBRANCH  20  23
ENDBRANCH  19  20
ENDBRANCH  17  18
ENDBRANCH  13  16
ENDBRANCH   2  13
TORSDOF 12
ENDMDL
MODEL 7
REMARK VINA RESULT:      -3.9     28.020     29.116
REMARK  Name = 86311066_OplopantriolA.pdbqt.pdb
REMARK  12 active torsions:
REMARK  status: ('A' for Active; 'I' for Inactive)
REMARK    1  A    between atoms: C_1  and  C_3
REMARK    2  A    between atoms: C_2  and  C_13
REMARK    3  A    between atoms: C_4  and  C_5
REMARK    4  A    between atoms: C_6  and  C_7
REMARK    5  A    between atoms: C_8  and  C_9
REMARK    6  A    between atoms: C_10  and  O_11
REMARK    7  A    between atoms: C_13  and  O_14
REMARK    8  A    between atoms: C_13  and  C_16
REMARK    9  A    between atoms: C_17  and  C_18
REMARK   10  A    between atoms: C_19  and  C_20
REMARK   11  A    between atoms: C_20  and  C_21
REMARK   12  A    between atoms: C_20  and  O_23
REMARK                            x       y       z     vdW  Elec       q    Type
REMARK                         _______ _______ _______ _____ _____    ______ ____
ROOT
ATOM      1  C   UNL     1     -11.419  32.452   5.352  0.00  0.00    +0.000 C 
ATOM      2  C   UNL     1     -10.767  31.445   5.299  0.00  0.00    +0.000 C 
ENDROOT
BRANCH   1   3
ATOM      3  C   UNL     1     -12.250  33.736   5.422  0.00  0.00    +0.000 C 
ATOM      4  C   UNL     1     -13.082  35.021   5.490  0.00  0.00    +0.000 C 
BRANCH   4   5
ATOM      5  C   UNL     1     -13.912  36.306   5.558  0.00  0.00    +0.000 C 
ATOM      6  C   UNL     1     -14.744  37.590   5.629  0.00  0.00    +0.000 C 
BRANCH   6   7
ATOM      7  C   UNL     1     -15.575  38.875   5.698  0.00  0.00    +0.000 C 
ATOM      8  C   UNL     1     -16.407  40.159   5.767  0.00  0.00    +0.000 C 
BRANCH   8   9
ATOM      9  C   UNL     1     -17.238  41.443   5.838  0.00  0.00    +0.000 C 
ATOM     10  C   UNL     1     -18.069  42.728   5.909  0.00  0.00    +0.000 C 
BRANCH  10  11
ATOM     11  O   UNL     1     -18.790  43.842   5.971  0.00  0.00    +0.000 OA
ATOM     12  H   UNL     1     -18.331  44.567   5.514  0.00  0.00    +0.000 HD
ENDBRANCH  10  11
ENDBRANCH   8   9
ENDBRANCH   6   7
ENDBRANCH   4   5
ENDBRANCH   1   3
BRANCH   2  13
ATOM     13  C   UNL     1      -9.999  30.256   5.236  0.00  0.00    +0.000 C 
BRANCH  13  14
ATOM     14  O   UNL     1      -9.439  29.925   4.023  0.00  0.00    +0.000 OA
ATOM     15  H   UNL     1     -10.108  29.605   3.395  0.00  0.00    +0.000 HD
ENDBRANCH  13  14
BRANCH  13  16
ATOM     16  C   UNL     1      -9.780  29.401   6.346  0.00  0.00    +0.000 C 
ATOM     17  C   UNL     1      -9.594  28.676   7.285  0.00  0.00    +0.000 C 
BRANCH  17  18
ATOM     18  C   UNL     1      -9.355  27.752   8.482  0.00  0.00    +0.000 C 
ATOM     19  C   UNL     1      -9.167  27.027   9.421  0.00  0.00    +0.000 C 
BRANCH  19  20
ATOM     20  C   UNL     1      -8.945  26.170  10.530  0.00  0.00    +0.000 C 
BRANCH  20  21
ATOM     21  C   UNL     1      -9.547  26.368  11.804  0.00  0.00    +0.000 C 
ATOM     22  C   UNL     1     -10.106  26.540  13.004  0.00  0.00    +0.000 C 
ENDBRANCH  20  21
BRANCH  20  23
ATOM     23  O   UNL     1      -8.102  25.089  10.364  0.00  0.00    +0.000 OA
ATOM     24  H   UNL     1      -8.582  24.245  10.412  0.00  0.00    +0.000 HD
ENDBRANCH  20  23
ENDBRANCH  19  20
ENDBRANCH  17  18
ENDBRANCH  13  16
ENDBRANCH   2  13
TORSDOF 12
ENDMDL
MODEL 8
REMARK VINA RESULT:      -3.9     13.561     20.973
REMARK  Name = 86311066_OplopantriolA.pdbqt.pdb
REMARK  12 active torsions:
REMARK  status: ('A' for Active; 'I' for Inactive)
REMARK    1  A    between atoms: C_1  and  C_3
REMARK    2  A    between atoms: C_2  and  C_13
REMARK    3  A    between atoms: C_4  and  C_5
REMARK    4  A    between atoms: C_6  and  C_7
REMARK    5  A    between atoms: C_8  and  C_9
REMARK    6  A    between atoms: C_10  and  O_11
REMARK    7  A    between atoms: C_13  and  O_14
REMARK    8  A    between atoms: C_13  and  C_16
REMARK    9  A    between atoms: C_17  and  C_18
REMARK   10  A    between atoms: C_19  and  C_20
REMARK   11  A    between atoms: C_20  and  C_21
REMARK   12  A    between atoms: C_20  and  O_23
REMARK                            x       y       z     vdW  Elec       q    Type
REMARK                         _______ _______ _______ _____ _____    ______ ____
ROOT
ATOM      1  C   UNL     1     -19.128  48.234  22.744  0.00  0.00    +0.000 C 
ATOM      2  C   UNL     1     -18.442  48.961  23.410  0.00  0.00    +0.000 C 
ENDROOT
BRANCH   1   3
ATOM      3  C   UNL     1     -20.001  47.306  21.895  0.00  0.00    +0.000 C 
ATOM      4  C   UNL     1     -20.874  46.378  21.045  0.00  0.00    +0.000 C 
BRANCH   4   5
ATOM      5  C   UNL     1     -21.747  45.450  20.195  0.00  0.00    +0.000 C 
ATOM      6  C   UNL     1     -22.619  44.521  19.344  0.00  0.00    +0.000 C 
BRANCH   6   7
ATOM      7  C   UNL     1     -23.490  43.592  18.493  0.00  0.00    +0.000 C 
ATOM      8  C   UNL     1     -24.362  42.664  17.643  0.00  0.00    +0.000 C 
BRANCH   8   9
ATOM      9  C   UNL     1     -25.234  41.735  16.793  0.00  0.00    +0.000 C 
ATOM     10  C   UNL     1     -26.107  40.805  15.944  0.00  0.00    +0.000 C 
BRANCH  10  11
ATOM     11  O   UNL     1     -26.863  40.000  15.208  0.00  0.00    +0.000 OA
ATOM     12  H   UNL     1     -27.547  39.582  15.758  0.00  0.00    +0.000 HD
ENDBRANCH  10  11
ENDBRANCH   8   9
ENDBRANCH   6   7
ENDBRANCH   4   5
ENDBRANCH   1   3
BRANCH   2  13
ATOM     13  C   UNL     1     -17.632  49.818  24.195  0.00  0.00    +0.000 C 
BRANCH  13  14
ATOM     14  O   UNL     1     -18.269  50.760  24.971  0.00  0.00    +0.000 OA
ATOM     15  H   UNL     1     -18.854  51.326  24.439  0.00  0.00    +0.000 HD
ENDBRANCH  13  14
BRANCH  13  16
ATOM     16  C   UNL     1     -16.215  49.757  24.221  0.00  0.00    +0.000 C 
ATOM     17  C   UNL     1     -15.016  49.705  24.242  0.00  0.00    +0.000 C 
BRANCH  17  18
ATOM     18  C   UNL     1     -13.487  49.638  24.266  0.00  0.00    +0.000 C 
ATOM     19  C   UNL     1     -12.287  49.585  24.286  0.00  0.00    +0.000 C 
BRANCH  19  20
ATOM     20  C   UNL     1     -10.869  49.523  24.310  0.00  0.00    +0.000 C 
BRANCH  20  21
ATOM     21  C   UNL     1     -10.138  48.308  24.185  0.00  0.00    +0.000 C 
ATOM     22  C   UNL     1      -9.444  47.175  24.056  0.00  0.00    +0.000 C 
ENDBRANCH  20  21
BRANCH  20  23
ATOM     23  O   UNL     1     -10.164  50.699  24.463  0.00  0.00    +0.000 OA
ATOM     24  H   UNL     1      -9.830  51.035  23.613  0.00  0.00    +0.000 HD
ENDBRANCH  20  23
ENDBRANCH  19  20
ENDBRANCH  17  18
ENDBRANCH  13  16
ENDBRANCH   2  13
TORSDOF 12
ENDMDL
MODEL 9
REMARK VINA RESULT:      -3.8     28.669     32.405
REMARK  Name = 86311066_OplopantriolA.pdbqt.pdb
REMARK  12 active torsions:
REMARK  status: ('A' for Active; 'I' for Inactive)
REMARK    1  A    between atoms: C_1  and  C_3
REMARK    2  A    between atoms: C_2  and  C_13
REMARK    3  A    between atoms: C_4  and  C_5
REMARK    4  A    between atoms: C_6  and  C_7
REMARK    5  A    between atoms: C_8  and  C_9
REMARK    6  A    between atoms: C_10  and  O_11
REMARK    7  A    between atoms: C_13  and  O_14
REMARK    8  A    between atoms: C_13  and  C_16
REMARK    9  A    between atoms: C_17  and  C_18
REMARK   10  A    between atoms: C_19  and  C_20
REMARK   11  A    between atoms: C_20  and  C_21
REMARK   12  A    between atoms: C_20  and  O_23
REMARK                            x       y       z     vdW  Elec       q    Type
REMARK                         _______ _______ _______ _____ _____    ______ ____
ROOT
ATOM      1  C   UNL     1     -20.096  31.248   8.923  0.00  0.00    +0.000 C 
ATOM      2  C   UNL     1     -20.573  30.202   9.272  0.00  0.00    +0.000 C 
ENDROOT
BRANCH   1   3
ATOM      3  C   UNL     1     -19.488  32.581   8.478  0.00  0.00    +0.000 C 
ATOM      4  C   UNL     1     -18.879  33.913   8.031  0.00  0.00    +0.000 C 
BRANCH   4   5
ATOM      5  C   UNL     1     -18.269  35.246   7.586  0.00  0.00    +0.000 C 
ATOM      6  C   UNL     1     -17.658  36.578   7.141  0.00  0.00    +0.000 C 
BRANCH   6   7
ATOM      7  C   UNL     1     -17.047  37.911   6.697  0.00  0.00    +0.000 C 
ATOM      8  C   UNL     1     -16.437  39.244   6.252  0.00  0.00    +0.000 C 
BRANCH   8   9
ATOM      9  C   UNL     1     -15.826  40.576   5.807  0.00  0.00    +0.000 C 
ATOM     10  C   UNL     1     -15.215  41.907   5.361  0.00  0.00    +0.000 C 
BRANCH  10  11
ATOM     11  O   UNL     1     -14.685  43.062   4.974  0.00  0.00    +0.000 OA
ATOM     12  H   UNL     1     -14.783  43.730   5.674  0.00  0.00    +0.000 HD
ENDBRANCH  10  11
ENDBRANCH   8   9
ENDBRANCH   6   7
ENDBRANCH   4   5
ENDBRANCH   1   3
BRANCH   2  13
ATOM     13  C   UNL     1     -21.134  28.969   9.683  0.00  0.00    +0.000 C 
BRANCH  13  14
ATOM     14  O   UNL     1     -21.849  28.253   8.751  0.00  0.00    +0.000 OA
ATOM     15  H   UNL     1     -21.269  27.701   8.200  0.00  0.00    +0.000 HD
ENDBRANCH  13  14
BRANCH  13  16
ATOM     16  C   UNL     1     -20.997  28.440  10.993  0.00  0.00    +0.000 C 
ATOM     17  C   UNL     1     -20.882  27.992  12.101  0.00  0.00    +0.000 C 
BRANCH  17  18
ATOM     18  C   UNL     1     -20.737  27.420  13.513  0.00  0.00    +0.000 C 
ATOM     19  C   UNL     1     -20.623  26.971  14.621  0.00  0.00    +0.000 C 
BRANCH  19  20
ATOM     20  C   UNL     1     -20.487  26.441  15.931  0.00  0.00    +0.000 C 
BRANCH  20  21
ATOM     21  C   UNL     1     -19.644  27.015  16.923  0.00  0.00    +0.000 C 
ATOM     22  C   UNL     1     -18.840  27.552  17.844  0.00  0.00    +0.000 C 
ENDBRANCH  20  21
BRANCH  20  23
ATOM     23  O   UNL     1     -21.209  25.310  16.258  0.00  0.00    +0.000 OA
ATOM     24  H   UNL     1     -22.158  25.422  16.076  0.00  0.00    +0.000 HD
ENDBRANCH  20  23
ENDBRANCH  19  20
ENDBRANCH  17  18
ENDBRANCH  13  16
ENDBRANCH   2  13
TORSDOF 12
ENDMDL
