MODEL 1
REMARK VINA RESULT:      -8.0      0.000      0.000
REMARK  Name = 91746246_sitosterol.pdbqt.pdb
REMARK  10 active torsions:
REMARK  status: ('A' for Active; 'I' for Inactive)
REMARK    1  A    between atoms: C_5  and  C_20
REMARK    2  A    between atoms: C_19  and  O_30
REMARK    3  A    between atoms: C_20  and  C_22
REMARK    4  A    between atoms: C_23  and  C_24
REMARK    5  A    between atoms: C_24  and  C_28
REMARK    6  A    between atoms: O_30  and  C_32
REMARK    7  A    between atoms: C_32  and  C_33
REMARK    8  A    between atoms: C_34  and  C_35
REMARK    9  A    between atoms: C_38  and  O_41
REMARK   10  A    between atoms: C_40  and  O_43
REMARK                            x       y       z     vdW  Elec       q    Type
REMARK                         _______ _______ _______ _____ _____    ______ ____
ROOT
ATOM      1  C   UNL     1      -1.066  48.595  28.319  0.00  0.00    +0.000 C 
ATOM      2  C   UNL     1      -0.282  47.200  28.066  0.00  0.00    +0.000 C 
ATOM      3  C   UNL     1       0.240  46.376  29.175  0.00  0.00    +0.000 C 
ATOM      4  C   UNL     1      -0.087  46.550  30.637  0.00  0.00    +0.000 C 
ATOM      5  C   UNL     1      -2.233  48.515  27.343  0.00  0.00    +0.000 C 
ATOM      6  C   UNL     1      -1.438  48.558  29.732  0.00  0.00    +0.000 C 
ATOM      7  C   UNL     1       0.534  45.687  31.766  0.00  0.00    +0.000 C 
ATOM      8  C   UNL     1      -0.879  46.577  26.925  0.00  0.00    +0.000 C 
ATOM      9  C   UNL     1      -0.979  47.637  30.836  0.00  0.00    +0.000 C 
ATOM     10  C   UNL     1      -2.087  47.370  26.506  0.00  0.00    +0.000 C 
ATOM     11  C   UNL     1       1.003  45.209  28.922  0.00  0.00    +0.000 C 
ATOM     12  C   UNL     1      -0.090  49.740  27.935  0.00  0.00    +0.000 C 
ATOM     13  C   UNL     1       1.218  44.281  31.238  0.00  0.00    +0.000 C 
ATOM     14  C   UNL     1      -0.525  45.230  32.714  0.00  0.00    +0.000 C 
ATOM     15  C   UNL     1       1.449  44.225  29.962  0.00  0.00    +0.000 C 
ATOM     16  C   UNL     1       1.651  46.502  32.483  0.00  0.00    +0.000 C 
ATOM     17  C   UNL     1       0.742  43.079  31.886  0.00  0.00    +0.000 C 
ATOM     18  C   UNL     1      -0.941  43.856  33.266  0.00  0.00    +0.000 C 
ATOM     19  C   UNL     1      -0.256  42.668  32.838  0.00  0.00    +0.000 C 
ENDROOT
BRANCH   5  20
ATOM     20  C   UNL     1      -3.176  49.566  27.130  0.00  0.00    +0.000 C 
ATOM     21  C   UNL     1      -2.939  50.970  27.617  0.00  0.00    +0.000 C 
BRANCH  20  22
ATOM     22  C   UNL     1      -4.493  49.286  26.671  0.00  0.00    +0.000 C 
ATOM     23  C   UNL     1      -5.915  48.982  26.175  0.00  0.00    +0.000 C 
BRANCH  23  24
ATOM     24  C   UNL     1      -7.231  48.685  25.705  0.00  0.00    +0.000 C 
ATOM     25  C   UNL     1      -7.637  47.324  25.425  0.00  0.00    +0.000 C 
ATOM     26  C   UNL     1      -9.003  46.959  24.887  0.00  0.00    +0.000 C 
ATOM     27  C   UNL     1      -6.725  46.135  25.649  0.00  0.00    +0.000 C 
BRANCH  24  28
ATOM     28  C   UNL     1      -8.158  49.743  25.509  0.00  0.00    +0.000 C 
ATOM     29  C   UNL     1      -9.133  50.916  25.354  0.00  0.00    +0.000 C 
ENDBRANCH  24  28
ENDBRANCH  23  24
ENDBRANCH  20  22
ENDBRANCH   5  20
BRANCH  19  30
ATOM     30  O   UNL     1       0.071  41.669  33.749  0.00  0.00    +0.000 OA
BRANCH  30  32
ATOM     31  O   UNL     1       0.056  39.669  32.563  0.00  0.00    +0.000 OA
ATOM     32  C   UNL     1      -0.424  40.456  33.365  0.00  0.00    +0.000 C 
BRANCH  32  33
ATOM     33  C   UNL     1      -1.645  40.138  34.063  0.00  0.00    +0.000 C 
ATOM     34  C   UNL     1      -2.660  39.889  34.655  0.00  0.00    +0.000 C 
BRANCH  34  35
ATOM     35  C   UNL     1      -3.863  39.609  35.368  0.00  0.00    +0.000 A 
ATOM     36  C   UNL     1      -3.996  40.030  36.691  0.00  0.00    +0.000 A 
ATOM     37  C   UNL     1      -4.896  38.912  34.749  0.00  0.00    +0.000 A 
ATOM     38  C   UNL     1      -5.164  39.761  37.409  0.00  0.00    +0.000 A 
ATOM     39  C   UNL     1      -6.066  38.636  35.452  0.00  0.00    +0.000 A 
ATOM     40  C   UNL     1      -6.193  39.059  36.775  0.00  0.00    +0.000 A 
BRANCH  38  41
ATOM     41  O   UNL     1      -5.376  40.137  38.713  0.00  0.00    +0.000 OA
ATOM     42  C   UNL     1      -4.469  41.078  39.226  0.00  0.00    +0.000 C 
ENDBRANCH  38  41
BRANCH  40  43
ATOM     43  O   UNL     1      -7.344  38.784  37.461  0.00  0.00    +0.000 OA
ATOM     44  H   UNL     1      -7.941  39.553  37.393  0.00  0.00    +0.000 HD
ENDBRANCH  40  43
ENDBRANCH  34  35
ENDBRANCH  32  33
ENDBRANCH  30  32
ENDBRANCH  19  30
TORSDOF 10
ENDMDL
MODEL 2
REMARK VINA RESULT:      -7.9     28.007     31.462
REMARK  Name = 91746246_sitosterol.pdbqt.pdb
REMARK  10 active torsions:
REMARK  status: ('A' for Active; 'I' for Inactive)
REMARK    1  A    between atoms: C_5  and  C_20
REMARK    2  A    between atoms: C_19  and  O_30
REMARK    3  A    between atoms: C_20  and  C_22
REMARK    4  A    between atoms: C_23  and  C_24
REMARK    5  A    between atoms: C_24  and  C_28
REMARK    6  A    between atoms: O_30  and  C_32
REMARK    7  A    between atoms: C_32  and  C_33
REMARK    8  A    between atoms: C_34  and  C_35
REMARK    9  A    between atoms: C_38  and  O_41
REMARK   10  A    between atoms: C_40  and  O_43
REMARK                            x       y       z     vdW  Elec       q    Type
REMARK                         _______ _______ _______ _____ _____    ______ ____
ROOT
ATOM      1  C   UNL     1     -12.809  33.621   4.404  0.00  0.00    +0.000 C 
ATOM      2  C   UNL     1     -12.950  35.116   5.014  0.00  0.00    +0.000 C 
ATOM      3  C   UNL     1     -14.258  35.781   5.179  0.00  0.00    +0.000 C 
ATOM      4  C   UNL     1     -15.609  35.119   5.065  0.00  0.00    +0.000 C 
ATOM      5  C   UNL     1     -11.783  32.970   5.323  0.00  0.00    +0.000 C 
ATOM      6  C   UNL     1     -14.157  33.061   4.488  0.00  0.00    +0.000 C 
ATOM      7  C   UNL     1     -16.954  35.880   5.194  0.00  0.00    +0.000 C 
ATOM      8  C   UNL     1     -11.936  35.264   6.013  0.00  0.00    +0.000 C 
ATOM      9  C   UNL     1     -15.478  33.737   4.765  0.00  0.00    +0.000 C 
ATOM     10  C   UNL     1     -11.246  33.943   6.216  0.00  0.00    +0.000 C 
ATOM     11  C   UNL     1     -14.345  37.122   5.627  0.00  0.00    +0.000 C 
ATOM     12  C   UNL     1     -12.258  33.771   2.961  0.00  0.00    +0.000 C 
ATOM     13  C   UNL     1     -16.821  37.361   5.911  0.00  0.00    +0.000 C 
ATOM     14  C   UNL     1     -17.888  35.137   6.090  0.00  0.00    +0.000 C 
ATOM     15  C   UNL     1     -15.616  37.839   5.970  0.00  0.00    +0.000 C 
ATOM     16  C   UNL     1     -17.556  36.107   3.777  0.00  0.00    +0.000 C 
ATOM     17  C   UNL     1     -17.684  37.577   7.051  0.00  0.00    +0.000 C 
ATOM     18  C   UNL     1     -18.703  35.523   7.336  0.00  0.00    +0.000 C 
ATOM     19  C   UNL     1     -18.618  36.852   7.872  0.00  0.00    +0.000 C 
ENDROOT
BRANCH   5  20
ATOM     20  C   UNL     1     -11.257  31.656   5.135  0.00  0.00    +0.000 C 
ATOM     21  C   UNL     1     -11.051  31.059   3.769  0.00  0.00    +0.000 C 
BRANCH  20  22
ATOM     22  C   UNL     1     -11.135  30.753   6.228  0.00  0.00    +0.000 C 
ATOM     23  C   UNL     1     -11.003  29.779   7.409  0.00  0.00    +0.000 C 
BRANCH  23  24
ATOM     24  C   UNL     1     -10.863  28.879   8.508  0.00  0.00    +0.000 C 
ATOM     25  C   UNL     1     -12.013  28.213   9.083  0.00  0.00    +0.000 C 
ATOM     26  C   UNL     1     -11.926  27.283  10.273  0.00  0.00    +0.000 C 
ATOM     27  C   UNL     1     -13.416  28.387   8.538  0.00  0.00    +0.000 C 
BRANCH  24  28
ATOM     28  C   UNL     1      -9.573  28.632   9.049  0.00  0.00    +0.000 C 
ATOM     29  C   UNL     1      -8.199  28.403   9.689  0.00  0.00    +0.000 C 
ENDBRANCH  24  28
ENDBRANCH  23  24
ENDBRANCH  20  22
ENDBRANCH   5  20
BRANCH  19  30
ATOM     30  O   UNL     1     -19.758  37.514   8.319  0.00  0.00    +0.000 OA
BRANCH  30  32
ATOM     31  O   UNL     1     -21.565  37.003   6.947  0.00  0.00    +0.000 OA
ATOM     32  C   UNL     1     -20.646  37.725   7.304  0.00  0.00    +0.000 C 
BRANCH  32  33
ATOM     33  C   UNL     1     -20.413  38.990   6.652  0.00  0.00    +0.000 C 
ATOM     34  C   UNL     1     -20.215  40.051   6.125  0.00  0.00    +0.000 C 
BRANCH  34  35
ATOM     35  C   UNL     1     -19.976  41.319   5.517  0.00  0.00    +0.000 A 
ATOM     36  C   UNL     1     -18.715  41.905   5.614  0.00  0.00    +0.000 A 
ATOM     37  C   UNL     1     -21.000  41.971   4.837  0.00  0.00    +0.000 A 
ATOM     38  C   UNL     1     -18.461  43.149   5.029  0.00  0.00    +0.000 A 
ATOM     39  C   UNL     1     -20.762  43.212   4.250  0.00  0.00    +0.000 A 
ATOM     40  C   UNL     1     -19.499  43.793   4.350  0.00  0.00    +0.000 A 
BRANCH  38  41
ATOM     41  O   UNL     1     -17.251  43.796   5.079  0.00  0.00    +0.000 OA
ATOM     42  C   UNL     1     -16.222  43.213   4.321  0.00  0.00    +0.000 C 
ENDBRANCH  38  41
BRANCH  40  43
ATOM     43  O   UNL     1     -19.272  45.013   3.774  0.00  0.00    +0.000 OA
ATOM     44  H   UNL     1     -19.989  45.197   3.139  0.00  0.00    +0.000 HD
ENDBRANCH  40  43
ENDBRANCH  34  35
ENDBRANCH  32  33
ENDBRANCH  30  32
ENDBRANCH  19  30
TORSDOF 10
ENDMDL
MODEL 3
REMARK VINA RESULT:      -7.8      6.499      9.843
REMARK  Name = 91746246_sitosterol.pdbqt.pdb
REMARK  10 active torsions:
REMARK  status: ('A' for Active; 'I' for Inactive)
REMARK    1  A    between atoms: C_5  and  C_20
REMARK    2  A    between atoms: C_19  and  O_30
REMARK    3  A    between atoms: C_20  and  C_22
REMARK    4  A    between atoms: C_23  and  C_24
REMARK    5  A    between atoms: C_24  and  C_28
REMARK    6  A    between atoms: O_30  and  C_32
REMARK    7  A    between atoms: C_32  and  C_33
REMARK    8  A    between atoms: C_34  and  C_35
REMARK    9  A    between atoms: C_38  and  O_41
REMARK   10  A    between atoms: C_40  and  O_43
REMARK                            x       y       z     vdW  Elec       q    Type
REMARK                         _______ _______ _______ _____ _____    ______ ____
ROOT
ATOM      1  C   UNL     1       0.208  53.001  28.635  0.00  0.00    +0.000 C 
ATOM      2  C   UNL     1       0.764  51.479  28.653  0.00  0.00    +0.000 C 
ATOM      3  C   UNL     1      -0.137  50.309  28.668  0.00  0.00    +0.000 C 
ATOM      4  C   UNL     1      -1.624  50.334  28.413  0.00  0.00    +0.000 C 
ATOM      5  C   UNL     1       1.108  53.683  27.612  0.00  0.00    +0.000 C 
ATOM      6  C   UNL     1      -1.194  52.875  28.238  0.00  0.00    +0.000 C 
ATOM      7  C   UNL     1      -2.532  49.079  28.495  0.00  0.00    +0.000 C 
ATOM      8  C   UNL     1       1.962  51.454  27.871  0.00  0.00    +0.000 C 
ATOM      9  C   UNL     1      -2.077  51.655  28.153  0.00  0.00    +0.000 C 
ATOM     10  C   UNL     1       2.151  52.795  27.215  0.00  0.00    +0.000 C 
ATOM     11  C   UNL     1       0.375  48.993  28.779  0.00  0.00    +0.000 C 
ATOM     12  C   UNL     1       0.431  53.582  30.056  0.00  0.00    +0.000 C 
ATOM     13  C   UNL     1      -1.710  47.650  28.431  0.00  0.00    +0.000 C 
ATOM     14  C   UNL     1      -3.441  49.016  27.313  0.00  0.00    +0.000 C 
ATOM     15  C   UNL     1      -0.434  47.737  28.654  0.00  0.00    +0.000 C 
ATOM     16  C   UNL     1      -3.317  49.100  29.839  0.00  0.00    +0.000 C 
ATOM     17  C   UNL     1      -2.150  46.727  27.409  0.00  0.00    +0.000 C 
ATOM     18  C   UNL     1      -3.752  47.936  26.264  0.00  0.00    +0.000 C 
ATOM     19  C   UNL     1      -3.069  46.674  26.302  0.00  0.00    +0.000 C 
ENDROOT
BRANCH   5  20
ATOM     20  C   UNL     1       1.062  55.077  27.305  0.00  0.00    +0.000 C 
ATOM     21  C   UNL     1       1.534  56.129  28.272  0.00  0.00    +0.000 C 
BRANCH  20  22
ATOM     22  C   UNL     1       0.341  55.555  26.176  0.00  0.00    +0.000 C 
ATOM     23  C   UNL     1      -0.441  56.070  24.957  0.00  0.00    +0.000 C 
BRANCH  23  24
ATOM     24  C   UNL     1      -1.167  56.532  23.818  0.00  0.00    +0.000 C 
ATOM     25  C   UNL     1      -0.551  56.591  22.510  0.00  0.00    +0.000 C 
ATOM     26  C   UNL     1      -1.261  57.110  21.279  0.00  0.00    +0.000 C 
ATOM     27  C   UNL     1       0.870  56.132  22.253  0.00  0.00    +0.000 C 
BRANCH  24  28
ATOM     28  C   UNL     1      -2.519  56.941  23.970  0.00  0.00    +0.000 C 
ATOM     29  C   UNL     1      -3.981  57.345  24.193  0.00  0.00    +0.000 C 
ENDBRANCH  24  28
ENDBRANCH  23  24
ENDBRANCH  20  22
ENDBRANCH   5  20
BRANCH  19  30
ATOM     30  O   UNL     1      -3.756  45.486  26.070  0.00  0.00    +0.000 OA
BRANCH  30  32
ATOM     31  O   UNL     1      -4.822  44.773  28.010  0.00  0.00    +0.000 OA
ATOM     32  C   UNL     1      -4.808  45.338  26.927  0.00  0.00    +0.000 C 
BRANCH  32  33
ATOM     33  C   UNL     1      -5.995  45.984  26.423  0.00  0.00    +0.000 C 
ATOM     34  C   UNL     1      -6.992  46.506  26.001  0.00  0.00    +0.000 C 
BRANCH  34  35
ATOM     35  C   UNL     1      -8.184  47.107  25.500  0.00  0.00    +0.000 A 
ATOM     36  C   UNL     1      -9.384  46.942  26.188  0.00  0.00    +0.000 A 
ATOM     37  C   UNL     1      -8.149  47.851  24.324  0.00  0.00    +0.000 A 
ATOM     38  C   UNL     1     -10.564  47.519  25.711  0.00  0.00    +0.000 A 
ATOM     39  C   UNL     1      -9.317  48.431  23.835  0.00  0.00    +0.000 A 
ATOM     40  C   UNL     1     -10.515  48.262  24.528  0.00  0.00    +0.000 A 
BRANCH  38  41
ATOM     41  O   UNL     1     -11.787  47.403  26.326  0.00  0.00    +0.000 OA
ATOM     42  C   UNL     1     -11.844  47.863  27.651  0.00  0.00    +0.000 C 
ENDBRANCH  38  41
BRANCH  40  43
ATOM     43  O   UNL     1     -11.660  48.832  24.043  0.00  0.00    +0.000 OA
ATOM     44  H   UNL     1     -12.423  48.464  24.527  0.00  0.00    +0.000 HD
ENDBRANCH  40  43
ENDBRANCH  34  35
ENDBRANCH  32  33
ENDBRANCH  30  32
ENDBRANCH  19  30
TORSDOF 10
ENDMDL
MODEL 4
REMARK VINA RESULT:      -7.8      9.505     15.446
REMARK  Name = 91746246_sitosterol.pdbqt.pdb
REMARK  10 active torsions:
REMARK  status: ('A' for Active; 'I' for Inactive)
REMARK    1  A    between atoms: C_5  and  C_20
REMARK    2  A    between atoms: C_19  and  O_30
REMARK    3  A    between atoms: C_20  and  C_22
REMARK    4  A    between atoms: C_23  and  C_24
REMARK    5  A    between atoms: C_24  and  C_28
REMARK    6  A    between atoms: O_30  and  C_32
REMARK    7  A    between atoms: C_32  and  C_33
REMARK    8  A    between atoms: C_34  and  C_35
REMARK    9  A    between atoms: C_38  and  O_41
REMARK   10  A    between atoms: C_40  and  O_43
REMARK                            x       y       z     vdW  Elec       q    Type
REMARK                         _______ _______ _______ _____ _____    ______ ____
ROOT
ATOM      1  C   UNL     1      -0.514  51.851  28.076  0.00  0.00    +0.000 C 
ATOM      2  C   UNL     1      -1.145  53.329  28.287  0.00  0.00    +0.000 C 
ATOM      3  C   UNL     1      -0.728  54.489  27.474  0.00  0.00    +0.000 C 
ATOM      4  C   UNL     1       0.102  54.435  26.216  0.00  0.00    +0.000 C 
ATOM      5  C   UNL     1      -1.734  50.942  28.151  0.00  0.00    +0.000 C 
ATOM      6  C   UNL     1       0.132  51.911  26.765  0.00  0.00    +0.000 C 
ATOM      7  C   UNL     1       0.556  55.693  25.430  0.00  0.00    +0.000 C 
ATOM      8  C   UNL     1      -2.519  53.157  28.645  0.00  0.00    +0.000 C 
ATOM      9  C   UNL     1       0.455  53.098  25.892  0.00  0.00    +0.000 C 
ATOM     10  C   UNL     1      -2.880  51.701  28.532  0.00  0.00    +0.000 C 
ATOM     11  C   UNL     1      -1.227  55.787  27.743  0.00  0.00    +0.000 C 
ATOM     12  C   UNL     1       0.452  51.596  29.264  0.00  0.00    +0.000 C 
ATOM     13  C   UNL     1      -0.298  57.057  25.795  0.00  0.00    +0.000 C 
ATOM     14  C   UNL     1       0.318  55.508  23.968  0.00  0.00    +0.000 C 
ATOM     15  C   UNL     1      -0.989  56.999  26.893  0.00  0.00    +0.000 C 
ATOM     16  C   UNL     1       2.052  55.986  25.748  0.00  0.00    +0.000 C 
ATOM     17  C   UNL     1      -0.891  57.737  24.666  0.00  0.00    +0.000 C 
ATOM     18  C   UNL     1      -0.410  56.333  22.894  0.00  0.00    +0.000 C 
ATOM     19  C   UNL     1      -1.067  57.560  23.248  0.00  0.00    +0.000 C 
ENDROOT
BRANCH   5  20
ATOM     20  C   UNL     1      -1.678  49.516  28.106  0.00  0.00    +0.000 C 
ATOM     21  C   UNL     1      -0.445  48.747  28.497  0.00  0.00    +0.000 C 
BRANCH  20  22
ATOM     22  C   UNL     1      -2.694  48.763  27.454  0.00  0.00    +0.000 C 
ATOM     23  C   UNL     1      -3.792  47.950  26.752  0.00  0.00    +0.000 C 
BRANCH  23  24
ATOM     24  C   UNL     1      -4.808  47.180  26.109  0.00  0.00    +0.000 C 
ATOM     25  C   UNL     1      -6.131  47.724  25.884  0.00  0.00    +0.000 C 
ATOM     26  C   UNL     1      -7.255  46.938  25.246  0.00  0.00    +0.000 C 
ATOM     27  C   UNL     1      -6.509  49.140  26.266  0.00  0.00    +0.000 C 
BRANCH  24  28
ATOM     28  C   UNL     1      -4.518  45.856  25.684  0.00  0.00    +0.000 C 
ATOM     29  C   UNL     1      -4.166  44.454  25.174  0.00  0.00    +0.000 C 
ENDBRANCH  24  28
ENDBRANCH  23  24
ENDBRANCH  20  22
ENDBRANCH   5  20
BRANCH  19  30
ATOM     30  O   UNL     1      -0.976  58.679  22.426  0.00  0.00    +0.000 OA
BRANCH  30  32
ATOM     31  O   UNL     1      -0.465  58.309  20.187  0.00  0.00    +0.000 OA
ATOM     32  C   UNL     1      -1.247  58.370  21.124  0.00  0.00    +0.000 C 
BRANCH  32  33
ATOM     33  C   UNL     1      -2.643  58.065  20.933  0.00  0.00    +0.000 C 
ATOM     34  C   UNL     1      -3.802  57.796  20.763  0.00  0.00    +0.000 C 
BRANCH  34  35
ATOM     35  C   UNL     1      -5.172  57.462  20.550  0.00  0.00    +0.000 A 
ATOM     36  C   UNL     1      -5.766  57.733  19.318  0.00  0.00    +0.000 A 
ATOM     37  C   UNL     1      -5.915  56.874  21.571  0.00  0.00    +0.000 A 
ATOM     38  C   UNL     1      -7.109  57.418  19.091  0.00  0.00    +0.000 A 
ATOM     39  C   UNL     1      -7.254  56.556  21.358  0.00  0.00    +0.000 A 
ATOM     40  C   UNL     1      -7.842  56.830  20.124  0.00  0.00    +0.000 A 
BRANCH  38  41
ATOM     41  O   UNL     1      -7.770  57.653  17.910  0.00  0.00    +0.000 OA
ATOM     42  C   UNL     1      -7.399  56.829  16.835  0.00  0.00    +0.000 C 
ENDBRANCH  38  41
BRANCH  40  43
ATOM     43  O   UNL     1      -9.159  56.516  19.923  0.00  0.00    +0.000 OA
ATOM     44  H   UNL     1      -9.380  55.733  20.461  0.00  0.00    +0.000 HD
ENDBRANCH  40  43
ENDBRANCH  34  35
ENDBRANCH  32  33
ENDBRANCH  30  32
ENDBRANCH  19  30
TORSDOF 10
ENDMDL
MODEL 5
REMARK VINA RESULT:      -7.7     24.761     28.826
REMARK  Name = 91746246_sitosterol.pdbqt.pdb
REMARK  10 active torsions:
REMARK  status: ('A' for Active; 'I' for Inactive)
REMARK    1  A    between atoms: C_5  and  C_20
REMARK    2  A    between atoms: C_19  and  O_30
REMARK    3  A    between atoms: C_20  and  C_22
REMARK    4  A    between atoms: C_23  and  C_24
REMARK    5  A    between atoms: C_24  and  C_28
REMARK    6  A    between atoms: O_30  and  C_32
REMARK    7  A    between atoms: C_32  and  C_33
REMARK    8  A    between atoms: C_34  and  C_35
REMARK    9  A    between atoms: C_38  and  O_41
REMARK   10  A    between atoms: C_40  and  O_43
REMARK                            x       y       z     vdW  Elec       q    Type
REMARK                         _______ _______ _______ _____ _____    ______ ____
ROOT
ATOM      1  C   UNL     1     -25.146  38.749  20.022  0.00  0.00    +0.000 C 
ATOM      2  C   UNL     1     -26.265  39.680  19.310  0.00  0.00    +0.000 C 
ATOM      3  C   UNL     1     -26.299  41.146  19.484  0.00  0.00    +0.000 C 
ATOM      4  C   UNL     1     -25.209  41.991  20.095  0.00  0.00    +0.000 C 
ATOM      5  C   UNL     1     -24.748  37.782  18.914  0.00  0.00    +0.000 C 
ATOM      6  C   UNL     1     -24.098  39.683  20.433  0.00  0.00    +0.000 C 
ATOM      7  C   UNL     1     -25.321  43.524  20.302  0.00  0.00    +0.000 C 
ATOM      8  C   UNL     1     -26.552  39.100  18.034  0.00  0.00    +0.000 C 
ATOM      9  C   UNL     1     -24.109  41.190  20.503  0.00  0.00    +0.000 C 
ATOM     10  C   UNL     1     -25.603  37.959  17.786  0.00  0.00    +0.000 C 
ATOM     11  C   UNL     1     -27.343  41.924  18.927  0.00  0.00    +0.000 C 
ATOM     12  C   UNL     1     -25.849  38.008  21.190  0.00  0.00    +0.000 C 
ATOM     13  C   UNL     1     -26.510  44.236  19.406  0.00  0.00    +0.000 C 
ATOM     14  C   UNL     1     -24.076  44.205  19.841  0.00  0.00    +0.000 C 
ATOM     15  C   UNL     1     -27.394  43.423  18.915  0.00  0.00    +0.000 C 
ATOM     16  C   UNL     1     -25.632  43.819  21.799  0.00  0.00    +0.000 C 
ATOM     17  C   UNL     1     -26.082  45.341  18.577  0.00  0.00    +0.000 C 
ATOM     18  C   UNL     1     -23.791  45.367  18.876  0.00  0.00    +0.000 C 
ATOM     19  C   UNL     1     -24.872  46.012  18.183  0.00  0.00    +0.000 C 
ENDROOT
BRANCH   5  20
ATOM     20  C   UNL     1     -23.837  36.696  19.085  0.00  0.00    +0.000 C 
ATOM     21  C   UNL     1     -22.348  36.864  18.943  0.00  0.00    +0.000 C 
BRANCH  20  22
ATOM     22  C   UNL     1     -24.303  35.353  19.150  0.00  0.00    +0.000 C 
ATOM     23  C   UNL     1     -24.807  33.903  19.222  0.00  0.00    +0.000 C 
BRANCH  23  24
ATOM     24  C   UNL     1     -25.270  32.556  19.306  0.00  0.00    +0.000 C 
ATOM     25  C   UNL     1     -26.646  32.216  19.009  0.00  0.00    +0.000 C 
ATOM     26  C   UNL     1     -27.199  30.813  19.123  0.00  0.00    +0.000 C 
ATOM     27  C   UNL     1     -27.662  33.243  18.552  0.00  0.00    +0.000 C 
BRANCH  24  28
ATOM     28  C   UNL     1     -24.367  31.528  19.689  0.00  0.00    +0.000 C 
ATOM     29  C   UNL     1     -23.422  30.378  20.054  0.00  0.00    +0.000 C 
ENDBRANCH  24  28
ENDBRANCH  23  24
ENDBRANCH  20  22
ENDBRANCH   5  20
BRANCH  19  30
ATOM     30  O   UNL     1     -24.899  47.396  18.040  0.00  0.00    +0.000 OA
BRANCH  30  32
ATOM     31  O   UNL     1     -23.174  48.574  17.018  0.00  0.00    +0.000 OA
ATOM     32  C   UNL     1     -24.127  47.809  16.993  0.00  0.00    +0.000 C 
BRANCH  32  33
ATOM     33  C   UNL     1     -24.540  47.194  15.756  0.00  0.00    +0.000 C 
ATOM     34  C   UNL     1     -24.876  46.666  14.730  0.00  0.00    +0.000 C 
BRANCH  34  35
ATOM     35  C   UNL     1     -25.264  46.023  13.518  0.00  0.00    +0.000 A 
ATOM     36  C   UNL     1     -25.861  44.764  13.563  0.00  0.00    +0.000 A 
ATOM     37  C   UNL     1     -25.040  46.647  12.294  0.00  0.00    +0.000 A 
ATOM     38  C   UNL     1     -26.244  44.115  12.386  0.00  0.00    +0.000 A 
ATOM     39  C   UNL     1     -25.416  46.012  11.113  0.00  0.00    +0.000 A 
ATOM     40  C   UNL     1     -26.013  44.753  11.164  0.00  0.00    +0.000 A 
BRANCH  38  41
ATOM     41  O   UNL     1     -26.836  42.877  12.342  0.00  0.00    +0.000 OA
ATOM     42  C   UNL     1     -26.837  42.163  13.551  0.00  0.00    +0.000 C 
ENDBRANCH  38  41
BRANCH  40  43
ATOM     43  O   UNL     1     -26.378  44.133  10.000  0.00  0.00    +0.000 OA
ATOM     44  H   UNL     1     -26.368  43.168  10.144  0.00  0.00    +0.000 HD
ENDBRANCH  40  43
ENDBRANCH  34  35
ENDBRANCH  32  33
ENDBRANCH  30  32
ENDBRANCH  19  30
TORSDOF 10
ENDMDL
MODEL 6
REMARK VINA RESULT:      -7.5     28.843     31.175
REMARK  Name = 91746246_sitosterol.pdbqt.pdb
REMARK  10 active torsions:
REMARK  status: ('A' for Active; 'I' for Inactive)
REMARK    1  A    between atoms: C_5  and  C_20
REMARK    2  A    between atoms: C_19  and  O_30
REMARK    3  A    between atoms: C_20  and  C_22
REMARK    4  A    between atoms: C_23  and  C_24
REMARK    5  A    between atoms: C_24  and  C_28
REMARK    6  A    between atoms: O_30  and  C_32
REMARK    7  A    between atoms: C_32  and  C_33
REMARK    8  A    between atoms: C_34  and  C_35
REMARK    9  A    between atoms: C_38  and  O_41
REMARK   10  A    between atoms: C_40  and  O_43
REMARK                            x       y       z     vdW  Elec       q    Type
REMARK                         _______ _______ _______ _____ _____    ______ ____
ROOT
ATOM      1  C   UNL     1     -16.962  41.137   4.148  0.00  0.00    +0.000 C 
ATOM      2  C   UNL     1     -15.999  40.345   5.183  0.00  0.00    +0.000 C 
ATOM      3  C   UNL     1     -15.698  38.906   5.039  0.00  0.00    +0.000 C 
ATOM      4  C   UNL     1     -16.002  38.055   3.831  0.00  0.00    +0.000 C 
ATOM      5  C   UNL     1     -16.217  42.445   3.916  0.00  0.00    +0.000 C 
ATOM      6  C   UNL     1     -17.049  40.259   2.982  0.00  0.00    +0.000 C 
ATOM      7  C   UNL     1     -15.712  36.533   3.756  0.00  0.00    +0.000 C 
ATOM      8  C   UNL     1     -14.975  41.256   5.593  0.00  0.00    +0.000 C 
ATOM      9  C   UNL     1     -16.637  38.817   2.814  0.00  0.00    +0.000 C 
ATOM     10  C   UNL     1     -15.097  42.526   4.795  0.00  0.00    +0.000 C 
ATOM     11  C   UNL     1     -14.929  38.219   6.010  0.00  0.00    +0.000 C 
ATOM     12  C   UNL     1     -18.310  41.380   4.879  0.00  0.00    +0.000 C 
ATOM     13  C   UNL     1     -14.644  35.997   4.894  0.00  0.00    +0.000 C 
ATOM     14  C   UNL     1     -15.051  36.193   2.462  0.00  0.00    +0.000 C 
ATOM     15  C   UNL     1     -14.442  36.807   5.888  0.00  0.00    +0.000 C 
ATOM     16  C   UNL     1     -17.040  35.746   3.962  0.00  0.00    +0.000 C 
ATOM     17  C   UNL     1     -13.504  35.271   4.379  0.00  0.00    +0.000 C 
ATOM     18  C   UNL     1     -13.765  35.437   2.089  0.00  0.00    +0.000 C 
ATOM     19  C   UNL     1     -12.910  34.914   3.118  0.00  0.00    +0.000 C 
ENDROOT
BRANCH   5  20
ATOM     20  C   UNL     1     -16.718  43.526   3.130  0.00  0.00    +0.000 C 
ATOM     21  C   UNL     1     -18.149  43.984   3.211  0.00  0.00    +0.000 C 
BRANCH  20  22
ATOM     22  C   UNL     1     -15.958  44.063   2.053  0.00  0.00    +0.000 C 
ATOM     23  C   UNL     1     -15.137  44.640   0.890  0.00  0.00    +0.000 C 
BRANCH  23  24
ATOM     24  C   UNL     1     -14.361  45.183  -0.178  0.00  0.00    +0.000 C 
ATOM     25  C   UNL     1     -13.483  44.345  -0.967  0.00  0.00    +0.000 C 
ATOM     26  C   UNL     1     -12.609  44.875  -2.083  0.00  0.00    +0.000 C 
ATOM     27  C   UNL     1     -13.362  42.851  -0.748  0.00  0.00    +0.000 C 
BRANCH  24  28
ATOM     28  C   UNL     1     -14.450  46.569  -0.473  0.00  0.00    +0.000 C 
ATOM     29  C   UNL     1     -14.615  48.063  -0.776  0.00  0.00    +0.000 C 
ENDBRANCH  24  28
ENDBRANCH  23  24
ENDBRANCH  20  22
ENDBRANCH   5  20
BRANCH  19  30
ATOM     30  O   UNL     1     -12.335  33.653   2.991  0.00  0.00    +0.000 OA
BRANCH  30  32
ATOM     31  O   UNL     1     -11.510  32.697   4.945  0.00  0.00    +0.000 OA
ATOM     32  C   UNL     1     -11.408  33.423   3.967  0.00  0.00    +0.000 C 
BRANCH  32  33
ATOM     33  C   UNL     1     -10.184  34.141   3.713  0.00  0.00    +0.000 C 
ATOM     34  C   UNL     1      -9.154  34.725   3.507  0.00  0.00    +0.000 C 
BRANCH  34  35
ATOM     35  C   UNL     1      -7.922  35.402   3.268  0.00  0.00    +0.000 A 
ATOM     36  C   UNL     1      -6.715  34.728   3.453  0.00  0.00    +0.000 A 
ATOM     37  C   UNL     1      -7.924  36.733   2.859  0.00  0.00    +0.000 A 
ATOM     38  C   UNL     1      -5.497  35.375   3.230  0.00  0.00    +0.000 A 
ATOM     39  C   UNL     1      -6.717  37.391   2.634  0.00  0.00    +0.000 A 
ATOM     40  C   UNL     1      -5.514  36.711   2.821  0.00  0.00    +0.000 A 
BRANCH  38  41
ATOM     41  O   UNL     1      -4.267  34.787   3.390  0.00  0.00    +0.000 OA
ATOM     42  C   UNL     1      -4.271  33.544   4.043  0.00  0.00    +0.000 C 
ENDBRANCH  38  41
BRANCH  40  43
ATOM     43  O   UNL     1      -4.332  37.364   2.599  0.00  0.00    +0.000 OA
ATOM     44  H   UNL     1      -4.356  38.221   3.064  0.00  0.00    +0.000 HD
ENDBRANCH  40  43
ENDBRANCH  34  35
ENDBRANCH  32  33
ENDBRANCH  30  32
ENDBRANCH  19  30
TORSDOF 10
ENDMDL
MODEL 7
REMARK VINA RESULT:      -7.5     28.663     31.837
REMARK  Name = 91746246_sitosterol.pdbqt.pdb
REMARK  10 active torsions:
REMARK  status: ('A' for Active; 'I' for Inactive)
REMARK    1  A    between atoms: C_5  and  C_20
REMARK    2  A    between atoms: C_19  and  O_30
REMARK    3  A    between atoms: C_20  and  C_22
REMARK    4  A    between atoms: C_23  and  C_24
REMARK    5  A    between atoms: C_24  and  C_28
REMARK    6  A    between atoms: O_30  and  C_32
REMARK    7  A    between atoms: C_32  and  C_33
REMARK    8  A    between atoms: C_34  and  C_35
REMARK    9  A    between atoms: C_38  and  O_41
REMARK   10  A    between atoms: C_40  and  O_43
REMARK                            x       y       z     vdW  Elec       q    Type
REMARK                         _______ _______ _______ _____ _____    ______ ____
ROOT
ATOM      1  C   UNL     1     -12.685  33.839   4.248  0.00  0.00    +0.000 C 
ATOM      2  C   UNL     1     -12.852  35.225   5.070  0.00  0.00    +0.000 C 
ATOM      3  C   UNL     1     -14.162  35.885   5.248  0.00  0.00    +0.000 C 
ATOM      4  C   UNL     1     -15.508  35.276   4.944  0.00  0.00    +0.000 C 
ATOM      5  C   UNL     1     -11.732  33.034   5.121  0.00  0.00    +0.000 C 
ATOM      6  C   UNL     1     -14.042  33.301   4.155  0.00  0.00    +0.000 C 
ATOM      7  C   UNL     1     -16.851  36.037   5.099  0.00  0.00    +0.000 C 
ATOM      8  C   UNL     1     -11.908  35.199   6.145  0.00  0.00    +0.000 C 
ATOM      9  C   UNL     1     -15.371  33.954   4.445  0.00  0.00    +0.000 C 
ATOM     10  C   UNL     1     -11.248  33.847   6.188  0.00  0.00    +0.000 C 
ATOM     11  C   UNL     1     -14.265  37.143   5.890  0.00  0.00    +0.000 C 
ATOM     12  C   UNL     1     -12.034  34.196   2.885  0.00  0.00    +0.000 C 
ATOM     13  C   UNL     1     -16.752  37.387   6.043  0.00  0.00    +0.000 C 
ATOM     14  C   UNL     1     -17.853  35.185   5.806  0.00  0.00    +0.000 C 
ATOM     15  C   UNL     1     -15.549  37.826   6.255  0.00  0.00    +0.000 C 
ATOM     16  C   UNL     1     -17.351  36.490   3.696  0.00  0.00    +0.000 C 
ATOM     17  C   UNL     1     -17.689  37.445   7.142  0.00  0.00    +0.000 C 
ATOM     18  C   UNL     1     -18.747  35.393   7.040  0.00  0.00    +0.000 C 
ATOM     19  C   UNL     1     -18.685  36.623   7.778  0.00  0.00    +0.000 C 
ENDROOT
BRANCH   5  20
ATOM     20  C   UNL     1     -11.207  31.753   4.770  0.00  0.00    +0.000 C 
ATOM     21  C   UNL     1     -11.720  30.478   5.383  0.00  0.00    +0.000 C 
BRANCH  20  22
ATOM     22  C   UNL     1     -10.009  31.636   4.012  0.00  0.00    +0.000 C 
ATOM     23  C   UNL     1      -8.716  31.510   3.192  0.00  0.00    +0.000 C 
BRANCH  23  24
ATOM     24  C   UNL     1      -7.523  31.386   2.416  0.00  0.00    +0.000 C 
ATOM     25  C   UNL     1      -7.433  30.438   1.327  0.00  0.00    +0.000 C 
ATOM     26  C   UNL     1      -6.182  30.237   0.500  0.00  0.00    +0.000 C 
ATOM     27  C   UNL     1      -8.593  29.557   0.910  0.00  0.00    +0.000 C 
BRANCH  24  28
ATOM     28  C   UNL     1      -6.404  32.207   2.719  0.00  0.00    +0.000 C 
ATOM     29  C   UNL     1      -5.233  33.120   3.100  0.00  0.00    +0.000 C 
ENDBRANCH  24  28
ENDBRANCH  23  24
ENDBRANCH  20  22
ENDBRANCH   5  20
BRANCH  19  30
ATOM     30  O   UNL     1     -19.846  37.232   8.244  0.00  0.00    +0.000 OA
BRANCH  30  32
ATOM     31  O   UNL     1     -21.618  36.788   6.804  0.00  0.00    +0.000 OA
ATOM     32  C   UNL     1     -20.717  37.498   7.227  0.00  0.00    +0.000 C 
BRANCH  32  33
ATOM     33  C   UNL     1     -20.491  38.807   6.666  0.00  0.00    +0.000 C 
ATOM     34  C   UNL     1     -20.288  39.891   6.188  0.00  0.00    +0.000 C 
BRANCH  34  35
ATOM     35  C   UNL     1     -20.032  41.169   5.612  0.00  0.00    +0.000 A 
ATOM     36  C   UNL     1     -18.744  41.700   5.651  0.00  0.00    +0.000 A 
ATOM     37  C   UNL     1     -21.066  41.888   5.018  0.00  0.00    +0.000 A 
ATOM     38  C   UNL     1     -18.473  42.954   5.096  0.00  0.00    +0.000 A 
ATOM     39  C   UNL     1     -20.811  43.139   4.462  0.00  0.00    +0.000 A 
ATOM     40  C   UNL     1     -19.521  43.664   4.505  0.00  0.00    +0.000 A 
BRANCH  38  41
ATOM     41  O   UNL     1     -17.235  43.549   5.094  0.00  0.00    +0.000 OA
ATOM     42  C   UNL     1     -16.184  42.761   5.590  0.00  0.00    +0.000 C 
ENDBRANCH  38  41
BRANCH  40  43
ATOM     43  O   UNL     1     -19.277  44.895   3.958  0.00  0.00    +0.000 OA
ATOM     44  H   UNL     1     -19.881  45.027   3.204  0.00  0.00    +0.000 HD
ENDBRANCH  40  43
ENDBRANCH  34  35
ENDBRANCH  32  33
ENDBRANCH  30  32
ENDBRANCH  19  30
TORSDOF 10
ENDMDL
MODEL 8
REMARK VINA RESULT:      -7.3      6.524      9.703
REMARK  Name = 91746246_sitosterol.pdbqt.pdb
REMARK  10 active torsions:
REMARK  status: ('A' for Active; 'I' for Inactive)
REMARK    1  A    between atoms: C_5  and  C_20
REMARK    2  A    between atoms: C_19  and  O_30
REMARK    3  A    between atoms: C_20  and  C_22
REMARK    4  A    between atoms: C_23  and  C_24
REMARK    5  A    between atoms: C_24  and  C_28
REMARK    6  A    between atoms: O_30  and  C_32
REMARK    7  A    between atoms: C_32  and  C_33
REMARK    8  A    between atoms: C_34  and  C_35
REMARK    9  A    between atoms: C_38  and  O_41
REMARK   10  A    between atoms: C_40  and  O_43
REMARK                            x       y       z     vdW  Elec       q    Type
REMARK                         _______ _______ _______ _____ _____    ______ ____
ROOT
ATOM      1  C   UNL     1      -0.362  53.237  28.571  0.00  0.00    +0.000 C 
ATOM      2  C   UNL     1       0.333  51.778  28.450  0.00  0.00    +0.000 C 
ATOM      3  C   UNL     1      -0.446  50.525  28.520  0.00  0.00    +0.000 C 
ATOM      4  C   UNL     1      -1.949  50.411  28.450  0.00  0.00    +0.000 C 
ATOM      5  C   UNL     1       0.333  54.040  27.479  0.00  0.00    +0.000 C 
ATOM      6  C   UNL     1      -1.785  52.987  28.344  0.00  0.00    +0.000 C 
ATOM      7  C   UNL     1      -2.717  49.070  28.584  0.00  0.00    +0.000 C 
ATOM      8  C   UNL     1       1.419  51.899  27.527  0.00  0.00    +0.000 C 
ATOM      9  C   UNL     1      -2.553  51.688  28.310  0.00  0.00    +0.000 C 
ATOM     10  C   UNL     1       1.396  53.274  26.917  0.00  0.00    +0.000 C 
ATOM     11  C   UNL     1       0.197  49.263  28.506  0.00  0.00    +0.000 C 
ATOM     12  C   UNL     1      -0.017  53.787  29.980  0.00  0.00    +0.000 C 
ATOM     13  C   UNL     1      -1.779  47.732  28.353  0.00  0.00    +0.000 C 
ATOM     14  C   UNL     1      -3.758  48.959  27.520  0.00  0.00    +0.000 C 
ATOM     15  C   UNL     1      -0.499  47.937  28.421  0.00  0.00    +0.000 C 
ATOM     16  C   UNL     1      -3.325  48.966  30.013  0.00  0.00    +0.000 C 
ATOM     17  C   UNL     1      -2.256  46.807  27.349  0.00  0.00    +0.000 C 
ATOM     18  C   UNL     1      -4.096  47.891  26.467  0.00  0.00    +0.000 C 
ATOM     19  C   UNL     1      -3.298  46.701  26.362  0.00  0.00    +0.000 C 
ENDROOT
BRANCH   5  20
ATOM     20  C   UNL     1       0.118  55.432  27.246  0.00  0.00    +0.000 C 
ATOM     21  C   UNL     1       1.251  56.422  27.187  0.00  0.00    +0.000 C 
BRANCH  20  22
ATOM     22  C   UNL     1      -1.188  55.992  27.307  0.00  0.00    +0.000 C 
ATOM     23  C   UNL     1      -2.600  56.595  27.372  0.00  0.00    +0.000 C 
BRANCH  23  24
ATOM     24  C   UNL     1      -3.915  57.148  27.416  0.00  0.00    +0.000 C 
ATOM     25  C   UNL     1      -4.538  57.697  26.230  0.00  0.00    +0.000 C 
ATOM     26  C   UNL     1      -5.911  58.332  26.229  0.00  0.00    +0.000 C 
ATOM     27  C   UNL     1      -3.867  57.681  24.872  0.00  0.00    +0.000 C 
BRANCH  24  28
ATOM     28  C   UNL     1      -4.626  57.163  28.646  0.00  0.00    +0.000 C 
ATOM     29  C   UNL     1      -5.336  57.154  30.004  0.00  0.00    +0.000 C 
ENDBRANCH  24  28
ENDBRANCH  23  24
ENDBRANCH  20  22
ENDBRANCH   5  20
BRANCH  19  30
ATOM     30  O   UNL     1      -3.894  45.460  26.160  0.00  0.00    +0.000 OA
BRANCH  30  32
ATOM     31  O   UNL     1      -4.993  44.691  28.060  0.00  0.00    +0.000 OA
ATOM     32  C   UNL     1      -4.964  45.275  26.987  0.00  0.00    +0.000 C 
BRANCH  32  33
ATOM     33  C   UNL     1      -6.151  45.906  26.465  0.00  0.00    +0.000 C 
ATOM     34  C   UNL     1      -7.149  46.415  26.032  0.00  0.00    +0.000 C 
BRANCH  34  35
ATOM     35  C   UNL     1      -8.343  47.003  25.519  0.00  0.00    +0.000 A 
ATOM     36  C   UNL     1      -9.514  46.961  26.275  0.00  0.00    +0.000 A 
ATOM     37  C   UNL     1      -8.341  47.610  24.266  0.00  0.00    +0.000 A 
ATOM     38  C   UNL     1     -10.696  47.526  25.789  0.00  0.00    +0.000 A 
ATOM     39  C   UNL     1      -9.512  48.177  23.769  0.00  0.00    +0.000 A 
ATOM     40  C   UNL     1     -10.680  48.131  24.529  0.00  0.00    +0.000 A 
BRANCH  38  41
ATOM     41  O   UNL     1     -11.891  47.526  26.467  0.00  0.00    +0.000 OA
ATOM     42  C   UNL     1     -11.888  48.203  27.697  0.00  0.00    +0.000 C 
ENDBRANCH  38  41
BRANCH  40  43
ATOM     43  O   UNL     1     -11.827  48.688  24.034  0.00  0.00    +0.000 OA
ATOM     44  H   UNL     1     -11.748  49.659  24.080  0.00  0.00    +0.000 HD
ENDBRANCH  40  43
ENDBRANCH  34  35
ENDBRANCH  32  33
ENDBRANCH  30  32
ENDBRANCH  19  30
TORSDOF 10
ENDMDL
MODEL 9
REMARK VINA RESULT:      -7.2     28.909     33.157
REMARK  Name = 91746246_sitosterol.pdbqt.pdb
REMARK  10 active torsions:
REMARK  status: ('A' for Active; 'I' for Inactive)
REMARK    1  A    between atoms: C_5  and  C_20
REMARK    2  A    between atoms: C_19  and  O_30
REMARK    3  A    between atoms: C_20  and  C_22
REMARK    4  A    between atoms: C_23  and  C_24
REMARK    5  A    between atoms: C_24  and  C_28
REMARK    6  A    between atoms: O_30  and  C_32
REMARK    7  A    between atoms: C_32  and  C_33
REMARK    8  A    between atoms: C_34  and  C_35
REMARK    9  A    between atoms: C_38  and  O_41
REMARK   10  A    between atoms: C_40  and  O_43
REMARK                            x       y       z     vdW  Elec       q    Type
REMARK                         _______ _______ _______ _____ _____    ______ ____
ROOT
ATOM      1  C   UNL     1     -17.550  37.270   6.132  0.00  0.00    +0.000 C 
ATOM      2  C   UNL     1     -18.558  38.390   5.535  0.00  0.00    +0.000 C 
ATOM      3  C   UNL     1     -18.140  39.788   5.307  0.00  0.00    +0.000 C 
ATOM      4  C   UNL     1     -16.723  40.304   5.338  0.00  0.00    +0.000 C 
ATOM      5  C   UNL     1     -17.836  36.052   5.262  0.00  0.00    +0.000 C 
ATOM      6  C   UNL     1     -16.217  37.849   5.966  0.00  0.00    +0.000 C 
ATOM      7  C   UNL     1     -16.346  41.796   5.144  0.00  0.00    +0.000 C 
ATOM      8  C   UNL     1     -19.415  37.734   4.596  0.00  0.00    +0.000 C 
ATOM      9  C   UNL     1     -15.804  39.260   5.625  0.00  0.00    +0.000 C 
ATOM     10  C   UNL     1     -18.951  36.314   4.413  0.00  0.00    +0.000 C 
ATOM     11  C   UNL     1     -19.067  40.767   4.874  0.00  0.00    +0.000 C 
ATOM     12  C   UNL     1     -17.970  37.021   7.605  0.00  0.00    +0.000 C 
ATOM     13  C   UNL     1     -17.539  42.706   4.456  0.00  0.00    +0.000 C 
ATOM     14  C   UNL     1     -15.207  41.926   4.188  0.00  0.00    +0.000 C 
ATOM     15  C   UNL     1     -18.720  42.169   4.471  0.00  0.00    +0.000 C 
ATOM     16  C   UNL     1     -16.024  42.429   6.530  0.00  0.00    +0.000 C 
ATOM     17  C   UNL     1     -17.151  43.442   3.274  0.00  0.00    +0.000 C 
ATOM     18  C   UNL     1     -14.981  42.741   2.904  0.00  0.00    +0.000 C 
ATOM     19  C   UNL     1     -16.023  43.586   2.392  0.00  0.00    +0.000 C 
ENDROOT
BRANCH   5  20
ATOM     20  C   UNL     1     -17.245  34.768   5.461  0.00  0.00    +0.000 C 
ATOM     21  C   UNL     1     -17.934  33.676   6.235  0.00  0.00    +0.000 C 
BRANCH  20  22
ATOM     22  C   UNL     1     -15.875  34.536   5.153  0.00  0.00    +0.000 C 
ATOM     23  C   UNL     1     -14.397  34.287   4.818  0.00  0.00    +0.000 C 
BRANCH  23  24
ATOM     24  C   UNL     1     -13.027  34.049   4.492  0.00  0.00    +0.000 C 
ATOM     25  C   UNL     1     -12.460  34.527   3.248  0.00  0.00    +0.000 C 
ATOM     26  C   UNL     1     -11.028  34.268   2.834  0.00  0.00    +0.000 C 
ATOM     27  C   UNL     1     -13.254  35.337   2.244  0.00  0.00    +0.000 C 
BRANCH  24  28
ATOM     28  C   UNL     1     -12.206  33.332   5.402  0.00  0.00    +0.000 C 
ATOM     29  C   UNL     1     -11.294  32.618   6.406  0.00  0.00    +0.000 C 
ENDBRANCH  24  28
ENDBRANCH  23  24
ENDBRANCH  20  22
ENDBRANCH   5  20
BRANCH  19  30
ATOM     30  O   UNL     1     -15.732  44.852   1.893  0.00  0.00    +0.000 OA
BRANCH  30  32
ATOM     31  O   UNL     1     -16.886  44.734  -0.123  0.00  0.00    +0.000 OA
ATOM     32  C   UNL     1     -15.870  44.902   0.536  0.00  0.00    +0.000 C 
BRANCH  32  33
ATOM     33  C   UNL     1     -14.623  45.225  -0.112  0.00  0.00    +0.000 C 
ATOM     34  C   UNL     1     -13.580  45.477  -0.652  0.00  0.00    +0.000 C 
BRANCH  34  35
ATOM     35  C   UNL     1     -12.337  45.756  -1.294  0.00  0.00    +0.000 A 
ATOM     36  C   UNL     1     -11.210  45.001  -0.976  0.00  0.00    +0.000 A 
ATOM     37  C   UNL     1     -12.250  46.784  -2.229  0.00  0.00    +0.000 A 
ATOM     38  C   UNL     1      -9.981  45.263  -1.590  0.00  0.00    +0.000 A 
ATOM     39  C   UNL     1     -11.032  47.056  -2.848  0.00  0.00    +0.000 A 
ATOM     40  C   UNL     1      -9.908  46.298  -2.526  0.00  0.00    +0.000 A 
BRANCH  38  41
ATOM     41  O   UNL     1      -8.824  44.569  -1.333  0.00  0.00    +0.000 OA
ATOM     42  C   UNL     1      -8.866  43.195  -1.620  0.00  0.00    +0.000 C 
ENDBRANCH  38  41
BRANCH  40  43
ATOM     43  O   UNL     1      -8.714  46.571  -3.136  0.00  0.00    +0.000 OA
ATOM     44  H   UNL     1      -8.090  45.847  -2.940  0.00  0.00    +0.000 HD
ENDBRANCH  40  43
ENDBRANCH  34  35
ENDBRANCH  32  33
ENDBRANCH  30  32
ENDBRANCH  19  30
TORSDOF 10
ENDMDL
