MODEL 1
REMARK VINA RESULT:      -3.8      0.000      0.000
REMARK  Name = 92041_2Ethoxy5fluorouracil.pdbqt.pdb
REMARK  2 active torsions:
REMARK  status: ('A' for Active; 'I' for Inactive)
REMARK    1  A    between atoms: C_5  and  O_10
REMARK    2  A    between atoms: O_10  and  C_11
REMARK                            x       y       z     vdW  Elec       q    Type
REMARK                         _______ _______ _______ _____ _____    ______ ____
ROOT
ATOM      1  F   UNL     1      -7.851  40.696   3.730  0.00  0.00    +0.000 F 
ATOM      2  O   UNL     1      -6.142  42.139   1.961  0.00  0.00    +0.000 OA
ATOM      3  N   UNL     1      -4.520  40.555   2.338  0.00  0.00    +0.000 N 
ATOM      4  N   UNL     1      -4.885  38.609   3.632  0.00  0.00    +0.000 NA
ATOM      5  C   UNL     1      -4.090  39.377   2.942  0.00  0.00    +0.000 C 
ATOM      6  C   UNL     1      -5.821  41.055   2.429  0.00  0.00    +0.000 C 
ATOM      7  C   UNL     1      -6.760  40.151   3.167  0.00  0.00    +0.000 C 
ATOM      8  C   UNL     1      -6.116  39.137   3.640  0.00  0.00    +0.000 C 
ATOM      9  H   UNL     1      -3.853  41.132   1.848  0.00  0.00    +0.000 HD
ENDROOT
BRANCH   5  10
ATOM     10  O   UNL     1      -2.775  39.134   2.730  0.00  0.00    +0.000 OA
BRANCH  10  11
ATOM     11  C   UNL     1      -2.463  37.903   2.337  0.00  0.00    +0.000 C 
ATOM     12  C   UNL     1      -2.135  36.462   1.935  0.00  0.00    +0.000 C 
ENDBRANCH  10  11
ENDBRANCH   5  10
TORSDOF 2
ENDMDL
MODEL 2
REMARK VINA RESULT:      -3.6     11.048     12.058
REMARK  Name = 92041_2Ethoxy5fluorouracil.pdbqt.pdb
REMARK  2 active torsions:
REMARK  status: ('A' for Active; 'I' for Inactive)
REMARK    1  A    between atoms: C_5  and  O_10
REMARK    2  A    between atoms: O_10  and  C_11
REMARK                            x       y       z     vdW  Elec       q    Type
REMARK                         _______ _______ _______ _____ _____    ______ ____
ROOT
ATOM      1  F   UNL     1     -15.748  42.384   6.917  0.00  0.00    +0.000 F 
ATOM      2  O   UNL     1     -18.070  43.330   5.559  0.00  0.00    +0.000 OA
ATOM      3  N   UNL     1     -16.911  43.149   3.583  0.00  0.00    +0.000 N 
ATOM      4  N   UNL     1     -14.735  42.234   3.437  0.00  0.00    +0.000 NA
ATOM      5  C   UNL     1     -15.759  42.812   2.877  0.00  0.00    +0.000 C 
ATOM      6  C   UNL     1     -17.081  42.940   4.954  0.00  0.00    +0.000 C 
ATOM      7  C   UNL     1     -15.936  42.221   5.597  0.00  0.00    +0.000 C 
ATOM      8  C   UNL     1     -14.990  42.036   4.737  0.00  0.00    +0.000 C 
ATOM      9  H   UNL     1     -17.659  43.631   3.108  0.00  0.00    +0.000 HD
ENDROOT
BRANCH   5  10
ATOM     10  O   UNL     1     -15.834  43.152   1.569  0.00  0.00    +0.000 OA
BRANCH  10  11
ATOM     11  C   UNL     1     -15.213  44.273   1.219  0.00  0.00    +0.000 C 
ATOM     12  C   UNL     1     -14.457  45.532   0.780  0.00  0.00    +0.000 C 
ENDBRANCH  10  11
ENDBRANCH   5  10
TORSDOF 2
ENDMDL
MODEL 3
REMARK VINA RESULT:      -3.3     24.041     24.835
REMARK  Name = 92041_2Ethoxy5fluorouracil.pdbqt.pdb
REMARK  2 active torsions:
REMARK  status: ('A' for Active; 'I' for Inactive)
REMARK    1  A    between atoms: C_5  and  O_10
REMARK    2  A    between atoms: O_10  and  C_11
REMARK                            x       y       z     vdW  Elec       q    Type
REMARK                         _______ _______ _______ _____ _____    ______ ____
ROOT
ATOM      1  F   UNL     1     -14.435  51.050  25.065  0.00  0.00    +0.000 F 
ATOM      2  O   UNL     1     -12.326  52.900  24.553  0.00  0.00    +0.000 OA
ATOM      3  N   UNL     1     -10.943  51.111  24.142  0.00  0.00    +0.000 N 
ATOM      4  N   UNL     1     -11.699  48.870  24.107  0.00  0.00    +0.000 NA
ATOM      5  C   UNL     1     -10.731  49.739  24.033  0.00  0.00    +0.000 C 
ATOM      6  C   UNL     1     -12.189  51.697  24.373  0.00  0.00    +0.000 C 
ATOM      7  C   UNL     1     -13.319  50.714  24.399  0.00  0.00    +0.000 C 
ATOM      8  C   UNL     1     -12.860  49.511  24.291  0.00  0.00    +0.000 C 
ATOM      9  H   UNL     1     -10.152  51.737  24.117  0.00  0.00    +0.000 HD
ENDROOT
BRANCH   5  10
ATOM     10  O   UNL     1      -9.427  49.428  23.845  0.00  0.00    +0.000 OA
BRANCH  10  11
ATOM     11  C   UNL     1      -9.048  48.222  24.255  0.00  0.00    +0.000 C 
ATOM     12  C   UNL     1      -8.628  46.848  24.787  0.00  0.00    +0.000 C 
ENDBRANCH  10  11
ENDBRANCH   5  10
TORSDOF 2
ENDMDL
MODEL 4
REMARK VINA RESULT:      -3.3     14.547     15.101
REMARK  Name = 92041_2Ethoxy5fluorouracil.pdbqt.pdb
REMARK  2 active torsions:
REMARK  status: ('A' for Active; 'I' for Inactive)
REMARK    1  A    between atoms: C_5  and  O_10
REMARK    2  A    between atoms: O_10  and  C_11
REMARK                            x       y       z     vdW  Elec       q    Type
REMARK                         _______ _______ _______ _____ _____    ______ ____
ROOT
ATOM      1  F   UNL     1     -20.994  40.795   6.800  0.00  0.00    +0.000 F 
ATOM      2  O   UNL     1     -18.483  40.552   5.469  0.00  0.00    +0.000 OA
ATOM      3  N   UNL     1     -18.227  38.496   6.463  0.00  0.00    +0.000 N 
ATOM      4  N   UNL     1     -19.903  37.478   7.785  0.00  0.00    +0.000 NA
ATOM      5  C   UNL     1     -18.701  37.475   7.283  0.00  0.00    +0.000 C 
ATOM      6  C   UNL     1     -18.963  39.632   6.119  0.00  0.00    +0.000 C 
ATOM      7  C   UNL     1     -20.367  39.618   6.638  0.00  0.00    +0.000 C 
ATOM      8  C   UNL     1     -20.553  38.577   7.380  0.00  0.00    +0.000 C 
ATOM      9  H   UNL     1     -17.274  38.464   6.133  0.00  0.00    +0.000 HD
ENDROOT
BRANCH   5  10
ATOM     10  O   UNL     1     -17.780  36.505   7.489  0.00  0.00    +0.000 OA
BRANCH  10  11
ATOM     11  C   UNL     1     -18.256  35.282   7.701  0.00  0.00    +0.000 C 
ATOM     12  C   UNL     1     -18.818  33.889   8.003  0.00  0.00    +0.000 C 
ENDBRANCH  10  11
ENDBRANCH   5  10
TORSDOF 2
ENDMDL
MODEL 5
REMARK VINA RESULT:      -3.3     18.022     18.771
REMARK  Name = 92041_2Ethoxy5fluorouracil.pdbqt.pdb
REMARK  2 active torsions:
REMARK  status: ('A' for Active; 'I' for Inactive)
REMARK    1  A    between atoms: C_5  and  O_10
REMARK    2  A    between atoms: O_10  and  C_11
REMARK                            x       y       z     vdW  Elec       q    Type
REMARK                         _______ _______ _______ _____ _____    ______ ____
ROOT
ATOM      1  F   UNL     1     -16.923  53.619   6.307  0.00  0.00    +0.000 F 
ATOM      2  O   UNL     1     -18.821  52.386   8.042  0.00  0.00    +0.000 OA
ATOM      3  N   UNL     1     -17.088  51.857   9.457  0.00  0.00    +0.000 N 
ATOM      4  N   UNL     1     -14.863  52.574   9.104  0.00  0.00    +0.000 NA
ATOM      5  C   UNL     1     -15.737  51.891   9.788  0.00  0.00    +0.000 C 
ATOM      6  C   UNL     1     -17.644  52.511   8.355  0.00  0.00    +0.000 C 
ATOM      7  C   UNL     1     -16.662  53.349   7.596  0.00  0.00    +0.000 C 
ATOM      8  C   UNL     1     -15.478  53.198   8.091  0.00  0.00    +0.000 C 
ATOM      9  H   UNL     1     -17.716  51.280   9.997  0.00  0.00    +0.000 HD
ENDROOT
BRANCH   5  10
ATOM     10  O   UNL     1     -15.450  51.146  10.881  0.00  0.00    +0.000 OA
BRANCH  10  11
ATOM     11  C   UNL     1     -16.127  51.444  11.986  0.00  0.00    +0.000 C 
ATOM     12  C   UNL     1     -16.882  51.736  13.286  0.00  0.00    +0.000 C 
ENDBRANCH  10  11
ENDBRANCH   5  10
TORSDOF 2
ENDMDL
MODEL 6
REMARK VINA RESULT:      -3.2     25.783     27.017
REMARK  Name = 92041_2Ethoxy5fluorouracil.pdbqt.pdb
REMARK  2 active torsions:
REMARK  status: ('A' for Active; 'I' for Inactive)
REMARK    1  A    between atoms: C_5  and  O_10
REMARK    2  A    between atoms: O_10  and  C_11
REMARK                            x       y       z     vdW  Elec       q    Type
REMARK                         _______ _______ _______ _____ _____    ______ ____
ROOT
ATOM      1  F   UNL     1     -26.113  42.623  21.201  0.00  0.00    +0.000 F 
ATOM      2  O   UNL     1     -27.793  40.391  21.774  0.00  0.00    +0.000 OA
ATOM      3  N   UNL     1     -26.117  39.015  21.013  0.00  0.00    +0.000 N 
ATOM      4  N   UNL     1     -23.985  39.807  20.365  0.00  0.00    +0.000 NA
ATOM      5  C   UNL     1     -24.837  38.830  20.497  0.00  0.00    +0.000 C 
ATOM      6  C   UNL     1     -26.633  40.251  21.409  0.00  0.00    +0.000 C 
ATOM      7  C   UNL     1     -25.643  41.371  21.321  0.00  0.00    +0.000 C 
ATOM      8  C   UNL     1     -24.540  40.945  20.799  0.00  0.00    +0.000 C 
ATOM      9  H   UNL     1     -26.751  38.231  21.057  0.00  0.00    +0.000 HD
ENDROOT
BRANCH   5  10
ATOM     10  O   UNL     1     -24.595  37.542  20.157  0.00  0.00    +0.000 OA
BRANCH  10  11
ATOM     11  C   UNL     1     -23.494  37.322  19.446  0.00  0.00    +0.000 C 
ATOM     12  C   UNL     1     -22.195  37.056  18.679  0.00  0.00    +0.000 C 
ENDBRANCH  10  11
ENDBRANCH   5  10
TORSDOF 2
ENDMDL
MODEL 7
REMARK VINA RESULT:      -3.1     28.248     28.718
REMARK  Name = 92041_2Ethoxy5fluorouracil.pdbqt.pdb
REMARK  2 active torsions:
REMARK  status: ('A' for Active; 'I' for Inactive)
REMARK    1  A    between atoms: C_5  and  O_10
REMARK    2  A    between atoms: O_10  and  C_11
REMARK                            x       y       z     vdW  Elec       q    Type
REMARK                         _______ _______ _______ _____ _____    ______ ____
ROOT
ATOM      1  F   UNL     1      10.110  52.146  24.467  0.00  0.00    +0.000 F 
ATOM      2  O   UNL     1       9.756  49.793  22.895  0.00  0.00    +0.000 OA
ATOM      3  N   UNL     1       9.108  48.691  24.805  0.00  0.00    +0.000 N 
ATOM      4  N   UNL     1       8.838  49.768  26.893  0.00  0.00    +0.000 NA
ATOM      5  C   UNL     1       8.838  48.684  26.171  0.00  0.00    +0.000 C 
ATOM      6  C   UNL     1       9.437  49.836  24.076  0.00  0.00    +0.000 C 
ATOM      7  C   UNL     1       9.380  51.097  24.881  0.00  0.00    +0.000 C 
ATOM      8  C   UNL     1       9.124  50.821  26.117  0.00  0.00    +0.000 C 
ATOM      9  H   UNL     1       9.133  47.818  24.301  0.00  0.00    +0.000 HD
ENDROOT
BRANCH   5  10
ATOM     10  O   UNL     1       8.581  47.441  26.643  0.00  0.00    +0.000 OA
BRANCH  10  11
ATOM     11  C   UNL     1       7.777  47.371  27.699  0.00  0.00    +0.000 C 
ATOM     12  C   UNL     1       6.817  47.246  28.886  0.00  0.00    +0.000 C 
ENDBRANCH  10  11
ENDBRANCH   5  10
TORSDOF 2
ENDMDL
MODEL 8
REMARK VINA RESULT:      -3.0     21.107     21.690
REMARK  Name = 92041_2Ethoxy5fluorouracil.pdbqt.pdb
REMARK  2 active torsions:
REMARK  status: ('A' for Active; 'I' for Inactive)
REMARK    1  A    between atoms: C_5  and  O_10
REMARK    2  A    between atoms: O_10  and  C_11
REMARK                            x       y       z     vdW  Elec       q    Type
REMARK                         _______ _______ _______ _____ _____    ______ ____
ROOT
ATOM      1  F   UNL     1       3.375  58.230  12.603  0.00  0.00    +0.000 F 
ATOM      2  O   UNL     1       3.141  57.938  15.430  0.00  0.00    +0.000 OA
ATOM      3  N   UNL     1       3.143  55.659  15.131  0.00  0.00    +0.000 N 
ATOM      4  N   UNL     1       3.478  54.629  13.029  0.00  0.00    +0.000 NA
ATOM      5  C   UNL     1       3.218  54.543  14.303  0.00  0.00    +0.000 C 
ATOM      6  C   UNL     1       3.302  56.976  14.691  0.00  0.00    +0.000 C 
ATOM      7  C   UNL     1       3.663  57.085  13.242  0.00  0.00    +0.000 C 
ATOM      8  C   UNL     1       3.654  55.914  12.695  0.00  0.00    +0.000 C 
ATOM      9  H   UNL     1       2.899  55.539  16.103  0.00  0.00    +0.000 HD
ENDROOT
BRANCH   5  10
ATOM     10  O   UNL     1       2.992  53.386  14.968  0.00  0.00    +0.000 OA
BRANCH  10  11
ATOM     11  C   UNL     1       2.944  53.474  16.294  0.00  0.00    +0.000 C 
ATOM     12  C   UNL     1       2.869  53.634  17.815  0.00  0.00    +0.000 C 
ENDBRANCH  10  11
ENDBRANCH   5  10
TORSDOF 2
ENDMDL
MODEL 9
REMARK VINA RESULT:      -3.0     18.499     18.875
REMARK  Name = 92041_2Ethoxy5fluorouracil.pdbqt.pdb
REMARK  2 active torsions:
REMARK  status: ('A' for Active; 'I' for Inactive)
REMARK    1  A    between atoms: C_5  and  O_10
REMARK    2  A    between atoms: O_10  and  C_11
REMARK                            x       y       z     vdW  Elec       q    Type
REMARK                         _______ _______ _______ _____ _____    ______ ____
ROOT
ATOM      1  F   UNL     1     -18.893  53.819   6.543  0.00  0.00    +0.000 F 
ATOM      2  O   UNL     1     -16.076  53.881   6.102  0.00  0.00    +0.000 OA
ATOM      3  N   UNL     1     -15.799  52.853   8.138  0.00  0.00    +0.000 N 
ATOM      4  N   UNL     1     -17.605  52.100   9.466  0.00  0.00    +0.000 NA
ATOM      5  C   UNL     1     -16.327  52.287   9.295  0.00  0.00    +0.000 C 
ATOM      6  C   UNL     1     -16.568  53.307   7.064  0.00  0.00    +0.000 C 
ATOM      7  C   UNL     1     -18.033  53.042   7.221  0.00  0.00    +0.000 C 
ATOM      8  C   UNL     1     -18.267  52.525   8.382  0.00  0.00    +0.000 C 
ATOM      9  H   UNL     1     -14.804  53.010   8.074  0.00  0.00    +0.000 HD
ENDROOT
BRANCH   5  10
ATOM     10  O   UNL     1     -15.372  51.962  10.198  0.00  0.00    +0.000 OA
BRANCH  10  11
ATOM     11  C   UNL     1     -15.796  51.704  11.431  0.00  0.00    +0.000 C 
ATOM     12  C   UNL     1     -16.230  51.375  12.863  0.00  0.00    +0.000 C 
ENDBRANCH  10  11
ENDBRANCH   5  10
TORSDOF 2
ENDMDL
