MODEL 1
REMARK VINA RESULT:      -4.4      0.000      0.000
REMARK  Name = 95716_6Bromoisatin.pdbqt.pdb
REMARK  0 active torsions:
REMARK  status: ('A' for Active; 'I' for Inactive)
REMARK                            x       y       z     vdW  Elec       q    Type
REMARK                         _______ _______ _______ _____ _____    ______ ____
ROOT
ATOM      1 BR   UNL     1      -8.493  50.148  25.696  0.00  0.00    +0.000 Br
ATOM      2  O   UNL     1      -4.371  44.517  25.903  0.00  0.00    +0.000 OA
ATOM      3  O   UNL     1      -2.105  46.271  26.830  0.00  0.00    +0.000 OA
ATOM      4  N   UNL     1      -3.769  47.894  26.637  0.00  0.00    +0.000 N 
ATOM      5  C   UNL     1      -5.109  47.890  26.262  0.00  0.00    +0.000 A 
ATOM      6  C   UNL     1      -5.542  46.609  25.927  0.00  0.00    +0.000 A 
ATOM      7  C   UNL     1      -4.400  45.710  26.095  0.00  0.00    +0.000 C 
ATOM      8  C   UNL     1      -5.959  48.973  26.207  0.00  0.00    +0.000 A 
ATOM      9  C   UNL     1      -6.831  46.338  25.521  0.00  0.00    +0.000 A 
ATOM     10  C   UNL     1      -3.233  46.621  26.573  0.00  0.00    +0.000 C 
ATOM     11  C   UNL     1      -7.270  48.717  25.798  0.00  0.00    +0.000 A 
ATOM     12  C   UNL     1      -7.705  47.424  25.460  0.00  0.00    +0.000 A 
ATOM     13  H   UNL     1      -3.231  48.701  26.922  0.00  0.00    +0.000 HD
ENDROOT
TORSDOF 0
ENDMDL
MODEL 2
REMARK VINA RESULT:      -4.3      1.991      2.041
REMARK  Name = 95716_6Bromoisatin.pdbqt.pdb
REMARK  0 active torsions:
REMARK  status: ('A' for Active; 'I' for Inactive)
REMARK                            x       y       z     vdW  Elec       q    Type
REMARK                         _______ _______ _______ _____ _____    ______ ____
ROOT
ATOM      1 BR   UNL     1     -10.009  48.576  27.533  0.00  0.00    +0.000 Br
ATOM      2  O   UNL     1      -4.534  44.770  25.465  0.00  0.00    +0.000 OA
ATOM      3  O   UNL     1      -3.435  44.919  28.266  0.00  0.00    +0.000 OA
ATOM      4  N   UNL     1      -5.389  46.155  28.572  0.00  0.00    +0.000 N 
ATOM      5  C   UNL     1      -6.446  46.544  27.755  0.00  0.00    +0.000 A 
ATOM      6  C   UNL     1      -6.283  46.078  26.452  0.00  0.00    +0.000 A 
ATOM      7  C   UNL     1      -5.027  45.329  26.415  0.00  0.00    +0.000 C 
ATOM      8  C   UNL     1      -7.545  47.293  28.118  0.00  0.00    +0.000 A 
ATOM      9  C   UNL     1      -7.194  46.329  25.449  0.00  0.00    +0.000 A 
ATOM     10  C   UNL     1      -4.464  45.410  27.864  0.00  0.00    +0.000 C 
ATOM     11  C   UNL     1      -8.479  47.558  27.114  0.00  0.00    +0.000 A 
ATOM     12  C   UNL     1      -8.313  47.087  25.800  0.00  0.00    +0.000 A 
ATOM     13  H   UNL     1      -5.283  46.371  29.554  0.00  0.00    +0.000 HD
ENDROOT
TORSDOF 0
ENDMDL
MODEL 3
REMARK VINA RESULT:      -4.1     15.739     16.187
REMARK  Name = 95716_6Bromoisatin.pdbqt.pdb
REMARK  0 active torsions:
REMARK  status: ('A' for Active; 'I' for Inactive)
REMARK                            x       y       z     vdW  Elec       q    Type
REMARK                         _______ _______ _______ _____ _____    ______ ____
ROOT
ATOM      1 BR   UNL     1       4.471  57.784  12.170  0.00  0.00    +0.000 Br
ATOM      2  O   UNL     1       2.409  52.497  16.237  0.00  0.00    +0.000 OA
ATOM      3  O   UNL     1       2.610  54.322  18.626  0.00  0.00    +0.000 OA
ATOM      4  N   UNL     1       3.264  55.821  16.963  0.00  0.00    +0.000 N 
ATOM      5  C   UNL     1       3.429  55.750  15.583  0.00  0.00    +0.000 A 
ATOM      6  C   UNL     1       3.130  54.479  15.098  0.00  0.00    +0.000 A 
ATOM      7  C   UNL     1       2.741  53.659  16.245  0.00  0.00    +0.000 C 
ATOM      8  C   UNL     1       3.833  56.764  14.742  0.00  0.00    +0.000 A 
ATOM      9  C   UNL     1       3.215  54.150  13.761  0.00  0.00    +0.000 A 
ATOM     10  C   UNL     1       2.847  54.606  17.475  0.00  0.00    +0.000 C 
ATOM     11  C   UNL     1       3.925  56.449  13.384  0.00  0.00    +0.000 A 
ATOM     12  C   UNL     1       3.623  55.166  12.896  0.00  0.00    +0.000 A 
ATOM     13  H   UNL     1       3.419  56.635  17.542  0.00  0.00    +0.000 HD
ENDROOT
TORSDOF 0
ENDMDL
MODEL 4
REMARK VINA RESULT:      -4.1     24.149     24.702
REMARK  Name = 95716_6Bromoisatin.pdbqt.pdb
REMARK  0 active torsions:
REMARK  status: ('A' for Active; 'I' for Inactive)
REMARK                            x       y       z     vdW  Elec       q    Type
REMARK                         _______ _______ _______ _____ _____    ______ ____
ROOT
ATOM      1 BR   UNL     1     -21.456  40.747   5.826  0.00  0.00    +0.000 Br
ATOM      2  O   UNL     1     -14.649  39.199   5.726  0.00  0.00    +0.000 OA
ATOM      3  O   UNL     1     -14.072  42.015   4.827  0.00  0.00    +0.000 OA
ATOM      4  N   UNL     1     -16.395  42.148   4.980  0.00  0.00    +0.000 N 
ATOM      5  C   UNL     1     -17.411  41.264   5.332  0.00  0.00    +0.000 A 
ATOM      6  C   UNL     1     -16.903  40.011   5.669  0.00  0.00    +0.000 A 
ATOM      7  C   UNL     1     -15.449  40.081   5.526  0.00  0.00    +0.000 C 
ATOM      8  C   UNL     1     -18.764  41.524   5.367  0.00  0.00    +0.000 A 
ATOM      9  C   UNL     1     -17.706  38.958   6.054  0.00  0.00    +0.000 A 
ATOM     10  C   UNL     1     -15.158  41.538   5.062  0.00  0.00    +0.000 C 
ATOM     11  C   UNL     1     -19.592  40.469   5.755  0.00  0.00    +0.000 A 
ATOM     12  C   UNL     1     -19.079  39.205   6.094  0.00  0.00    +0.000 A 
ATOM     13  H   UNL     1     -16.514  43.111   4.699  0.00  0.00    +0.000 HD
ENDROOT
TORSDOF 0
ENDMDL
MODEL 5
REMARK VINA RESULT:      -4.1     11.917     12.996
REMARK  Name = 95716_6Bromoisatin.pdbqt.pdb
REMARK  0 active torsions:
REMARK  status: ('A' for Active; 'I' for Inactive)
REMARK                            x       y       z     vdW  Elec       q    Type
REMARK                         _______ _______ _______ _____ _____    ______ ____
ROOT
ATOM      1 BR   UNL     1       1.196  37.819  32.847  0.00  0.00    +0.000 Br
ATOM      2  O   UNL     1      -4.749  40.732  35.063  0.00  0.00    +0.000 OA
ATOM      3  O   UNL     1      -5.703  38.009  35.929  0.00  0.00    +0.000 OA
ATOM      4  N   UNL     1      -3.613  37.413  35.081  0.00  0.00    +0.000 N 
ATOM      5  C   UNL     1      -2.556  38.102  34.494  0.00  0.00    +0.000 A 
ATOM      6  C   UNL     1      -2.826  39.465  34.398  0.00  0.00    +0.000 A 
ATOM      7  C   UNL     1      -4.157  39.683  34.964  0.00  0.00    +0.000 C 
ATOM      8  C   UNL     1      -1.367  37.571  34.043  0.00  0.00    +0.000 A 
ATOM      9  C   UNL     1      -1.936  40.367  33.853  0.00  0.00    +0.000 A 
ATOM     10  C   UNL     1      -4.644  38.274  35.409  0.00  0.00    +0.000 C 
ATOM     11  C   UNL     1      -0.454  38.469  33.487  0.00  0.00    +0.000 A 
ATOM     12  C   UNL     1      -0.727  39.845  33.391  0.00  0.00    +0.000 A 
ATOM     13  H   UNL     1      -3.653  36.419  35.258  0.00  0.00    +0.000 HD
ENDROOT
TORSDOF 0
ENDMDL
MODEL 6
REMARK VINA RESULT:      -4.0     21.453     22.517
REMARK  Name = 95716_6Bromoisatin.pdbqt.pdb
REMARK  0 active torsions:
REMARK  status: ('A' for Active; 'I' for Inactive)
REMARK                            x       y       z     vdW  Elec       q    Type
REMARK                         _______ _______ _______ _____ _____    ______ ____
ROOT
ATOM      1 BR   UNL     1     -27.124  40.714  22.589  0.00  0.00    +0.000 Br
ATOM      2  O   UNL     1     -22.551  37.179  18.673  0.00  0.00    +0.000 OA
ATOM      3  O   UNL     1     -24.332  34.757  18.868  0.00  0.00    +0.000 OA
ATOM      4  N   UNL     1     -25.602  36.249  20.134  0.00  0.00    +0.000 N 
ATOM      5  C   UNL     1     -25.464  37.579  20.519  0.00  0.00    +0.000 A 
ATOM      6  C   UNL     1     -24.286  38.134  20.023  0.00  0.00    +0.000 A 
ATOM      7  C   UNL     1     -23.604  37.091  19.259  0.00  0.00    +0.000 C 
ATOM      8  C   UNL     1     -26.338  38.316  21.289  0.00  0.00    +0.000 A 
ATOM      9  C   UNL     1     -23.916  39.441  20.265  0.00  0.00    +0.000 A 
ATOM     10  C   UNL     1     -24.528  35.843  19.363  0.00  0.00    +0.000 C 
ATOM     11  C   UNL     1     -25.980  39.641  21.543  0.00  0.00    +0.000 A 
ATOM     12  C   UNL     1     -24.791  40.201  21.043  0.00  0.00    +0.000 A 
ATOM     13  H   UNL     1     -26.370  35.636  20.369  0.00  0.00    +0.000 HD
ENDROOT
TORSDOF 0
ENDMDL
MODEL 7
REMARK VINA RESULT:      -3.9     24.674     25.715
REMARK  Name = 95716_6Bromoisatin.pdbqt.pdb
REMARK  0 active torsions:
REMARK  status: ('A' for Active; 'I' for Inactive)
REMARK                            x       y       z     vdW  Elec       q    Type
REMARK                         _______ _______ _______ _____ _____    ______ ____
ROOT
ATOM      1 BR   UNL     1     -16.957  44.662  -0.495  0.00  0.00    +0.000 Br
ATOM      2  O   UNL     1     -15.444  42.692   6.030  0.00  0.00    +0.000 OA
ATOM      3  O   UNL     1     -18.366  42.921   6.723  0.00  0.00    +0.000 OA
ATOM      4  N   UNL     1     -18.473  43.540   4.477  0.00  0.00    +0.000 N 
ATOM      5  C   UNL     1     -17.544  43.684   3.450  0.00  0.00    +0.000 A 
ATOM      6  C   UNL     1     -16.255  43.384   3.883  0.00  0.00    +0.000 A 
ATOM      7  C   UNL     1     -16.346  43.017   5.296  0.00  0.00    +0.000 C 
ATOM      8  C   UNL     1     -17.796  44.069   2.151  0.00  0.00    +0.000 A 
ATOM      9  C   UNL     1     -15.154  43.451   3.054  0.00  0.00    +0.000 A 
ATOM     10  C   UNL     1     -17.858  43.137   5.648  0.00  0.00    +0.000 C 
ATOM     11  C   UNL     1     -16.693  44.142   1.298  0.00  0.00    +0.000 A 
ATOM     12  C   UNL     1     -15.392  43.839   1.735  0.00  0.00    +0.000 A 
ATOM     13  H   UNL     1     -19.468  43.700   4.409  0.00  0.00    +0.000 HD
ENDROOT
TORSDOF 0
ENDMDL
MODEL 8
REMARK VINA RESULT:      -3.7      2.268      2.590
REMARK  Name = 95716_6Bromoisatin.pdbqt.pdb
REMARK  0 active torsions:
REMARK  status: ('A' for Active; 'I' for Inactive)
REMARK                            x       y       z     vdW  Elec       q    Type
REMARK                         _______ _______ _______ _____ _____    ______ ____
ROOT
ATOM      1 BR   UNL     1      -8.924  47.235  25.181  0.00  0.00    +0.000 Br
ATOM      2  O   UNL     1      -2.746  45.772  28.085  0.00  0.00    +0.000 OA
ATOM      3  O   UNL     1      -3.520  47.452  30.462  0.00  0.00    +0.000 OA
ATOM      4  N   UNL     1      -5.455  47.709  29.185  0.00  0.00    +0.000 N 
ATOM      5  C   UNL     1      -5.886  47.245  27.945  0.00  0.00    +0.000 A 
ATOM      6  C   UNL     1      -4.924  46.439  27.340  0.00  0.00    +0.000 A 
ATOM      7  C   UNL     1      -3.781  46.372  28.250  0.00  0.00    +0.000 C 
ATOM      8  C   UNL     1      -7.093  47.507  27.334  0.00  0.00    +0.000 A 
ATOM      9  C   UNL     1      -5.108  45.856  26.104  0.00  0.00    +0.000 A 
ATOM     10  C   UNL     1      -4.187  47.242  29.475  0.00  0.00    +0.000 C 
ATOM     11  C   UNL     1      -7.297  46.924  26.082  0.00  0.00    +0.000 A 
ATOM     12  C   UNL     1      -6.326  46.111  25.471  0.00  0.00    +0.000 A 
ATOM     13  H   UNL     1      -5.975  48.307  29.811  0.00  0.00    +0.000 HD
ENDROOT
TORSDOF 0
ENDMDL
MODEL 9
REMARK VINA RESULT:      -3.7     17.401     18.453
REMARK  Name = 95716_6Bromoisatin.pdbqt.pdb
REMARK  0 active torsions:
REMARK  status: ('A' for Active; 'I' for Inactive)
REMARK                            x       y       z     vdW  Elec       q    Type
REMARK                         _______ _______ _______ _____ _____    ______ ____
ROOT
ATOM      1 BR   UNL     1     -20.267  48.069  22.835  0.00  0.00    +0.000 Br
ATOM      2  O   UNL     1     -23.609  46.324  16.959  0.00  0.00    +0.000 OA
ATOM      3  O   UNL     1     -23.424  43.430  17.772  0.00  0.00    +0.000 OA
ATOM      4  N   UNL     1     -22.346  44.394  19.602  0.00  0.00    +0.000 N 
ATOM      5  C   UNL     1     -22.025  45.694  19.983  0.00  0.00    +0.000 A 
ATOM      6  C   UNL     1     -22.455  46.623  19.038  0.00  0.00    +0.000 A 
ATOM      7  C   UNL     1     -23.105  45.877  17.962  0.00  0.00    +0.000 C 
ATOM      8  C   UNL     1     -21.368  46.084  21.129  0.00  0.00    +0.000 A 
ATOM      9  C   UNL     1     -22.257  47.980  19.182  0.00  0.00    +0.000 A 
ATOM     10  C   UNL     1     -23.006  44.383  18.387  0.00  0.00    +0.000 C 
ATOM     11  C   UNL     1     -21.159  47.456  21.291  0.00  0.00    +0.000 A 
ATOM     12  C   UNL     1     -21.593  48.393  20.338  0.00  0.00    +0.000 A 
ATOM     13  H   UNL     1     -22.139  43.552  20.120  0.00  0.00    +0.000 HD
ENDROOT
TORSDOF 0
ENDMDL
