MODEL 1
REMARK VINA RESULT:      -7.3      0.000      0.000
REMARK  Name = 969516_Curcumin.pdbqt.pdb
REMARK  8 active torsions:
REMARK  status: ('A' for Active; 'I' for Inactive)
REMARK    1  A    between atoms: C_3  and  C_5
REMARK    2  A    between atoms: C_4  and  C_6
REMARK    3  A    between atoms: C_8  and  O_12
REMARK    4  A    between atoms: C_10  and  O_14
REMARK    5  A    between atoms: C_17  and  C_19
REMARK    6  A    between atoms: C_18  and  C_20
REMARK    7  A    between atoms: C_22  and  O_26
REMARK    8  A    between atoms: C_24  and  O_28
REMARK                            x       y       z     vdW  Elec       q    Type
REMARK                         _______ _______ _______ _____ _____    ______ ____
ROOT
ATOM      1  C   UNL     1      -3.333  46.752  26.259  0.00  0.00    +0.000 C 
ATOM      2  O   UNL     1      -4.127  44.683  25.672  0.00  0.00    +0.000 OA
ATOM      3  C   UNL     1      -4.369  45.870  25.833  0.00  0.00    +0.000 C 
ATOM      4  O   UNL     1      -2.435  48.839  26.557  0.00  0.00    +0.000 OA
ATOM      5  C   UNL     1      -2.294  47.631  26.681  0.00  0.00    +0.000 C 
ENDROOT
BRANCH   3   7
ATOM      6  C   UNL     1      -6.801  46.811  25.405  0.00  0.00    +0.000 C 
ATOM      7  C   UNL     1      -5.695  46.384  25.600  0.00  0.00    +0.000 C 
BRANCH   6   8
ATOM      8  C   UNL     1      -8.114  47.319  25.176  0.00  0.00    +0.000 A 
ATOM      9  C   UNL     1      -9.166  46.921  26.000  0.00  0.00    +0.000 A 
ATOM     10  C   UNL     1     -10.460  47.408  25.790  0.00  0.00    +0.000 A 
ATOM     11  C   UNL     1      -8.344  48.208  24.130  0.00  0.00    +0.000 A 
ATOM     12  C   UNL     1     -10.679  48.302  24.737  0.00  0.00    +0.000 A 
ATOM     13  C   UNL     1      -9.628  48.701  23.912  0.00  0.00    +0.000 A 
BRANCH  10  14
ATOM     14  O   UNL     1     -11.543  47.064  26.560  0.00  0.00    +0.000 OA
ATOM     15  C   UNL     1     -11.777  47.864  27.685  0.00  0.00    +0.000 C 
ENDBRANCH  10  14
BRANCH  12  16
ATOM     16  O   UNL     1     -11.908  48.832  24.454  0.00  0.00    +0.000 OA
ATOM     17  H   UNL     1     -12.248  49.333  25.214  0.00  0.00    +0.000 HD
ENDBRANCH  12  16
ENDBRANCH   6   8
ENDBRANCH   3   7
BRANCH   5  19
ATOM     18  C   UNL     1      -0.077  46.644  27.724  0.00  0.00    +0.000 C 
ATOM     19  C   UNL     1      -1.087  47.091  27.251  0.00  0.00    +0.000 C 
BRANCH  18  20
ATOM     20  C   UNL     1       1.123  46.110  28.281  0.00  0.00    +0.000 A 
ATOM     21  C   UNL     1       1.923  46.908  29.098  0.00  0.00    +0.000 A 
ATOM     22  C   UNL     1       3.102  46.399  29.651  0.00  0.00    +0.000 A 
ATOM     23  C   UNL     1       1.492  44.795  28.009  0.00  0.00    +0.000 A 
ATOM     24  C   UNL     1       3.460  45.079  29.370  0.00  0.00    +0.000 A 
ATOM     25  C   UNL     1       2.663  44.277  28.555  0.00  0.00    +0.000 A 
BRANCH  22  26
ATOM     26  O   UNL     1       3.947  47.115  30.464  0.00  0.00    +0.000 OA
ATOM     27  C   UNL     1       3.457  47.394  31.750  0.00  0.00    +0.000 C 
ENDBRANCH  22  26
BRANCH  24  28
ATOM     28  O   UNL     1       4.609  44.563  29.903  0.00  0.00    +0.000 OA
ATOM     29  H   UNL     1       5.261  44.446  29.187  0.00  0.00    +0.000 HD
ENDBRANCH  24  28
ENDBRANCH  18  20
ENDBRANCH   5  19
TORSDOF 8
ENDMDL
MODEL 2
REMARK VINA RESULT:      -6.1      4.104      7.711
REMARK  Name = 969516_Curcumin.pdbqt.pdb
REMARK  8 active torsions:
REMARK  status: ('A' for Active; 'I' for Inactive)
REMARK    1  A    between atoms: C_3  and  C_5
REMARK    2  A    between atoms: C_4  and  C_6
REMARK    3  A    between atoms: C_8  and  O_12
REMARK    4  A    between atoms: C_10  and  O_14
REMARK    5  A    between atoms: C_17  and  C_19
REMARK    6  A    between atoms: C_18  and  C_20
REMARK    7  A    between atoms: C_22  and  O_26
REMARK    8  A    between atoms: C_24  and  O_28
REMARK                            x       y       z     vdW  Elec       q    Type
REMARK                         _______ _______ _______ _____ _____    ______ ____
ROOT
ATOM      1  C   UNL     1     -10.496  47.978  25.176  0.00  0.00    +0.000 C 
ATOM      2  O   UNL     1     -10.980  49.538  26.785  0.00  0.00    +0.000 OA
ATOM      3  C   UNL     1     -11.339  48.964  25.768  0.00  0.00    +0.000 C 
ATOM      4  O   UNL     1     -10.114  46.209  23.770  0.00  0.00    +0.000 OA
ATOM      5  C   UNL     1      -9.654  46.989  24.590  0.00  0.00    +0.000 C 
ENDROOT
BRANCH   3   7
ATOM      6  C   UNL     1     -13.662  49.544  24.650  0.00  0.00    +0.000 C 
ATOM      7  C   UNL     1     -12.607  49.280  25.159  0.00  0.00    +0.000 C 
BRANCH   6   8
ATOM      8  C   UNL     1     -14.916  49.856  24.045  0.00  0.00    +0.000 A 
ATOM      9  C   UNL     1     -14.956  50.652  22.901  0.00  0.00    +0.000 A 
ATOM     10  C   UNL     1     -16.176  50.968  22.296  0.00  0.00    +0.000 A 
ATOM     11  C   UNL     1     -16.097  49.367  24.598  0.00  0.00    +0.000 A 
ATOM     12  C   UNL     1     -17.355  50.470  22.859  0.00  0.00    +0.000 A 
ATOM     13  C   UNL     1     -17.317  49.674  24.003  0.00  0.00    +0.000 A 
BRANCH  10  14
ATOM     14  O   UNL     1     -16.294  51.743  21.169  0.00  0.00    +0.000 OA
ATOM     15  C   UNL     1     -15.094  52.148  20.572  0.00  0.00    +0.000 C 
ENDBRANCH  10  14
BRANCH  12  16
ATOM     16  O   UNL     1     -18.594  50.725  22.338  0.00  0.00    +0.000 OA
ATOM     17  H   UNL     1     -18.532  50.923  21.388  0.00  0.00    +0.000 HD
ENDBRANCH  12  16
ENDBRANCH   6   8
ENDBRANCH   3   7
BRANCH   5  19
ATOM     18  C   UNL     1      -7.107  46.853  25.280  0.00  0.00    +0.000 C 
ATOM     19  C   UNL     1      -8.265  46.917  24.967  0.00  0.00    +0.000 C 
BRANCH  18  20
ATOM     20  C   UNL     1      -5.734  46.773  25.655  0.00  0.00    +0.000 A 
ATOM     21  C   UNL     1      -5.147  47.817  26.369  0.00  0.00    +0.000 A 
ATOM     22  C   UNL     1      -3.802  47.753  26.744  0.00  0.00    +0.000 A 
ATOM     23  C   UNL     1      -4.981  45.653  25.309  0.00  0.00    +0.000 A 
ATOM     24  C   UNL     1      -3.060  46.624  26.390  0.00  0.00    +0.000 A 
ATOM     25  C   UNL     1      -3.641  45.577  25.676  0.00  0.00    +0.000 A 
BRANCH  22  26
ATOM     26  O   UNL     1      -3.147  48.735  27.447  0.00  0.00    +0.000 OA
ATOM     27  C   UNL     1      -3.292  50.038  26.944  0.00  0.00    +0.000 C 
ENDBRANCH  22  26
BRANCH  24  28
ATOM     28  O   UNL     1      -1.742  46.542  26.749  0.00  0.00    +0.000 OA
ATOM     29  H   UNL     1      -1.273  45.992  26.093  0.00  0.00    +0.000 HD
ENDBRANCH  24  28
ENDBRANCH  18  20
ENDBRANCH   5  19
TORSDOF 8
ENDMDL
MODEL 3
REMARK VINA RESULT:      -6.1      2.751      2.980
REMARK  Name = 969516_Curcumin.pdbqt.pdb
REMARK  8 active torsions:
REMARK  status: ('A' for Active; 'I' for Inactive)
REMARK    1  A    between atoms: C_3  and  C_5
REMARK    2  A    between atoms: C_4  and  C_6
REMARK    3  A    between atoms: C_8  and  O_12
REMARK    4  A    between atoms: C_10  and  O_14
REMARK    5  A    between atoms: C_17  and  C_19
REMARK    6  A    between atoms: C_18  and  C_20
REMARK    7  A    between atoms: C_22  and  O_26
REMARK    8  A    between atoms: C_24  and  O_28
REMARK                            x       y       z     vdW  Elec       q    Type
REMARK                         _______ _______ _______ _____ _____    ______ ____
ROOT
ATOM      1  C   UNL     1      -3.904  45.653  27.824  0.00  0.00    +0.000 C 
ATOM      2  O   UNL     1      -5.642  44.238  28.306  0.00  0.00    +0.000 OA
ATOM      3  C   UNL     1      -5.272  45.258  27.744  0.00  0.00    +0.000 C 
ATOM      4  O   UNL     1      -2.095  46.871  27.118  0.00  0.00    +0.000 OA
ATOM      5  C   UNL     1      -2.536  46.044  27.902  0.00  0.00    +0.000 C 
ENDROOT
BRANCH   3   7
ATOM      6  C   UNL     1      -6.989  46.738  26.386  0.00  0.00    +0.000 C 
ATOM      7  C   UNL     1      -6.208  46.065  27.003  0.00  0.00    +0.000 C 
BRANCH   6   8
ATOM      8  C   UNL     1      -7.918  47.537  25.655  0.00  0.00    +0.000 A 
ATOM      9  C   UNL     1      -7.865  48.927  25.751  0.00  0.00    +0.000 A 
ATOM     10  C   UNL     1      -8.767  49.725  25.042  0.00  0.00    +0.000 A 
ATOM     11  C   UNL     1      -8.874  46.928  24.847  0.00  0.00    +0.000 A 
ATOM     12  C   UNL     1      -9.723  49.103  24.233  0.00  0.00    +0.000 A 
ATOM     13  C   UNL     1      -9.777  47.713  24.135  0.00  0.00    +0.000 A 
BRANCH  10  14
ATOM     14  O   UNL     1      -8.775  51.097  25.086  0.00  0.00    +0.000 OA
ATOM     15  C   UNL     1      -8.919  51.671  26.355  0.00  0.00    +0.000 C 
ENDBRANCH  10  14
BRANCH  12  16
ATOM     16  O   UNL     1     -10.646  49.799  23.502  0.00  0.00    +0.000 OA
ATOM     17  H   UNL     1     -11.303  50.214  24.086  0.00  0.00    +0.000 HD
ENDBRANCH  12  16
ENDBRANCH   6   8
ENDBRANCH   3   7
BRANCH   5  19
ATOM     18  C   UNL     1      -0.970  44.983  29.747  0.00  0.00    +0.000 C 
ATOM     19  C   UNL     1      -1.683  45.463  28.907  0.00  0.00    +0.000 C 
BRANCH  18  20
ATOM     20  C   UNL     1      -0.121  44.417  30.743  0.00  0.00    +0.000 A 
ATOM     21  C   UNL     1       1.148  44.953  30.961  0.00  0.00    +0.000 A 
ATOM     22  C   UNL     1       1.991  44.409  31.933  0.00  0.00    +0.000 A 
ATOM     23  C   UNL     1      -0.560  43.330  31.496  0.00  0.00    +0.000 A 
ATOM     24  C   UNL     1       1.538  43.320  32.681  0.00  0.00    +0.000 A 
ATOM     25  C   UNL     1       0.271  42.780  32.467  0.00  0.00    +0.000 A 
BRANCH  22  26
ATOM     26  O   UNL     1       3.253  44.876  32.211  0.00  0.00    +0.000 OA
ATOM     27  C   UNL     1       3.309  46.076  32.938  0.00  0.00    +0.000 C 
ENDBRANCH  22  26
BRANCH  24  28
ATOM     28  O   UNL     1       2.350  42.774  33.638  0.00  0.00    +0.000 OA
ATOM     29  H   UNL     1       2.855  42.041  33.238  0.00  0.00    +0.000 HD
ENDBRANCH  24  28
ENDBRANCH  18  20
ENDBRANCH   5  19
TORSDOF 8
ENDMDL
MODEL 4
REMARK VINA RESULT:      -6.0      4.187     13.955
REMARK  Name = 969516_Curcumin.pdbqt.pdb
REMARK  8 active torsions:
REMARK  status: ('A' for Active; 'I' for Inactive)
REMARK    1  A    between atoms: C_3  and  C_5
REMARK    2  A    between atoms: C_4  and  C_6
REMARK    3  A    between atoms: C_8  and  O_12
REMARK    4  A    between atoms: C_10  and  O_14
REMARK    5  A    between atoms: C_17  and  C_19
REMARK    6  A    between atoms: C_18  and  C_20
REMARK    7  A    between atoms: C_22  and  O_26
REMARK    8  A    between atoms: C_24  and  O_28
REMARK                            x       y       z     vdW  Elec       q    Type
REMARK                         _______ _______ _______ _____ _____    ______ ____
ROOT
ATOM      1  C   UNL     1     -10.471  48.385  24.794  0.00  0.00    +0.000 C 
ATOM      2  O   UNL     1     -10.262  46.327  23.808  0.00  0.00    +0.000 OA
ATOM      3  C   UNL     1      -9.729  47.216  24.453  0.00  0.00    +0.000 C 
ATOM      4  O   UNL     1     -10.808  50.294  26.017  0.00  0.00    +0.000 OA
ATOM      5  C   UNL     1     -11.217  49.550  25.138  0.00  0.00    +0.000 C 
ENDROOT
BRANCH   3   7
ATOM      6  C   UNL     1      -7.208  46.994  25.213  0.00  0.00    +0.000 C 
ATOM      7  C   UNL     1      -8.354  47.095  24.868  0.00  0.00    +0.000 C 
BRANCH   6   8
ATOM      8  C   UNL     1      -5.846  46.876  25.622  0.00  0.00    +0.000 A 
ATOM      9  C   UNL     1      -5.238  47.917  26.321  0.00  0.00    +0.000 A 
ATOM     10  C   UNL     1      -3.904  47.818  26.729  0.00  0.00    +0.000 A 
ATOM     11  C   UNL     1      -5.127  45.722  25.322  0.00  0.00    +0.000 A 
ATOM     12  C   UNL     1      -3.192  46.654  26.423  0.00  0.00    +0.000 A 
ATOM     13  C   UNL     1      -3.800  45.611  25.723  0.00  0.00    +0.000 A 
BRANCH  10  14
ATOM     14  O   UNL     1      -3.239  48.799  27.421  0.00  0.00    +0.000 OA
ATOM     15  C   UNL     1      -3.499  50.116  27.022  0.00  0.00    +0.000 C 
ENDBRANCH  10  14
BRANCH  12  16
ATOM     16  O   UNL     1      -1.885  46.465  26.780  0.00  0.00    +0.000 OA
ATOM     17  H   UNL     1      -1.324  47.167  26.410  0.00  0.00    +0.000 HD
ENDBRANCH  12  16
ENDBRANCH   6   8
ENDBRANCH   3   7
BRANCH   5  19
ATOM     18  C   UNL     1     -13.471  50.090  23.871  0.00  0.00    +0.000 C 
ATOM     19  C   UNL     1     -12.445  49.843  24.445  0.00  0.00    +0.000 C 
BRANCH  18  20
ATOM     20  C   UNL     1     -14.692  50.381  23.193  0.00  0.00    +0.000 A 
ATOM     21  C   UNL     1     -15.899  49.902  23.700  0.00  0.00    +0.000 A 
ATOM     22  C   UNL     1     -17.103  50.180  23.047  0.00  0.00    +0.000 A 
ATOM     23  C   UNL     1     -14.676  51.144  22.027  0.00  0.00    +0.000 A 
ATOM     24  C   UNL     1     -17.073  50.946  21.879  0.00  0.00    +0.000 A 
ATOM     25  C   UNL     1     -15.869  51.427  21.368  0.00  0.00    +0.000 A 
BRANCH  22  26
ATOM     26  O   UNL     1     -18.334  49.747  23.477  0.00  0.00    +0.000 OA
ATOM     27  C   UNL     1     -18.771  50.283  24.699  0.00  0.00    +0.000 C 
ENDBRANCH  22  26
BRANCH  24  28
ATOM     28  O   UNL     1     -18.241  51.228  21.226  0.00  0.00    +0.000 OA
ATOM     29  H   UNL     1     -18.049  51.339  20.276  0.00  0.00    +0.000 HD
ENDBRANCH  24  28
ENDBRANCH  18  20
ENDBRANCH   5  19
TORSDOF 8
ENDMDL
MODEL 5
REMARK VINA RESULT:      -5.6     20.394     23.142
REMARK  Name = 969516_Curcumin.pdbqt.pdb
REMARK  8 active torsions:
REMARK  status: ('A' for Active; 'I' for Inactive)
REMARK    1  A    between atoms: C_3  and  C_5
REMARK    2  A    between atoms: C_4  and  C_6
REMARK    3  A    between atoms: C_8  and  O_12
REMARK    4  A    between atoms: C_10  and  O_14
REMARK    5  A    between atoms: C_17  and  C_19
REMARK    6  A    between atoms: C_18  and  C_20
REMARK    7  A    between atoms: C_22  and  O_26
REMARK    8  A    between atoms: C_24  and  O_28
REMARK                            x       y       z     vdW  Elec       q    Type
REMARK                         _______ _______ _______ _____ _____    ______ ____
ROOT
ATOM      1  C   UNL     1      -5.332  25.962  22.568  0.00  0.00    +0.000 C 
ATOM      2  O   UNL     1      -6.445  26.616  20.674  0.00  0.00    +0.000 OA
ATOM      3  C   UNL     1      -5.384  26.563  21.276  0.00  0.00    +0.000 C 
ATOM      4  O   UNL     1      -4.205  25.030  24.332  0.00  0.00    +0.000 OA
ATOM      5  C   UNL     1      -5.282  25.357  23.857  0.00  0.00    +0.000 C 
ENDROOT
BRANCH   3   7
ATOM      6  C   UNL     1      -3.185  27.563  20.204  0.00  0.00    +0.000 C 
ATOM      7  C   UNL     1      -4.184  27.108  20.691  0.00  0.00    +0.000 C 
BRANCH   6   8
ATOM      8  C   UNL     1      -1.999  28.104  19.624  0.00  0.00    +0.000 A 
ATOM      9  C   UNL     1      -1.914  28.270  18.243  0.00  0.00    +0.000 A 
ATOM     10  C   UNL     1      -0.759  28.799  17.658  0.00  0.00    +0.000 A 
ATOM     11  C   UNL     1      -0.929  28.465  20.438  0.00  0.00    +0.000 A 
ATOM     12  C   UNL     1       0.309  29.158  18.486  0.00  0.00    +0.000 A 
ATOM     13  C   UNL     1       0.226  28.993  19.868  0.00  0.00    +0.000 A 
BRANCH  10  14
ATOM     14  O   UNL     1      -0.603  28.992  16.308  0.00  0.00    +0.000 OA
ATOM     15  C   UNL     1      -0.648  27.841  15.512  0.00  0.00    +0.000 C 
ENDBRANCH  10  14
BRANCH  12  16
ATOM     16  O   UNL     1       1.478  29.683  18.006  0.00  0.00    +0.000 OA
ATOM     17  H   UNL     1       1.333  30.578  17.655  0.00  0.00    +0.000 HD
ENDBRANCH  12  16
ENDBRANCH   6   8
ENDBRANCH   3   7
BRANCH   5  19
ATOM     18  C   UNL     1      -7.521  24.956  25.202  0.00  0.00    +0.000 C 
ATOM     19  C   UNL     1      -6.502  25.137  24.591  0.00  0.00    +0.000 C 
BRANCH  18  20
ATOM     20  C   UNL     1      -8.730  24.747  25.928  0.00  0.00    +0.000 A 
ATOM     21  C   UNL     1      -8.801  25.098  27.275  0.00  0.00    +0.000 A 
ATOM     22  C   UNL     1      -9.980  24.899  27.999  0.00  0.00    +0.000 A 
ATOM     23  C   UNL     1      -9.838  24.192  25.290  0.00  0.00    +0.000 A 
ATOM     24  C   UNL     1     -11.083  24.343  27.347  0.00  0.00    +0.000 A 
ATOM     25  C   UNL     1     -11.017  23.990  26.000  0.00  0.00    +0.000 A 
BRANCH  22  26
ATOM     26  O   UNL     1     -10.135  25.216  29.327  0.00  0.00    +0.000 OA
ATOM     27  C   UNL     1      -9.019  25.804  29.943  0.00  0.00    +0.000 C 
ENDBRANCH  22  26
BRANCH  24  28
ATOM     28  O   UNL     1     -12.246  24.141  28.039  0.00  0.00    +0.000 OA
ATOM     29  H   UNL     1     -12.032  24.038  28.986  0.00  0.00    +0.000 HD
ENDBRANCH  24  28
ENDBRANCH  18  20
ENDBRANCH   5  19
TORSDOF 8
ENDMDL
MODEL 6
REMARK VINA RESULT:      -5.6      2.484      2.940
REMARK  Name = 969516_Curcumin.pdbqt.pdb
REMARK  8 active torsions:
REMARK  status: ('A' for Active; 'I' for Inactive)
REMARK    1  A    between atoms: C_3  and  C_5
REMARK    2  A    between atoms: C_4  and  C_6
REMARK    3  A    between atoms: C_8  and  O_12
REMARK    4  A    between atoms: C_10  and  O_14
REMARK    5  A    between atoms: C_17  and  C_19
REMARK    6  A    between atoms: C_18  and  C_20
REMARK    7  A    between atoms: C_22  and  O_26
REMARK    8  A    between atoms: C_24  and  O_28
REMARK                            x       y       z     vdW  Elec       q    Type
REMARK                         _______ _______ _______ _____ _____    ______ ____
ROOT
ATOM      1  C   UNL     1      -5.449  46.202  28.456  0.00  0.00    +0.000 C 
ATOM      2  O   UNL     1      -6.281  47.695  29.984  0.00  0.00    +0.000 OA
ATOM      3  C   UNL     1      -6.403  47.171  28.887  0.00  0.00    +0.000 C 
ATOM      4  O   UNL     1      -4.762  44.493  27.093  0.00  0.00    +0.000 OA
ATOM      5  C   UNL     1      -4.497  45.231  28.030  0.00  0.00    +0.000 C 
ENDROOT
BRANCH   3   7
ATOM      6  C   UNL     1      -8.417  47.824  27.306  0.00  0.00    +0.000 C 
ATOM      7  C   UNL     1      -7.501  47.526  28.025  0.00  0.00    +0.000 C 
BRANCH   6   8
ATOM      8  C   UNL     1      -9.504  48.179  26.454  0.00  0.00    +0.000 A 
ATOM      9  C   UNL     1     -10.675  48.701  27.002  0.00  0.00    +0.000 A 
ATOM     10  C   UNL     1     -11.750  49.054  26.181  0.00  0.00    +0.000 A 
ATOM     11  C   UNL     1      -9.395  48.003  25.077  0.00  0.00    +0.000 A 
ATOM     12  C   UNL     1     -11.629  48.873  24.799  0.00  0.00    +0.000 A 
ATOM     13  C   UNL     1     -10.458  48.351  24.250  0.00  0.00    +0.000 A 
BRANCH  10  14
ATOM     14  O   UNL     1     -12.932  49.574  26.647  0.00  0.00    +0.000 OA
ATOM     15  C   UNL     1     -13.782  48.676  27.305  0.00  0.00    +0.000 C 
ENDBRANCH  10  14
BRANCH  12  16
ATOM     16  O   UNL     1     -12.626  49.189  23.917  0.00  0.00    +0.000 OA
ATOM     17  H   UNL     1     -12.261  49.353  23.032  0.00  0.00    +0.000 HD
ENDBRANCH  12  16
ENDBRANCH   6   8
ENDBRANCH   3   7
BRANCH   5  19
ATOM     18  C   UNL     1      -2.171  45.046  29.270  0.00  0.00    +0.000 C 
ATOM     19  C   UNL     1      -3.229  45.128  28.705  0.00  0.00    +0.000 C 
BRANCH  18  20
ATOM     20  C   UNL     1      -0.915  44.952  29.939  0.00  0.00    +0.000 A 
ATOM     21  C   UNL     1       0.019  45.978  29.807  0.00  0.00    +0.000 A 
ATOM     22  C   UNL     1       1.254  45.902  30.457  0.00  0.00    +0.000 A 
ATOM     23  C   UNL     1      -0.625  43.838  30.723  0.00  0.00    +0.000 A 
ATOM     24  C   UNL     1       1.532  44.779  31.240  0.00  0.00    +0.000 A 
ATOM     25  C   UNL     1       0.601  43.750  31.375  0.00  0.00    +0.000 A 
BRANCH  22  26
ATOM     26  O   UNL     1       2.230  46.866  30.381  0.00  0.00    +0.000 OA
ATOM     27  C   UNL     1       1.993  47.895  29.455  0.00  0.00    +0.000 C 
ENDBRANCH  22  26
BRANCH  24  28
ATOM     28  O   UNL     1       2.735  44.686  31.884  0.00  0.00    +0.000 OA
ATOM     29  H   UNL     1       3.285  45.451  31.632  0.00  0.00    +0.000 HD
ENDBRANCH  24  28
ENDBRANCH  18  20
ENDBRANCH   5  19
TORSDOF 8
ENDMDL
MODEL 7
REMARK VINA RESULT:      -5.5     25.841     28.522
REMARK  Name = 969516_Curcumin.pdbqt.pdb
REMARK  8 active torsions:
REMARK  status: ('A' for Active; 'I' for Inactive)
REMARK    1  A    between atoms: C_3  and  C_5
REMARK    2  A    between atoms: C_4  and  C_6
REMARK    3  A    between atoms: C_8  and  O_12
REMARK    4  A    between atoms: C_10  and  O_14
REMARK    5  A    between atoms: C_17  and  C_19
REMARK    6  A    between atoms: C_18  and  C_20
REMARK    7  A    between atoms: C_22  and  O_26
REMARK    8  A    between atoms: C_24  and  O_28
REMARK                            x       y       z     vdW  Elec       q    Type
REMARK                         _______ _______ _______ _____ _____    ______ ____
ROOT
ATOM      1  C   UNL     1     -19.612  35.641   7.175  0.00  0.00    +0.000 C 
ATOM      2  O   UNL     1     -18.289  33.893   6.503  0.00  0.00    +0.000 OA
ATOM      3  C   UNL     1     -19.265  34.258   7.141  0.00  0.00    +0.000 C 
ATOM      4  O   UNL     1     -21.072  37.361   7.573  0.00  0.00    +0.000 OA
ATOM      5  C   UNL     1     -19.958  37.022   7.204  0.00  0.00    +0.000 C 
ENDROOT
BRANCH   3   7
ATOM      6  C   UNL     1     -20.734  32.504   8.463  0.00  0.00    +0.000 C 
ATOM      7  C   UNL     1     -20.067  33.302   7.862  0.00  0.00    +0.000 C 
BRANCH   6   8
ATOM      8  C   UNL     1     -21.526  31.556   9.177  0.00  0.00    +0.000 A 
ATOM      9  C   UNL     1     -22.847  31.859   9.503  0.00  0.00    +0.000 A 
ATOM     10  C   UNL     1     -23.637  30.941  10.203  0.00  0.00    +0.000 A 
ATOM     11  C   UNL     1     -20.978  30.331   9.549  0.00  0.00    +0.000 A 
ATOM     12  C   UNL     1     -23.076  29.714  10.570  0.00  0.00    +0.000 A 
ATOM     13  C   UNL     1     -21.755  29.409  10.245  0.00  0.00    +0.000 A 
BRANCH  10  14
ATOM     14  O   UNL     1     -24.943  31.168  10.557  0.00  0.00    +0.000 OA
ATOM     15  C   UNL     1     -25.867  31.211   9.506  0.00  0.00    +0.000 C 
ENDBRANCH  10  14
BRANCH  12  16
ATOM     16  O   UNL     1     -23.770  28.754  11.255  0.00  0.00    +0.000 OA
ATOM     17  H   UNL     1     -24.153  29.123  12.069  0.00  0.00    +0.000 HD
ENDBRANCH  12  16
ENDBRANCH   6   8
ENDBRANCH   3   7
BRANCH   5  19
ATOM     18  C   UNL     1     -18.187  38.838   6.464  0.00  0.00    +0.000 C 
ATOM     19  C   UNL     1     -18.991  38.011   6.798  0.00  0.00    +0.000 C 
BRANCH  18  20
ATOM     20  C   UNL     1     -17.235  39.823   6.067  0.00  0.00    +0.000 A 
ATOM     21  C   UNL     1     -17.651  41.131   5.821  0.00  0.00    +0.000 A 
ATOM     22  C   UNL     1     -16.730  42.108   5.432  0.00  0.00    +0.000 A 
ATOM     23  C   UNL     1     -15.893  39.478   5.926  0.00  0.00    +0.000 A 
ATOM     24  C   UNL     1     -15.388  41.748   5.295  0.00  0.00    +0.000 A 
ATOM     25  C   UNL     1     -14.966  40.442   5.539  0.00  0.00    +0.000 A 
BRANCH  22  26
ATOM     26  O   UNL     1     -17.055  43.417   5.170  0.00  0.00    +0.000 OA
ATOM     27  C   UNL     1     -17.971  43.616   4.125  0.00  0.00    +0.000 C 
ENDBRANCH  22  26
BRANCH  24  28
ATOM     28  O   UNL     1     -14.471  42.690   4.915  0.00  0.00    +0.000 OA
ATOM     29  H   UNL     1     -14.756  43.079   4.066  0.00  0.00    +0.000 HD
ENDBRANCH  24  28
ENDBRANCH  18  20
ENDBRANCH   5  19
TORSDOF 8
ENDMDL
MODEL 8
REMARK VINA RESULT:      -5.5      5.127     14.951
REMARK  Name = 969516_Curcumin.pdbqt.pdb
REMARK  8 active torsions:
REMARK  status: ('A' for Active; 'I' for Inactive)
REMARK    1  A    between atoms: C_3  and  C_5
REMARK    2  A    between atoms: C_4  and  C_6
REMARK    3  A    between atoms: C_8  and  O_12
REMARK    4  A    between atoms: C_10  and  O_14
REMARK    5  A    between atoms: C_17  and  C_19
REMARK    6  A    between atoms: C_18  and  C_20
REMARK    7  A    between atoms: C_22  and  O_26
REMARK    8  A    between atoms: C_24  and  O_28
REMARK                            x       y       z     vdW  Elec       q    Type
REMARK                         _______ _______ _______ _____ _____    ______ ____
ROOT
ATOM      1  C   UNL     1     -12.457  48.792  25.974  0.00  0.00    +0.000 C 
ATOM      2  O   UNL     1     -12.348  47.227  27.646  0.00  0.00    +0.000 OA
ATOM      3  C   UNL     1     -11.739  47.925  26.849  0.00  0.00    +0.000 C 
ATOM      4  O   UNL     1     -12.591  50.564  24.528  0.00  0.00    +0.000 OA
ATOM      5  C   UNL     1     -13.177  49.660  25.104  0.00  0.00    +0.000 C 
ENDROOT
BRANCH   3   7
ATOM      6  C   UNL     1      -9.100  47.835  26.731  0.00  0.00    +0.000 C 
ATOM      7  C   UNL     1     -10.300  47.876  26.785  0.00  0.00    +0.000 C 
BRANCH   6   8
ATOM      8  C   UNL     1      -7.676  47.788  26.665  0.00  0.00    +0.000 A 
ATOM      9  C   UNL     1      -7.006  46.598  26.946  0.00  0.00    +0.000 A 
ATOM     10  C   UNL     1      -5.611  46.534  26.886  0.00  0.00    +0.000 A 
ATOM     11  C   UNL     1      -6.957  48.929  26.321  0.00  0.00    +0.000 A 
ATOM     12  C   UNL     1      -4.899  47.687  26.539  0.00  0.00    +0.000 A 
ATOM     13  C   UNL     1      -5.568  48.878  26.258  0.00  0.00    +0.000 A 
BRANCH  10  14
ATOM     14  O   UNL     1      -4.884  45.399  27.148  0.00  0.00    +0.000 OA
ATOM     15  C   UNL     1      -4.841  44.446  26.124  0.00  0.00    +0.000 C 
ENDBRANCH  10  14
BRANCH  12  16
ATOM     16  O   UNL     1      -3.535  47.721  26.455  0.00  0.00    +0.000 OA
ATOM     17  H   UNL     1      -3.189  48.551  26.825  0.00  0.00    +0.000 HD
ENDBRANCH  12  16
ENDBRANCH   6   8
ENDBRANCH   3   7
BRANCH   5  19
ATOM     18  C   UNL     1     -15.771  49.306  24.744  0.00  0.00    +0.000 C 
ATOM     19  C   UNL     1     -14.591  49.465  24.908  0.00  0.00    +0.000 C 
BRANCH  18  20
ATOM     20  C   UNL     1     -17.172  49.121  24.554  0.00  0.00    +0.000 A 
ATOM     21  C   UNL     1     -17.700  49.095  23.264  0.00  0.00    +0.000 A 
ATOM     22  C   UNL     1     -19.071  48.913  23.062  0.00  0.00    +0.000 A 
ATOM     23  C   UNL     1     -18.009  48.965  25.657  0.00  0.00    +0.000 A 
ATOM     24  C   UNL     1     -19.899  48.758  24.177  0.00  0.00    +0.000 A 
ATOM     25  C   UNL     1     -19.376  48.783  25.468  0.00  0.00    +0.000 A 
BRANCH  22  26
ATOM     26  O   UNL     1     -19.673  48.876  21.828  0.00  0.00    +0.000 OA
ATOM     27  C   UNL     1     -18.810  48.670  20.740  0.00  0.00    +0.000 C 
ENDBRANCH  22  26
BRANCH  24  28
ATOM     28  O   UNL     1     -21.244  48.579  23.999  0.00  0.00    +0.000 OA
ATOM     29  H   UNL     1     -21.591  48.058  24.747  0.00  0.00    +0.000 HD
ENDBRANCH  24  28
ENDBRANCH  18  20
ENDBRANCH   5  19
TORSDOF 8
ENDMDL
MODEL 9
REMARK VINA RESULT:      -5.4     26.939     28.936
REMARK  Name = 969516_Curcumin.pdbqt.pdb
REMARK  8 active torsions:
REMARK  status: ('A' for Active; 'I' for Inactive)
REMARK    1  A    between atoms: C_3  and  C_5
REMARK    2  A    between atoms: C_4  and  C_6
REMARK    3  A    between atoms: C_8  and  O_12
REMARK    4  A    between atoms: C_10  and  O_14
REMARK    5  A    between atoms: C_17  and  C_19
REMARK    6  A    between atoms: C_18  and  C_20
REMARK    7  A    between atoms: C_22  and  O_26
REMARK    8  A    between atoms: C_24  and  O_28
REMARK                            x       y       z     vdW  Elec       q    Type
REMARK                         _______ _______ _______ _____ _____    ______ ____
ROOT
ATOM      1  C   UNL     1     -15.991  42.565   3.086  0.00  0.00    +0.000 C 
ATOM      2  O   UNL     1     -16.531  43.855   4.903  0.00  0.00    +0.000 OA
ATOM      3  C   UNL     1     -16.613  42.767   4.354  0.00  0.00    +0.000 C 
ATOM      4  O   UNL     1     -15.180  41.230   1.409  0.00  0.00    +0.000 OA
ATOM      5  C   UNL     1     -15.366  42.366   1.822  0.00  0.00    +0.000 C 
ENDROOT
BRANCH   3   7
ATOM      6  C   UNL     1     -17.937  40.784   5.494  0.00  0.00    +0.000 C 
ATOM      7  C   UNL     1     -17.335  41.686   4.976  0.00  0.00    +0.000 C 
BRANCH   6   8
ATOM      8  C   UNL     1     -18.650  39.713   6.109  0.00  0.00    +0.000 A 
ATOM      9  C   UNL     1     -17.964  38.577   6.537  0.00  0.00    +0.000 A 
ATOM     10  C   UNL     1     -18.647  37.517   7.142  0.00  0.00    +0.000 A 
ATOM     11  C   UNL     1     -20.029  39.801   6.279  0.00  0.00    +0.000 A 
ATOM     12  C   UNL     1     -20.032  37.618   7.308  0.00  0.00    +0.000 A 
ATOM     13  C   UNL     1     -20.720  38.753   6.880  0.00  0.00    +0.000 A 
BRANCH  10  14
ATOM     14  O   UNL     1     -18.040  36.370   7.589  0.00  0.00    +0.000 OA
ATOM     15  C   UNL     1     -17.522  35.523   6.602  0.00  0.00    +0.000 C 
ENDBRANCH  10  14
BRANCH  12  16
ATOM     16  O   UNL     1     -20.785  36.634   7.888  0.00  0.00    +0.000 OA
ATOM     17  H   UNL     1     -21.612  36.500   7.395  0.00  0.00    +0.000 HD
ENDBRANCH  12  16
ENDBRANCH   6   8
ENDBRANCH   3   7
BRANCH   5  19
ATOM     18  C   UNL     1     -14.621  44.452   0.382  0.00  0.00    +0.000 C 
ATOM     19  C   UNL     1     -14.957  43.503   1.038  0.00  0.00    +0.000 C 
BRANCH  18  20
ATOM     20  C   UNL     1     -14.223  45.575  -0.401  0.00  0.00    +0.000 A 
ATOM     21  C   UNL     1     -14.967  46.753  -0.354  0.00  0.00    +0.000 A 
ATOM     22  C   UNL     1     -14.589  47.863  -1.115  0.00  0.00    +0.000 A 
ATOM     23  C   UNL     1     -13.091  45.494  -1.210  0.00  0.00    +0.000 A 
ATOM     24  C   UNL     1     -13.452  47.767  -1.922  0.00  0.00    +0.000 A 
ATOM     25  C   UNL     1     -12.705  46.592  -1.973  0.00  0.00    +0.000 A 
BRANCH  22  26
ATOM     26  O   UNL     1     -15.264  49.059  -1.128  0.00  0.00    +0.000 OA
ATOM     27  C   UNL     1     -16.623  48.983  -1.475  0.00  0.00    +0.000 C 
ENDBRANCH  22  26
BRANCH  24  28
ATOM     28  O   UNL     1     -13.066  48.843  -2.674  0.00  0.00    +0.000 OA
ATOM     29  H   UNL     1     -13.517  48.799  -3.538  0.00  0.00    +0.000 HD
ENDBRANCH  24  28
ENDBRANCH  18  20
ENDBRANCH   5  19
TORSDOF 8
ENDMDL
