MODEL 1
REMARK VINA RESULT:      -3.9      0.000      0.000
REMARK  Name = 971_OxalicAcid.pdbqt.pdb
REMARK  3 active torsions:
REMARK  status: ('A' for Active; 'I' for Inactive)
REMARK    1  A    between atoms: C_2  and  O_3
REMARK    2  A    between atoms: C_2  and  C_6
REMARK    3  A    between atoms: C_6  and  O_7
REMARK                            x       y       z     vdW  Elec       q    Type
REMARK                         _______ _______ _______ _____ _____    ______ ____
ROOT
ATOM      1  O   UNL     1       8.928  48.265  22.149  0.00  0.00    +0.000 OA
ATOM      2  C   UNL     1      10.033  47.851  21.858  0.00  0.00    +0.000 C 
ENDROOT
BRANCH   2   3
ATOM      3  O   UNL     1      11.134  48.252  22.508  0.00  0.00    +0.000 OA
ATOM      4  H   UNL     1      11.632  48.774  21.848  0.00  0.00    +0.000 HD
ENDBRANCH   2   3
BRANCH   2   6
ATOM      5  O   UNL     1      10.085  45.637  20.760  0.00  0.00    +0.000 OA
ATOM      6  C   UNL     1      10.343  46.824  20.725  0.00  0.00    +0.000 C 
BRANCH   6   7
ATOM      7  O   UNL     1      10.944  47.388  19.667  0.00  0.00    +0.000 OA
ATOM      8  H   UNL     1      11.323  46.635  19.171  0.00  0.00    +0.000 HD
ENDBRANCH   6   7
ENDBRANCH   2   6
TORSDOF 3
ENDMDL
MODEL 2
REMARK VINA RESULT:      -3.6      2.013      3.945
REMARK  Name = 971_OxalicAcid.pdbqt.pdb
REMARK  3 active torsions:
REMARK  status: ('A' for Active; 'I' for Inactive)
REMARK    1  A    between atoms: C_2  and  O_3
REMARK    2  A    between atoms: C_2  and  C_6
REMARK    3  A    between atoms: C_6  and  O_7
REMARK                            x       y       z     vdW  Elec       q    Type
REMARK                         _______ _______ _______ _____ _____    ______ ____
ROOT
ATOM      1  O   UNL     1      10.887  48.158  22.307  0.00  0.00    +0.000 OA
ATOM      2  C   UNL     1       9.751  48.517  22.550  0.00  0.00    +0.000 C 
ENDROOT
BRANCH   2   3
ATOM      3  O   UNL     1       8.695  48.023  21.889  0.00  0.00    +0.000 OA
ATOM      4  H   UNL     1       8.359  48.778  21.366  0.00  0.00    +0.000 HD
ENDBRANCH   2   3
BRANCH   2   6
ATOM      5  O   UNL     1      10.094  50.385  24.131  0.00  0.00    +0.000 OA
ATOM      6  C   UNL     1       9.347  49.569  23.629  0.00  0.00    +0.000 C 
BRANCH   6   7
ATOM      7  O   UNL     1       8.052  49.491  23.967  0.00  0.00    +0.000 OA
ATOM      8  H   UNL     1       7.851  48.534  23.948  0.00  0.00    +0.000 HD
ENDBRANCH   6   7
ENDBRANCH   2   6
TORSDOF 3
ENDMDL
MODEL 3
REMARK VINA RESULT:      -3.5      1.556      2.568
REMARK  Name = 971_OxalicAcid.pdbqt.pdb
REMARK  3 active torsions:
REMARK  status: ('A' for Active; 'I' for Inactive)
REMARK    1  A    between atoms: C_2  and  O_3
REMARK    2  A    between atoms: C_2  and  C_6
REMARK    3  A    between atoms: C_6  and  O_7
REMARK                            x       y       z     vdW  Elec       q    Type
REMARK                         _______ _______ _______ _____ _____    ______ ____
ROOT
ATOM      1  O   UNL     1       9.234  50.038  23.473  0.00  0.00    +0.000 OA
ATOM      2  C   UNL     1       9.076  49.192  22.614  0.00  0.00    +0.000 C 
ENDROOT
BRANCH   2   3
ATOM      3  O   UNL     1       7.966  49.141  21.865  0.00  0.00    +0.000 OA
ATOM      4  H   UNL     1       7.719  48.195  21.857  0.00  0.00    +0.000 HD
ENDBRANCH   2   3
BRANCH   2   6
ATOM      5  O   UNL     1      11.271  48.058  22.570  0.00  0.00    +0.000 OA
ATOM      6  C   UNL     1      10.097  48.069  22.255  0.00  0.00    +0.000 C 
BRANCH   6   7
ATOM      7  O   UNL     1       9.546  47.079  21.540  0.00  0.00    +0.000 OA
ATOM      8  H   UNL     1      10.005  46.271  21.845  0.00  0.00    +0.000 HD
ENDBRANCH   6   7
ENDBRANCH   2   6
TORSDOF 3
ENDMDL
MODEL 4
REMARK VINA RESULT:      -3.1     13.468     14.122
REMARK  Name = 971_OxalicAcid.pdbqt.pdb
REMARK  3 active torsions:
REMARK  status: ('A' for Active; 'I' for Inactive)
REMARK    1  A    between atoms: C_2  and  O_3
REMARK    2  A    between atoms: C_2  and  C_6
REMARK    3  A    between atoms: C_6  and  O_7
REMARK                            x       y       z     vdW  Elec       q    Type
REMARK                         _______ _______ _______ _____ _____    ______ ____
ROOT
ATOM      1  O   UNL     1      10.140  38.031  10.746  0.00  0.00    +0.000 OA
ATOM      2  C   UNL     1       9.073  38.546  10.474  0.00  0.00    +0.000 C 
ENDROOT
BRANCH   2   3
ATOM      3  O   UNL     1       7.906  37.974  10.799  0.00  0.00    +0.000 OA
ATOM      4  H   UNL     1       8.123  37.383  11.548  0.00  0.00    +0.000 HD
ENDBRANCH   2   3
BRANCH   2   6
ATOM      5  O   UNL     1       8.144  40.801  10.072  0.00  0.00    +0.000 OA
ATOM      6  C   UNL     1       8.890  39.905   9.729  0.00  0.00    +0.000 C 
BRANCH   6   7
ATOM      7  O   UNL     1       9.657  40.002   8.635  0.00  0.00    +0.000 OA
ATOM      8  H   UNL     1       9.517  40.917   8.318  0.00  0.00    +0.000 HD
ENDBRANCH   6   7
ENDBRANCH   2   6
TORSDOF 3
ENDMDL
MODEL 5
REMARK VINA RESULT:      -3.1     13.934     15.295
REMARK  Name = 971_OxalicAcid.pdbqt.pdb
REMARK  3 active torsions:
REMARK  status: ('A' for Active; 'I' for Inactive)
REMARK    1  A    between atoms: C_2  and  O_3
REMARK    2  A    between atoms: C_2  and  C_6
REMARK    3  A    between atoms: C_6  and  O_7
REMARK                            x       y       z     vdW  Elec       q    Type
REMARK                         _______ _______ _______ _____ _____    ______ ____
ROOT
ATOM      1  O   UNL     1       9.370  37.747   7.889  0.00  0.00    +0.000 OA
ATOM      2  C   UNL     1       8.596  38.308   8.640  0.00  0.00    +0.000 C 
ENDROOT
BRANCH   2   3
ATOM      3  O   UNL     1       7.608  39.091   8.185  0.00  0.00    +0.000 OA
ATOM      4  H   UNL     1       6.815  38.519   8.203  0.00  0.00    +0.000 HD
ENDBRANCH   2   3
BRANCH   2   6
ATOM      5  O   UNL     1       7.982  38.918  10.955  0.00  0.00    +0.000 OA
ATOM      6  C   UNL     1       8.621  38.214  10.197  0.00  0.00    +0.000 C 
BRANCH   6   7
ATOM      7  O   UNL     1       9.441  37.253  10.645  0.00  0.00    +0.000 OA
ATOM      8  H   UNL     1       9.994  37.023   9.871  0.00  0.00    +0.000 HD
ENDBRANCH   6   7
ENDBRANCH   2   6
TORSDOF 3
ENDMDL
MODEL 6
REMARK VINA RESULT:      -3.0     10.006     11.030
REMARK  Name = 971_OxalicAcid.pdbqt.pdb
REMARK  3 active torsions:
REMARK  status: ('A' for Active; 'I' for Inactive)
REMARK    1  A    between atoms: C_2  and  O_3
REMARK    2  A    between atoms: C_2  and  C_6
REMARK    3  A    between atoms: C_6  and  O_7
REMARK                            x       y       z     vdW  Elec       q    Type
REMARK                         _______ _______ _______ _____ _____    ______ ____
ROOT
ATOM      1  O   UNL     1      11.602  35.487  24.209  0.00  0.00    +0.000 OA
ATOM      2  C   UNL     1      10.946  36.480  23.965  0.00  0.00    +0.000 C 
ENDROOT
BRANCH   2   3
ATOM      3  O   UNL     1      10.864  37.504  24.827  0.00  0.00    +0.000 OA
ATOM      4  H   UNL     1      10.118  38.043  24.496  0.00  0.00    +0.000 HD
ENDBRANCH   2   3
BRANCH   2   6
ATOM      5  O   UNL     1       9.763  35.859  21.886  0.00  0.00    +0.000 OA
ATOM      6  C   UNL     1      10.122  36.722  22.663  0.00  0.00    +0.000 C 
BRANCH   6   7
ATOM      7  O   UNL     1       9.832  38.016  22.468  0.00  0.00    +0.000 OA
ATOM      8  H   UNL     1      10.703  38.447  22.347  0.00  0.00    +0.000 HD
ENDBRANCH   6   7
ENDBRANCH   2   6
TORSDOF 3
ENDMDL
MODEL 7
REMARK VINA RESULT:      -2.9     19.504     20.528
REMARK  Name = 971_OxalicAcid.pdbqt.pdb
REMARK  3 active torsions:
REMARK  status: ('A' for Active; 'I' for Inactive)
REMARK    1  A    between atoms: C_2  and  O_3
REMARK    2  A    between atoms: C_2  and  C_6
REMARK    3  A    between atoms: C_6  and  O_7
REMARK                            x       y       z     vdW  Elec       q    Type
REMARK                         _______ _______ _______ _____ _____    ______ ____
ROOT
ATOM      1  O   UNL     1       1.899  30.210  27.369  0.00  0.00    +0.000 OA
ATOM      2  C   UNL     1       0.927  30.701  26.830  0.00  0.00    +0.000 C 
ENDROOT
BRANCH   2   3
ATOM      3  O   UNL     1       1.042  31.594  25.837  0.00  0.00    +0.000 OA
ATOM      4  H   UNL     1       1.680  32.255  26.175  0.00  0.00    +0.000 HD
ENDBRANCH   2   3
BRANCH   2   6
ATOM      5  O   UNL     1      -1.024  30.371  28.310  0.00  0.00    +0.000 OA
ATOM      6  C   UNL     1      -0.559  30.388  27.188  0.00  0.00    +0.000 C 
BRANCH   6   7
ATOM      7  O   UNL     1      -1.308  30.129  26.106  0.00  0.00    +0.000 OA
ATOM      8  H   UNL     1      -1.949  29.454  26.408  0.00  0.00    +0.000 HD
ENDBRANCH   6   7
ENDBRANCH   2   6
TORSDOF 3
ENDMDL
MODEL 8
REMARK VINA RESULT:      -2.8     28.758     29.802
REMARK  Name = 971_OxalicAcid.pdbqt.pdb
REMARK  3 active torsions:
REMARK  status: ('A' for Active; 'I' for Inactive)
REMARK    1  A    between atoms: C_2  and  O_3
REMARK    2  A    between atoms: C_2  and  C_6
REMARK    3  A    between atoms: C_6  and  O_7
REMARK                            x       y       z     vdW  Elec       q    Type
REMARK                         _______ _______ _______ _____ _____    ______ ____
ROOT
ATOM      1  O   UNL     1     -17.790  41.795  34.331  0.00  0.00    +0.000 OA
ATOM      2  C   UNL     1     -16.595  41.650  34.504  0.00  0.00    +0.000 C 
ENDROOT
BRANCH   2   3
ATOM      3  O   UNL     1     -16.103  40.637  35.230  0.00  0.00    +0.000 OA
ATOM      4  H   UNL     1     -16.161  39.860  34.638  0.00  0.00    +0.000 HD
ENDBRANCH   2   3
BRANCH   2   6
ATOM      5  O   UNL     1     -15.575  43.782  33.783  0.00  0.00    +0.000 OA
ATOM      6  C   UNL     1     -15.480  42.580  33.934  0.00  0.00    +0.000 C 
BRANCH   6   7
ATOM      7  O   UNL     1     -14.365  41.911  33.611  0.00  0.00    +0.000 OA
ATOM      8  H   UNL     1     -13.738  42.116  34.333  0.00  0.00    +0.000 HD
ENDBRANCH   6   7
ENDBRANCH   2   6
TORSDOF 3
ENDMDL
MODEL 9
REMARK VINA RESULT:      -2.8     12.444     13.516
REMARK  Name = 971_OxalicAcid.pdbqt.pdb
REMARK  3 active torsions:
REMARK  status: ('A' for Active; 'I' for Inactive)
REMARK    1  A    between atoms: C_2  and  O_3
REMARK    2  A    between atoms: C_2  and  C_6
REMARK    3  A    between atoms: C_6  and  O_7
REMARK                            x       y       z     vdW  Elec       q    Type
REMARK                         _______ _______ _______ _____ _____    ______ ____
ROOT
ATOM      1  O   UNL     1       8.881  47.922   9.284  0.00  0.00    +0.000 OA
ATOM      2  C   UNL     1       7.743  48.022   8.870  0.00  0.00    +0.000 C 
ENDROOT
BRANCH   2   3
ATOM      3  O   UNL     1       6.744  48.470   9.643  0.00  0.00    +0.000 OA
ATOM      4  H   UNL     1       5.986  47.891   9.425  0.00  0.00    +0.000 HD
ENDBRANCH   2   3
BRANCH   2   6
ATOM      5  O   UNL     1       7.066  46.535   7.016  0.00  0.00    +0.000 OA
ATOM      6  C   UNL     1       7.271  47.660   7.428  0.00  0.00    +0.000 C 
BRANCH   6   7
ATOM      7  O   UNL     1       7.106  48.740   6.652  0.00  0.00    +0.000 OA
ATOM      8  H   UNL     1       6.180  49.015   6.808  0.00  0.00    +0.000 HD
ENDBRANCH   6   7
ENDBRANCH   2   6
TORSDOF 3
ENDMDL
