REMARK  Name = 9852185_GambogicAcid.pdbqt.pdb
REMARK  10 active torsions:
REMARK  status: ('A' for Active; 'I' for Inactive)
REMARK    1  A    between atoms: C_8  and  C_30
REMARK    2  A    between atoms: C_20  and  C_38
REMARK    3  A    between atoms: C_21  and  O_28
REMARK    4  A    between atoms: C_25  and  C_43
REMARK    5  A    between atoms: C_31  and  C_32
REMARK    6  A    between atoms: C_32  and  C_35
REMARK    7  A    between atoms: C_35  and  O_36
REMARK    8  A    between atoms: C_39  and  C_40
REMARK    9  A    between atoms: C_43  and  C_44
REMARK   10  A    between atoms: C_45  and  C_46
REMARK                            x       y       z     vdW  Elec       q    Type
REMARK                         _______ _______ _______ _____ _____    ______ ____
ROOT
ATOM      1  O   UNL     1       3.436  -1.287  -1.584  0.00  0.00    +0.000 OA
ATOM      2  O   UNL     1       1.189   0.079  -0.409  0.00  0.00    +0.000 OA
ATOM      3  O   UNL     1       6.040   0.505  -1.297  0.00  0.00    +0.000 OA
ATOM      4  O   UNL     1       1.326   4.175  -0.012  0.00  0.00    +0.000 OA
ATOM      5  O   UNL     1      -3.393  -0.074   0.843  0.00  0.00    +0.000 OA
ATOM      6  C   UNL     1       2.298   0.737  -1.006  0.00  0.00    +0.000 C 
ATOM      7  C   UNL     1       2.336   0.567  -2.567  0.00  0.00    +0.000 C 
ATOM      8  C   UNL     1       3.632  -0.090  -0.815  0.00  0.00    +0.000 C 
ATOM      9  C   UNL     1       2.635  -0.928  -2.723  0.00  0.00    +0.000 C 
ATOM     10  C   UNL     1       3.330   1.514  -3.074  0.00  0.00    +0.000 C 
ATOM     11  C   UNL     1       4.337   2.027  -2.161  0.00  0.00    +0.000 C 
ATOM     12  C   UNL     1       2.481   2.196  -0.554  0.00  0.00    +0.000 C 
ATOM     13  C   UNL     1       4.854   0.777  -1.394  0.00  0.00    +0.000 C 
ATOM     14  C   UNL     1       3.621   2.793  -1.174  0.00  0.00    +0.000 C 
ATOM     15  C   UNL     1       3.447  -1.225  -3.992  0.00  0.00    +0.000 C 
ATOM     16  C   UNL     1       1.326  -1.733  -2.719  0.00  0.00    +0.000 C 
ATOM     17  C   UNL     1       1.305   2.958  -0.138  0.00  0.00    +0.000 C 
ATOM     18  C   UNL     1       0.082   0.801  -0.053  0.00  0.00    +0.000 A 
ATOM     19  C   UNL     1       0.072   2.195   0.096  0.00  0.00    +0.000 A 
ATOM     20  C   UNL     1      -1.087   0.055   0.213  0.00  0.00    +0.000 A 
ATOM     21  C   UNL     1      -1.103   2.862   0.481  0.00  0.00    +0.000 A 
ATOM     22  C   UNL     1      -2.261   0.709   0.602  0.00  0.00    +0.000 A 
ATOM     23  C   UNL     1      -2.255   2.121   0.728  0.00  0.00    +0.000 A 
ATOM     24  C   UNL     1      -3.500   2.663   1.133  0.00  0.00    +0.000 C 
ATOM     25  C   UNL     1      -4.647   0.549   1.330  0.00  0.00    +0.000 C 
ATOM     26  C   UNL     1      -4.460   2.000   1.377  0.00  0.00    +0.000 C 
ATOM     27  C   UNL     1      -4.926  -0.048   2.732  0.00  0.00    +0.000 C 
ENDROOT
BRANCH  21  28
ATOM     28  O   UNL     1      -1.169   4.222   0.628  0.00  0.00    +0.000 OA
ATOM     29  H   UNL     1      -0.284   4.619   0.464  0.00  0.00    +0.000 HD
ENDBRANCH  21  28
BRANCH   8  30
ATOM     30  C   UNL     1       3.874  -0.447   0.590  0.00  0.00    +0.000 C 
ATOM     31  C   UNL     1       4.074  -0.812   2.069  0.00  0.00    +0.000 C 
BRANCH  31  32
ATOM     32  C   UNL     1       4.198  -1.090   3.336  0.00  0.00    +0.000 C 
ATOM     33  C   UNL     1       3.327  -0.258   4.259  0.00  0.00    +0.000 C 
BRANCH  32  35
ATOM     34  O   UNL     1       5.831  -2.846   3.053  0.00  0.00    +0.000 OA
ATOM     35  C   UNL     1       5.126  -2.164   3.782  0.00  0.00    +0.000 C 
BRANCH  35  36
ATOM     36  O   UNL     1       5.151  -2.357   5.118  0.00  0.00    +0.000 OA
ATOM     37  H   UNL     1       5.792  -3.085   5.260  0.00  0.00    +0.000 HD
ENDBRANCH  35  36
ENDBRANCH  32  35
ENDBRANCH  31  32
ENDBRANCH   8  30
BRANCH  20  38
ATOM     38  C   UNL     1      -1.071  -1.373   0.080  0.00  0.00    +0.000 C 
ATOM     39  C   UNL     1      -1.026  -2.900  -0.077  0.00  0.00    +0.000 C 
BRANCH  39  40
ATOM     40  C   UNL     1      -0.968  -4.188  -0.215  0.00  0.00    +0.000 C 
ATOM     41  C   UNL     1       0.188  -4.939   0.374  0.00  0.00    +0.000 C 
ATOM     42  C   UNL     1      -2.158  -4.934  -0.736  0.00  0.00    +0.000 C 
ENDBRANCH  39  40
ENDBRANCH  20  38
BRANCH  25  43
ATOM     43  C   UNL     1      -5.712   0.168   0.383  0.00  0.00    +0.000 C 
BRANCH  43  44
ATOM     44  C   UNL     1      -6.817  -0.236  -0.601  0.00  0.00    +0.000 C 
ATOM     45  C   UNL     1      -7.922  -0.642  -1.587  0.00  0.00    +0.000 C 
BRANCH  45  46
ATOM     46  C   UNL     1      -8.851  -0.981  -2.425  0.00  0.00    +0.000 C 
ATOM     47  C   UNL     1      -8.549  -1.010  -3.892  0.00  0.00    +0.000 C 
ATOM     48  C   UNL     1     -10.258  -1.167  -1.949  0.00  0.00    +0.000 C 
ENDBRANCH  45  46
ENDBRANCH  43  44
ENDBRANCH  25  43
TORSDOF 10
