MODEL 1
REMARK VINA RESULT:      -7.2      0.000      0.000
REMARK  Name = 9852185_GambogicAcid.pdbqt.pdb
REMARK  10 active torsions:
REMARK  status: ('A' for Active; 'I' for Inactive)
REMARK    1  A    between atoms: C_8  and  C_30
REMARK    2  A    between atoms: C_20  and  C_38
REMARK    3  A    between atoms: C_21  and  O_28
REMARK    4  A    between atoms: C_25  and  C_43
REMARK    5  A    between atoms: C_31  and  C_32
REMARK    6  A    between atoms: C_32  and  C_35
REMARK    7  A    between atoms: C_35  and  O_36
REMARK    8  A    between atoms: C_39  and  C_40
REMARK    9  A    between atoms: C_43  and  C_44
REMARK   10  A    between atoms: C_45  and  C_46
REMARK                            x       y       z     vdW  Elec       q    Type
REMARK                         _______ _______ _______ _____ _____    ______ ____
ROOT
ATOM      1  O   UNL     1     -10.049  50.568  27.789  0.00  0.00    +0.000 OA
ATOM      2  O   UNL     1      -7.319  49.652  27.723  0.00  0.00    +0.000 OA
ATOM      3  O   UNL     1     -12.011  48.083  27.556  0.00  0.00    +0.000 OA
ATOM      4  O   UNL     1      -6.476  46.004  26.012  0.00  0.00    +0.000 OA
ATOM      5  O   UNL     1      -2.710  50.746  28.105  0.00  0.00    +0.000 OA
ATOM      6  C   UNL     1      -8.395  48.996  27.068  0.00  0.00    +0.000 C 
ATOM      7  C   UNL     1      -8.942  49.805  25.838  0.00  0.00    +0.000 C 
ATOM      8  C   UNL     1      -9.749  49.165  27.868  0.00  0.00    +0.000 C 
ATOM      9  C   UNL     1      -9.577  51.027  26.511  0.00  0.00    +0.000 C 
ATOM     10  C   UNL     1      -9.824  48.905  25.094  0.00  0.00    +0.000 C 
ATOM     11  C   UNL     1     -10.375  47.746  25.774  0.00  0.00    +0.000 C 
ATOM     12  C   UNL     1      -8.125  47.516  26.744  0.00  0.00    +0.000 C 
ATOM     13  C   UNL     1     -10.881  48.288  27.141  0.00  0.00    +0.000 C 
ATOM     14  C   UNL     1      -9.250  46.911  26.105  0.00  0.00    +0.000 C 
ATOM     15  C   UNL     1     -10.781  51.561  25.720  0.00  0.00    +0.000 C 
ATOM     16  C   UNL     1      -8.526  52.131  26.705  0.00  0.00    +0.000 C 
ATOM     17  C   UNL     1      -6.747  47.085  26.517  0.00  0.00    +0.000 C 
ATOM     18  C   UNL     1      -6.032  49.258  27.477  0.00  0.00    +0.000 A 
ATOM     19  C   UNL     1      -5.688  48.028  26.897  0.00  0.00    +0.000 A 
ATOM     20  C   UNL     1      -5.019  50.152  27.887  0.00  0.00    +0.000 A 
ATOM     21  C   UNL     1      -4.340  47.690  26.692  0.00  0.00    +0.000 A 
ATOM     22  C   UNL     1      -3.673  49.822  27.692  0.00  0.00    +0.000 A 
ATOM     23  C   UNL     1      -3.348  48.582  27.086  0.00  0.00    +0.000 A 
ATOM     24  C   UNL     1      -1.954  48.363  26.950  0.00  0.00    +0.000 C 
ATOM     25  C   UNL     1      -1.267  50.426  27.996  0.00  0.00    +0.000 C 
ATOM     26  C   UNL     1      -1.125  49.128  27.333  0.00  0.00    +0.000 C 
ATOM     27  C   UNL     1      -0.704  50.407  29.439  0.00  0.00    +0.000 C 
ENDROOT
BRANCH  21  28
ATOM     28  O   UNL     1      -3.952  46.508  26.119  0.00  0.00    +0.000 OA
ATOM     29  H   UNL     1      -2.993  46.541  25.903  0.00  0.00    +0.000 HD
ENDBRANCH  21  28
BRANCH   8  30
ATOM     30  C   UNL     1      -9.619  48.773  29.278  0.00  0.00    +0.000 C 
ATOM     31  C   UNL     1      -9.431  48.372  30.749  0.00  0.00    +0.000 C 
BRANCH  31  32
ATOM     32  C   UNL     1      -9.217  48.019  31.985  0.00  0.00    +0.000 C 
ATOM     33  C   UNL     1     -10.321  48.394  32.955  0.00  0.00    +0.000 C 
BRANCH  32  35
ATOM     34  O   UNL     1      -6.834  47.639  32.080  0.00  0.00    +0.000 OA
ATOM     35  C   UNL     1      -7.973  47.290  32.354  0.00  0.00    +0.000 C 
BRANCH  35  36
ATOM     36  O   UNL     1      -8.181  46.153  33.050  0.00  0.00    +0.000 OA
ATOM     37  H   UNL     1      -8.981  46.325  33.590  0.00  0.00    +0.000 HD
ENDBRANCH  35  36
ENDBRANCH  32  35
ENDBRANCH  31  32
ENDBRANCH   8  30
BRANCH  20  38
ATOM     38  C   UNL     1      -5.370  51.401  28.498  0.00  0.00    +0.000 C 
ATOM     39  C   UNL     1      -5.777  52.732  29.147  0.00  0.00    +0.000 C 
BRANCH  39  40
ATOM     40  C   UNL     1      -6.141  53.850  29.695  0.00  0.00    +0.000 C 
ATOM     41  C   UNL     1      -6.391  55.046  28.827  0.00  0.00    +0.000 C 
ATOM     42  C   UNL     1      -6.542  53.874  31.138  0.00  0.00    +0.000 C 
ENDBRANCH  39  40
ENDBRANCH  20  38
BRANCH  25  43
ATOM     43  C   UNL     1      -0.644  51.508  27.210  0.00  0.00    +0.000 C 
BRANCH  43  44
ATOM     44  C   UNL     1       0.000  52.640  26.400  0.00  0.00    +0.000 C 
ATOM     45  C   UNL     1       0.644  53.772  25.586  0.00  0.00    +0.000 C 
BRANCH  45  46
ATOM     46  C   UNL     1       1.192  54.722  24.896  0.00  0.00    +0.000 C 
ATOM     47  C   UNL     1       0.350  55.542  23.968  0.00  0.00    +0.000 C 
ATOM     48  C   UNL     1       2.681  54.881  24.889  0.00  0.00    +0.000 C 
ENDBRANCH  45  46
ENDBRANCH  43  44
ENDBRANCH  25  43
TORSDOF 10
ENDMDL
MODEL 2
REMARK VINA RESULT:      -6.1     12.132     16.488
REMARK  Name = 9852185_GambogicAcid.pdbqt.pdb
REMARK  10 active torsions:
REMARK  status: ('A' for Active; 'I' for Inactive)
REMARK    1  A    between atoms: C_8  and  C_30
REMARK    2  A    between atoms: C_20  and  C_38
REMARK    3  A    between atoms: C_21  and  O_28
REMARK    4  A    between atoms: C_25  and  C_43
REMARK    5  A    between atoms: C_31  and  C_32
REMARK    6  A    between atoms: C_32  and  C_35
REMARK    7  A    between atoms: C_35  and  O_36
REMARK    8  A    between atoms: C_39  and  C_40
REMARK    9  A    between atoms: C_43  and  C_44
REMARK   10  A    between atoms: C_45  and  C_46
REMARK                            x       y       z     vdW  Elec       q    Type
REMARK                         _______ _______ _______ _____ _____    ______ ____
ROOT
ATOM      1  O   UNL     1       7.181  58.787  23.514  0.00  0.00    +0.000 OA
ATOM      2  O   UNL     1       5.535  57.370  21.623  0.00  0.00    +0.000 OA
ATOM      3  O   UNL     1       5.392  59.810  25.928  0.00  0.00    +0.000 OA
ATOM      4  O   UNL     1       1.488  58.126  21.538  0.00  0.00    +0.000 OA
ATOM      5  O   UNL     1       5.316  54.754  17.661  0.00  0.00    +0.000 OA
ATOM      6  C   UNL     1       5.071  58.435  22.442  0.00  0.00    +0.000 C 
ATOM      7  C   UNL     1       5.664  59.827  22.021  0.00  0.00    +0.000 C 
ATOM      8  C   UNL     1       5.820  58.460  23.835  0.00  0.00    +0.000 C 
ATOM      9  C   UNL     1       7.146  59.670  22.380  0.00  0.00    +0.000 C 
ATOM     10  C   UNL     1       4.897  60.849  22.735  0.00  0.00    +0.000 C 
ATOM     11  C   UNL     1       4.158  60.465  23.925  0.00  0.00    +0.000 C 
ATOM     12  C   UNL     1       3.545  58.462  22.633  0.00  0.00    +0.000 C 
ATOM     13  C   UNL     1       5.151  59.599  24.750  0.00  0.00    +0.000 C 
ATOM     14  C   UNL     1       3.147  59.541  23.480  0.00  0.00    +0.000 C 
ATOM     15  C   UNL     1       7.784  61.005  22.793  0.00  0.00    +0.000 C 
ATOM     16  C   UNL     1       7.912  59.046  21.204  0.00  0.00    +0.000 C 
ATOM     17  C   UNL     1       2.693  57.915  21.580  0.00  0.00    +0.000 C 
ATOM     18  C   UNL     1       4.738  56.889  20.620  0.00  0.00    +0.000 A 
ATOM     19  C   UNL     1       3.356  57.115  20.542  0.00  0.00    +0.000 A 
ATOM     20  C   UNL     1       5.376  56.084  19.651  0.00  0.00    +0.000 A 
ATOM     21  C   UNL     1       2.604  56.572  19.487  0.00  0.00    +0.000 A 
ATOM     22  C   UNL     1       4.635  55.534  18.600  0.00  0.00    +0.000 A 
ATOM     23  C   UNL     1       3.243  55.791  18.528  0.00  0.00    +0.000 A 
ATOM     24  C   UNL     1       2.605  55.175  17.423  0.00  0.00    +0.000 C 
ATOM     25  C   UNL     1       4.578  54.081  16.566  0.00  0.00    +0.000 C 
ATOM     26  C   UNL     1       3.171  54.478  16.639  0.00  0.00    +0.000 C 
ATOM     27  C   UNL     1       4.765  52.558  16.773  0.00  0.00    +0.000 C 
ENDROOT
BRANCH  21  28
ATOM     28  O   UNL     1       1.255  56.774  19.358  0.00  0.00    +0.000 OA
ATOM     29  H   UNL     1       0.938  56.381  18.513  0.00  0.00    +0.000 HD
ENDBRANCH  21  28
BRANCH   8  30
ATOM     30  C   UNL     1       5.778  57.160  24.518  0.00  0.00    +0.000 C 
ATOM     31  C   UNL     1       5.699  55.821  25.268  0.00  0.00    +0.000 C 
BRANCH  31  32
ATOM     32  C   UNL     1       5.616  54.714  25.950  0.00  0.00    +0.000 C 
ATOM     33  C   UNL     1       6.948  54.064  26.273  0.00  0.00    +0.000 C 
BRANCH  32  35
ATOM     34  O   UNL     1       3.804  54.278  27.486  0.00  0.00    +0.000 OA
ATOM     35  C   UNL     1       4.289  54.187  26.368  0.00  0.00    +0.000 C 
BRANCH  35  36
ATOM     36  O   UNL     1       3.605  53.563  25.385  0.00  0.00    +0.000 OA
ATOM     37  H   UNL     1       3.477  52.645  25.704  0.00  0.00    +0.000 HD
ENDBRANCH  35  36
ENDBRANCH  32  35
ENDBRANCH  31  32
ENDBRANCH   8  30
BRANCH  20  38
ATOM     38  C   UNL     1       6.786  55.836  19.743  0.00  0.00    +0.000 C 
ATOM     39  C   UNL     1       8.301  55.601  19.837  0.00  0.00    +0.000 C 
BRANCH  39  40
ATOM     40  C   UNL     1       9.582  55.423  19.920  0.00  0.00    +0.000 C 
ATOM     41  C   UNL     1      10.296  55.794  21.184  0.00  0.00    +0.000 C 
ATOM     42  C   UNL     1      10.292  54.632  18.864  0.00  0.00    +0.000 C 
ENDBRANCH  39  40
ENDBRANCH  20  38
BRANCH  25  43
ATOM     43  C   UNL     1       5.199  54.513  15.300  0.00  0.00    +0.000 C 
BRANCH  43  44
ATOM     44  C   UNL     1       5.850  54.968  13.987  0.00  0.00    +0.000 C 
ATOM     45  C   UNL     1       6.499  55.424  12.673  0.00  0.00    +0.000 C 
BRANCH  45  46
ATOM     46  C   UNL     1       7.042  55.806  11.559  0.00  0.00    +0.000 C 
ATOM     47  C   UNL     1       6.921  54.940  10.343  0.00  0.00    +0.000 C 
ATOM     48  C   UNL     1       7.931  57.009  11.533  0.00  0.00    +0.000 C 
ENDBRANCH  45  46
ENDBRANCH  43  44
ENDBRANCH  25  43
TORSDOF 10
ENDMDL
MODEL 3
REMARK VINA RESULT:      -6.0     23.716     27.794
REMARK  Name = 9852185_GambogicAcid.pdbqt.pdb
REMARK  10 active torsions:
REMARK  status: ('A' for Active; 'I' for Inactive)
REMARK    1  A    between atoms: C_8  and  C_30
REMARK    2  A    between atoms: C_20  and  C_38
REMARK    3  A    between atoms: C_21  and  O_28
REMARK    4  A    between atoms: C_25  and  C_43
REMARK    5  A    between atoms: C_31  and  C_32
REMARK    6  A    between atoms: C_32  and  C_35
REMARK    7  A    between atoms: C_35  and  O_36
REMARK    8  A    between atoms: C_39  and  C_40
REMARK    9  A    between atoms: C_43  and  C_44
REMARK   10  A    between atoms: C_45  and  C_46
REMARK                            x       y       z     vdW  Elec       q    Type
REMARK                         _______ _______ _______ _____ _____    ______ ____
ROOT
ATOM      1  O   UNL     1       0.231  26.652  18.485  0.00  0.00    +0.000 OA
ATOM      2  O   UNL     1      -2.559  25.966  18.292  0.00  0.00    +0.000 OA
ATOM      3  O   UNL     1       1.067  26.863  21.540  0.00  0.00    +0.000 OA
ATOM      4  O   UNL     1      -5.043  26.788  21.471  0.00  0.00    +0.000 OA
ATOM      5  O   UNL     1      -6.220  24.796  15.496  0.00  0.00    +0.000 OA
ATOM      6  C   UNL     1      -1.995  26.712  19.361  0.00  0.00    +0.000 C 
ATOM      7  C   UNL     1      -1.548  28.153  18.925  0.00  0.00    +0.000 C 
ATOM      8  C   UNL     1      -0.507  26.266  19.655  0.00  0.00    +0.000 C 
ATOM      9  C   UNL     1      -0.372  27.859  17.987  0.00  0.00    +0.000 C 
ATOM     10  C   UNL     1      -1.266  28.901  20.152  0.00  0.00    +0.000 C 
ATOM     11  C   UNL     1      -0.994  28.163  21.374  0.00  0.00    +0.000 C 
ATOM     12  C   UNL     1      -2.839  26.706  20.647  0.00  0.00    +0.000 C 
ATOM     13  C   UNL     1       0.013  27.055  20.954  0.00  0.00    +0.000 C 
ATOM     14  C   UNL     1      -2.209  27.456  21.686  0.00  0.00    +0.000 C 
ATOM     15  C   UNL     1       0.686  28.971  18.020  0.00  0.00    +0.000 C 
ATOM     16  C   UNL     1      -0.881  27.639  16.554  0.00  0.00    +0.000 C 
ATOM     17  C   UNL     1      -4.289  26.551  20.538  0.00  0.00    +0.000 C 
ATOM     18  C   UNL     1      -3.919  25.855  18.185  0.00  0.00    +0.000 A 
ATOM     19  C   UNL     1      -4.811  26.122  19.234  0.00  0.00    +0.000 A 
ATOM     20  C   UNL     1      -4.409  25.400  16.941  0.00  0.00    +0.000 A 
ATOM     21  C   UNL     1      -6.195  25.969  19.049  0.00  0.00    +0.000 A 
ATOM     22  C   UNL     1      -5.786  25.239  16.748  0.00  0.00    +0.000 A 
ATOM     23  C   UNL     1      -6.671  25.533  17.815  0.00  0.00    +0.000 A 
ATOM     24  C   UNL     1      -8.037  25.325  17.498  0.00  0.00    +0.000 C 
ATOM     25  C   UNL     1      -7.658  24.533  15.250  0.00  0.00    +0.000 C 
ATOM     26  C   UNL     1      -8.413  24.912  16.445  0.00  0.00    +0.000 C 
ATOM     27  C   UNL     1      -7.787  23.022  14.934  0.00  0.00    +0.000 C 
ENDROOT
BRANCH  21  28
ATOM     28  O   UNL     1      -7.108  26.229  20.036  0.00  0.00    +0.000 OA
ATOM     29  H   UNL     1      -7.780  25.511  20.067  0.00  0.00    +0.000 HD
ENDBRANCH  21  28
BRANCH   8  30
ATOM     30  C   UNL     1      -0.385  24.814  19.851  0.00  0.00    +0.000 C 
ATOM     31  C   UNL     1      -0.270  23.290  20.004  0.00  0.00    +0.000 C 
BRANCH  31  32
ATOM     32  C   UNL     1      -0.208  21.991  20.089  0.00  0.00    +0.000 C 
ATOM     33  C   UNL     1       0.570  21.467  21.281  0.00  0.00    +0.000 C 
BRANCH  32  35
ATOM     34  O   UNL     1      -1.184  19.962  19.215  0.00  0.00    +0.000 OA
ATOM     35  C   UNL     1      -0.884  21.139  19.073  0.00  0.00    +0.000 C 
BRANCH  35  36
ATOM     36  O   UNL     1      -1.167  21.773  17.915  0.00  0.00    +0.000 OA
ATOM     37  H   UNL     1      -0.717  22.641  17.982  0.00  0.00    +0.000 HD
ENDBRANCH  35  36
ENDBRANCH  32  35
ENDBRANCH  31  32
ENDBRANCH   8  30
BRANCH  20  38
ATOM     38  C   UNL     1      -3.496  25.107  15.875  0.00  0.00    +0.000 C 
ATOM     39  C   UNL     1      -2.495  24.789  14.755  0.00  0.00    +0.000 C 
BRANCH  39  40
ATOM     40  C   UNL     1      -1.636  24.513  13.823  0.00  0.00    +0.000 C 
ATOM     41  C   UNL     1      -1.328  25.544  12.780  0.00  0.00    +0.000 C 
ATOM     42  C   UNL     1      -0.788  23.283  13.935  0.00  0.00    +0.000 C 
ENDBRANCH  39  40
ENDBRANCH  20  38
BRANCH  25  43
ATOM     43  C   UNL     1      -8.049  25.343  14.080  0.00  0.00    +0.000 C 
BRANCH  43  44
ATOM     44  C   UNL     1      -8.461  26.188  12.868  0.00  0.00    +0.000 C 
ATOM     45  C   UNL     1      -8.874  27.035  11.656  0.00  0.00    +0.000 C 
BRANCH  45  46
ATOM     46  C   UNL     1      -9.228  27.753  10.637  0.00  0.00    +0.000 C 
ATOM     47  C   UNL     1     -10.485  27.414   9.895  0.00  0.00    +0.000 C 
ATOM     48  C   UNL     1      -8.301  28.797  10.097  0.00  0.00    +0.000 C 
ENDBRANCH  45  46
ENDBRANCH  43  44
ENDBRANCH  25  43
TORSDOF 10
ENDMDL
MODEL 4
REMARK VINA RESULT:      -5.7     26.071     29.684
REMARK  Name = 9852185_GambogicAcid.pdbqt.pdb
REMARK  10 active torsions:
REMARK  status: ('A' for Active; 'I' for Inactive)
REMARK    1  A    between atoms: C_8  and  C_30
REMARK    2  A    between atoms: C_20  and  C_38
REMARK    3  A    between atoms: C_21  and  O_28
REMARK    4  A    between atoms: C_25  and  C_43
REMARK    5  A    between atoms: C_31  and  C_32
REMARK    6  A    between atoms: C_32  and  C_35
REMARK    7  A    between atoms: C_35  and  O_36
REMARK    8  A    between atoms: C_39  and  C_40
REMARK    9  A    between atoms: C_43  and  C_44
REMARK   10  A    between atoms: C_45  and  C_46
REMARK                            x       y       z     vdW  Elec       q    Type
REMARK                         _______ _______ _______ _____ _____    ______ ____
ROOT
ATOM      1  O   UNL     1     -19.611  34.748   2.258  0.00  0.00    +0.000 OA
ATOM      2  O   UNL     1     -18.125  36.806   3.617  0.00  0.00    +0.000 OA
ATOM      3  O   UNL     1     -19.188  31.973   3.740  0.00  0.00    +0.000 OA
ATOM      4  O   UNL     1     -14.914  35.734   5.962  0.00  0.00    +0.000 OA
ATOM      5  O   UNL     1     -17.081  41.428   3.979  0.00  0.00    +0.000 OA
ATOM      6  C   UNL     1     -17.738  35.439   3.576  0.00  0.00    +0.000 C 
ATOM      7  C   UNL     1     -17.257  34.987   2.151  0.00  0.00    +0.000 C 
ATOM      8  C   UNL     1     -18.997  34.484   3.529  0.00  0.00    +0.000 C 
ATOM      9  C   UNL     1     -18.552  35.054   1.335  0.00  0.00    +0.000 C 
ATOM     10  C   UNL     1     -16.623  33.677   2.312  0.00  0.00    +0.000 C 
ATOM     11  C   UNL     1     -16.937  32.888   3.490  0.00  0.00    +0.000 C 
ATOM     12  C   UNL     1     -16.771  35.025   4.698  0.00  0.00    +0.000 C 
ATOM     13  C   UNL     1     -18.485  32.964   3.620  0.00  0.00    +0.000 C 
ATOM     14  C   UNL     1     -16.437  33.639   4.612  0.00  0.00    +0.000 C 
ATOM     15  C   UNL     1     -18.580  34.010   0.210  0.00  0.00    +0.000 C 
ATOM     16  C   UNL     1     -18.746  36.468   0.764  0.00  0.00    +0.000 C 
ATOM     17  C   UNL     1     -15.872  36.032   5.261  0.00  0.00    +0.000 C 
ATOM     18  C   UNL     1     -17.260  37.741   4.118  0.00  0.00    +0.000 A 
ATOM     19  C   UNL     1     -16.152  37.433   4.920  0.00  0.00    +0.000 A 
ATOM     20  C   UNL     1     -17.563  39.088   3.822  0.00  0.00    +0.000 A 
ATOM     21  C   UNL     1     -15.321  38.453   5.410  0.00  0.00    +0.000 A 
ATOM     22  C   UNL     1     -16.744  40.113   4.309  0.00  0.00    +0.000 A 
ATOM     23  C   UNL     1     -15.617  39.778   5.102  0.00  0.00    +0.000 A 
ATOM     24  C   UNL     1     -14.873  40.901   5.539  0.00  0.00    +0.000 C 
ATOM     25  C   UNL     1     -16.298  42.563   4.524  0.00  0.00    +0.000 C 
ATOM     26  C   UNL     1     -15.174  42.028   5.293  0.00  0.00    +0.000 C 
ATOM     27  C   UNL     1     -17.267  43.389   5.407  0.00  0.00    +0.000 C 
ENDROOT
BRANCH  21  28
ATOM     28  O   UNL     1     -14.220  38.204   6.186  0.00  0.00    +0.000 OA
ATOM     29  H   UNL     1     -13.788  37.370   5.894  0.00  0.00    +0.000 HD
ENDBRANCH  21  28
BRANCH   8  30
ATOM     30  C   UNL     1     -19.958  34.769   4.603  0.00  0.00    +0.000 C 
ATOM     31  C   UNL     1     -20.940  35.028   5.757  0.00  0.00    +0.000 C 
BRANCH  31  32
ATOM     32  C   UNL     1     -21.764  35.194   6.752  0.00  0.00    +0.000 C 
ATOM     33  C   UNL     1     -22.385  33.916   7.285  0.00  0.00    +0.000 C 
BRANCH  32  35
ATOM     34  O   UNL     1     -21.218  37.247   7.901  0.00  0.00    +0.000 OA
ATOM     35  C   UNL     1     -22.023  36.556   7.294  0.00  0.00    +0.000 C 
BRANCH  35  36
ATOM     36  O   UNL     1     -23.271  37.016   7.065  0.00  0.00    +0.000 OA
ATOM     37  H   UNL     1     -23.858  36.243   7.198  0.00  0.00    +0.000 HD
ENDBRANCH  35  36
ENDBRANCH  32  35
ENDBRANCH  31  32
ENDBRANCH   8  30
BRANCH  20  38
ATOM     38  C   UNL     1     -18.708  39.405   3.018  0.00  0.00    +0.000 C 
ATOM     39  C   UNL     1     -19.952  39.740   2.183  0.00  0.00    +0.000 C 
BRANCH  39  40
ATOM     40  C   UNL     1     -21.014  40.024   1.495  0.00  0.00    +0.000 C 
ATOM     41  C   UNL     1     -21.315  41.455   1.165  0.00  0.00    +0.000 C 
ATOM     42  C   UNL     1     -21.786  38.924   0.833  0.00  0.00    +0.000 C 
ENDBRANCH  39  40
ENDBRANCH  20  38
BRANCH  25  43
ATOM     43  C   UNL     1     -15.839  43.361   3.372  0.00  0.00    +0.000 C 
BRANCH  43  44
ATOM     44  C   UNL     1     -15.362  44.198   2.178  0.00  0.00    +0.000 C 
ATOM     45  C   UNL     1     -14.884  45.034   0.982  0.00  0.00    +0.000 C 
BRANCH  45  46
ATOM     46  C   UNL     1     -14.473  45.738  -0.026  0.00  0.00    +0.000 C 
ATOM     47  C   UNL     1     -15.466  46.498  -0.851  0.00  0.00    +0.000 C 
ATOM     48  C   UNL     1     -13.047  45.649  -0.470  0.00  0.00    +0.000 C 
ENDBRANCH  45  46
ENDBRANCH  43  44
ENDBRANCH  25  43
TORSDOF 10
ENDMDL
MODEL 5
REMARK VINA RESULT:      -5.7     26.370     29.824
REMARK  Name = 9852185_GambogicAcid.pdbqt.pdb
REMARK  10 active torsions:
REMARK  status: ('A' for Active; 'I' for Inactive)
REMARK    1  A    between atoms: C_8  and  C_30
REMARK    2  A    between atoms: C_20  and  C_38
REMARK    3  A    between atoms: C_21  and  O_28
REMARK    4  A    between atoms: C_25  and  C_43
REMARK    5  A    between atoms: C_31  and  C_32
REMARK    6  A    between atoms: C_32  and  C_35
REMARK    7  A    between atoms: C_35  and  O_36
REMARK    8  A    between atoms: C_39  and  C_40
REMARK    9  A    between atoms: C_43  and  C_44
REMARK   10  A    between atoms: C_45  and  C_46
REMARK                            x       y       z     vdW  Elec       q    Type
REMARK                         _______ _______ _______ _____ _____    ______ ____
ROOT
ATOM      1  O   UNL     1     -18.621  36.647   3.798  0.00  0.00    +0.000 OA
ATOM      2  O   UNL     1     -17.698  39.347   3.407  0.00  0.00    +0.000 OA
ATOM      3  O   UNL     1     -19.030  36.100   6.898  0.00  0.00    +0.000 OA
ATOM      4  O   UNL     1     -15.821  41.287   6.517  0.00  0.00    +0.000 OA
ATOM      5  O   UNL     1     -16.597  42.808   0.341  0.00  0.00    +0.000 OA
ATOM      6  C   UNL     1     -17.419  38.570   4.563  0.00  0.00    +0.000 C 
ATOM      7  C   UNL     1     -16.423  37.390   4.276  0.00  0.00    +0.000 C 
ATOM      8  C   UNL     1     -18.606  37.578   4.892  0.00  0.00    +0.000 C 
ATOM      9  C   UNL     1     -17.258  36.473   3.376  0.00  0.00    +0.000 C 
ATOM     10  C   UNL     1     -16.000  36.865   5.574  0.00  0.00    +0.000 C 
ATOM     11  C   UNL     1     -16.823  37.134   6.740  0.00  0.00    +0.000 C 
ATOM     12  C   UNL     1     -17.032  39.399   5.800  0.00  0.00    +0.000 C 
ATOM     13  C   UNL     1     -18.278  36.836   6.278  0.00  0.00    +0.000 C 
ATOM     14  C   UNL     1     -16.784  38.561   6.930  0.00  0.00    +0.000 C 
ATOM     15  C   UNL     1     -16.887  34.993   3.557  0.00  0.00    +0.000 C 
ATOM     16  C   UNL     1     -17.106  36.891   1.905  0.00  0.00    +0.000 C 
ATOM     17  C   UNL     1     -16.382  40.693   5.605  0.00  0.00    +0.000 C 
ATOM     18  C   UNL     1     -17.059  40.544   3.223  0.00  0.00    +0.000 A 
ATOM     19  C   UNL     1     -16.404  41.246   4.244  0.00  0.00    +0.000 A 
ATOM     20  C   UNL     1     -17.123  41.088   1.922  0.00  0.00    +0.000 A 
ATOM     21  C   UNL     1     -15.784  42.478   3.978  0.00  0.00    +0.000 A 
ATOM     22  C   UNL     1     -16.514  42.317   1.647  0.00  0.00    +0.000 A 
ATOM     23  C   UNL     1     -15.840  43.002   2.690  0.00  0.00    +0.000 A 
ATOM     24  C   UNL     1     -15.271  44.236   2.287  0.00  0.00    +0.000 C 
ATOM     25  C   UNL     1     -16.038  44.138   0.001  0.00  0.00    +0.000 C 
ATOM     26  C   UNL     1     -15.369  44.680   1.185  0.00  0.00    +0.000 C 
ATOM     27  C   UNL     1     -17.229  45.020  -0.450  0.00  0.00    +0.000 C 
ENDROOT
BRANCH  21  28
ATOM     28  O   UNL     1     -15.121  43.197   4.936  0.00  0.00    +0.000 OA
ATOM     29  H   UNL     1     -14.162  42.982   4.911  0.00  0.00    +0.000 HD
ENDBRANCH  21  28
BRANCH   8  30
ATOM     30  C   UNL     1     -19.904  38.262   4.969  0.00  0.00    +0.000 C 
ATOM     31  C   UNL     1     -21.235  39.025   5.055  0.00  0.00    +0.000 C 
BRANCH  31  32
ATOM     32  C   UNL     1     -22.337  39.713   5.157  0.00  0.00    +0.000 C 
ATOM     33  C   UNL     1     -23.606  38.927   4.885  0.00  0.00    +0.000 C 
BRANCH  32  35
ATOM     34  O   UNL     1     -23.246  41.916   5.547  0.00  0.00    +0.000 OA
ATOM     35  C   UNL     1     -22.292  41.152   5.532  0.00  0.00    +0.000 C 
BRANCH  35  36
ATOM     36  O   UNL     1     -21.066  41.598   5.878  0.00  0.00    +0.000 OA
ATOM     37  H   UNL     1     -20.705  42.012   5.067  0.00  0.00    +0.000 HD
ENDBRANCH  35  36
ENDBRANCH  32  35
ENDBRANCH  31  32
ENDBRANCH   8  30
BRANCH  20  38
ATOM     38  C   UNL     1     -17.810  40.379   0.882  0.00  0.00    +0.000 C 
ATOM     39  C   UNL     1     -18.566  39.609  -0.211  0.00  0.00    +0.000 C 
BRANCH  39  40
ATOM     40  C   UNL     1     -19.220  38.955  -1.120  0.00  0.00    +0.000 C 
ATOM     41  C   UNL     1     -19.309  39.515  -2.507  0.00  0.00    +0.000 C 
ATOM     42  C   UNL     1     -19.664  37.550  -0.849  0.00  0.00    +0.000 C 
ENDBRANCH  39  40
ENDBRANCH  20  38
BRANCH  25  43
ATOM     43  C   UNL     1     -15.092  43.935  -1.112  0.00  0.00    +0.000 C 
BRANCH  43  44
ATOM     44  C   UNL     1     -14.107  43.731  -2.270  0.00  0.00    +0.000 C 
ATOM     45  C   UNL     1     -13.119  43.526  -3.428  0.00  0.00    +0.000 C 
BRANCH  45  46
ATOM     46  C   UNL     1     -12.280  43.357  -4.401  0.00  0.00    +0.000 C 
ATOM     47  C   UNL     1     -11.523  44.533  -4.937  0.00  0.00    +0.000 C 
ATOM     48  C   UNL     1     -12.200  42.036  -5.101  0.00  0.00    +0.000 C 
ENDBRANCH  45  46
ENDBRANCH  43  44
ENDBRANCH  25  43
TORSDOF 10
ENDMDL
MODEL 6
REMARK VINA RESULT:      -5.6     18.662     23.191
REMARK  Name = 9852185_GambogicAcid.pdbqt.pdb
REMARK  10 active torsions:
REMARK  status: ('A' for Active; 'I' for Inactive)
REMARK    1  A    between atoms: C_8  and  C_30
REMARK    2  A    between atoms: C_20  and  C_38
REMARK    3  A    between atoms: C_21  and  O_28
REMARK    4  A    between atoms: C_25  and  C_43
REMARK    5  A    between atoms: C_31  and  C_32
REMARK    6  A    between atoms: C_32  and  C_35
REMARK    7  A    between atoms: C_35  and  O_36
REMARK    8  A    between atoms: C_39  and  C_40
REMARK    9  A    between atoms: C_43  and  C_44
REMARK   10  A    between atoms: C_45  and  C_46
REMARK                            x       y       z     vdW  Elec       q    Type
REMARK                         _______ _______ _______ _____ _____    ______ ____
ROOT
ATOM      1  O   UNL     1     -19.338  54.212   7.224  0.00  0.00    +0.000 OA
ATOM      2  O   UNL     1     -19.178  53.047   9.853  0.00  0.00    +0.000 OA
ATOM      3  O   UNL     1     -16.984  53.086   5.416  0.00  0.00    +0.000 OA
ATOM      4  O   UNL     1     -15.572  51.551  11.160  0.00  0.00    +0.000 OA
ATOM      5  O   UNL     1     -21.151  52.549  14.148  0.00  0.00    +0.000 OA
ATOM      6  C   UNL     1     -18.054  53.281   9.016  0.00  0.00    +0.000 C 
ATOM      7  C   UNL     1     -17.726  54.809   8.855  0.00  0.00    +0.000 C 
ATOM      8  C   UNL     1     -18.431  53.130   7.488  0.00  0.00    +0.000 C 
ATOM      9  C   UNL     1     -18.928  55.315   8.050  0.00  0.00    +0.000 C 
ATOM     10  C   UNL     1     -16.405  54.896   8.229  0.00  0.00    +0.000 C 
ATOM     11  C   UNL     1     -15.898  53.745   7.502  0.00  0.00    +0.000 C 
ATOM     12  C   UNL     1     -16.820  52.433   9.369  0.00  0.00    +0.000 C 
ATOM     13  C   UNL     1     -17.088  53.275   6.618  0.00  0.00    +0.000 C 
ATOM     14  C   UNL     1     -15.734  52.701   8.481  0.00  0.00    +0.000 C 
ATOM     15  C   UNL     1     -18.555  56.488   7.132  0.00  0.00    +0.000 C 
ATOM     16  C   UNL     1     -20.069  55.714   8.998  0.00  0.00    +0.000 C 
ATOM     17  C   UNL     1     -16.635  52.001  10.753  0.00  0.00    +0.000 C 
ATOM     18  C   UNL     1     -18.989  52.672  11.156  0.00  0.00    +0.000 A 
ATOM     19  C   UNL     1     -17.783  52.158  11.655  0.00  0.00    +0.000 A 
ATOM     20  C   UNL     1     -20.111  52.786  12.005  0.00  0.00    +0.000 A 
ATOM     21  C   UNL     1     -17.674  51.780  13.003  0.00  0.00    +0.000 A 
ATOM     22  C   UNL     1     -20.014  52.408  13.348  0.00  0.00    +0.000 A 
ATOM     23  C   UNL     1     -18.781  51.908  13.837  0.00  0.00    +0.000 A 
ATOM     24  C   UNL     1     -18.812  51.555  15.209  0.00  0.00    +0.000 C 
ATOM     25  C   UNL     1     -21.136  52.097  15.560  0.00  0.00    +0.000 C 
ATOM     26  C   UNL     1     -19.787  51.637  15.889  0.00  0.00    +0.000 C 
ATOM     27  C   UNL     1     -22.183  50.962  15.675  0.00  0.00    +0.000 C 
ENDROOT
BRANCH  21  28
ATOM     28  O   UNL     1     -16.516  51.285  13.542  0.00  0.00    +0.000 OA
ATOM     29  H   UNL     1     -15.891  51.039  12.823  0.00  0.00    +0.000 HD
ENDBRANCH  21  28
BRANCH   8  30
ATOM     30  C   UNL     1     -19.097  51.853   7.198  0.00  0.00    +0.000 C 
ATOM     31  C   UNL     1     -19.820  50.542   6.854  0.00  0.00    +0.000 C 
BRANCH  31  32
ATOM     32  C   UNL     1     -20.476  49.461   6.540  0.00  0.00    +0.000 C 
ATOM     33  C   UNL     1     -20.525  49.153   5.055  0.00  0.00    +0.000 C 
BRANCH  32  35
ATOM     34  O   UNL     1     -22.260  48.677   7.967  0.00  0.00    +0.000 OA
ATOM     35  C   UNL     1     -21.095  48.622   7.603  0.00  0.00    +0.000 C 
BRANCH  35  36
ATOM     36  O   UNL     1     -20.248  47.742   8.178  0.00  0.00    +0.000 OA
ATOM     37  H   UNL     1     -19.656  47.445   7.455  0.00  0.00    +0.000 HD
ENDBRANCH  35  36
ENDBRANCH  32  35
ENDBRANCH  31  32
ENDBRANCH   8  30
BRANCH  20  38
ATOM     38  C   UNL     1     -21.350  53.293  11.490  0.00  0.00    +0.000 C 
ATOM     39  C   UNL     1     -22.679  53.811  10.920  0.00  0.00    +0.000 C 
BRANCH  39  40
ATOM     40  C   UNL     1     -23.805  54.229  10.430  0.00  0.00    +0.000 C 
ATOM     41  C   UNL     1     -25.073  53.515  10.790  0.00  0.00    +0.000 C 
ATOM     42  C   UNL     1     -23.862  55.547   9.721  0.00  0.00    +0.000 C 
ENDBRANCH  39  40
ENDBRANCH  20  38
BRANCH  25  43
ATOM     43  C   UNL     1     -21.533  53.254  16.386  0.00  0.00    +0.000 C 
BRANCH  43  44
ATOM     44  C   UNL     1     -21.938  54.458  17.245  0.00  0.00    +0.000 C 
ATOM     45  C   UNL     1     -22.342  55.664  18.106  0.00  0.00    +0.000 C 
BRANCH  45  46
ATOM     46  C   UNL     1     -22.677  56.680  18.837  0.00  0.00    +0.000 C 
ATOM     47  C   UNL     1     -21.807  57.081  19.989  0.00  0.00    +0.000 C 
ATOM     48  C   UNL     1     -24.009  57.336  18.644  0.00  0.00    +0.000 C 
ENDBRANCH  45  46
ENDBRANCH  43  44
ENDBRANCH  25  43
TORSDOF 10
ENDMDL
MODEL 7
REMARK VINA RESULT:      -5.4     11.336     14.336
REMARK  Name = 9852185_GambogicAcid.pdbqt.pdb
REMARK  10 active torsions:
REMARK  status: ('A' for Active; 'I' for Inactive)
REMARK    1  A    between atoms: C_8  and  C_30
REMARK    2  A    between atoms: C_20  and  C_38
REMARK    3  A    between atoms: C_21  and  O_28
REMARK    4  A    between atoms: C_25  and  C_43
REMARK    5  A    between atoms: C_31  and  C_32
REMARK    6  A    between atoms: C_32  and  C_35
REMARK    7  A    between atoms: C_35  and  O_36
REMARK    8  A    between atoms: C_39  and  C_40
REMARK    9  A    between atoms: C_43  and  C_44
REMARK   10  A    between atoms: C_45  and  C_46
REMARK                            x       y       z     vdW  Elec       q    Type
REMARK                         _______ _______ _______ _____ _____    ______ ____
ROOT
ATOM      1  O   UNL     1     -14.090  46.196  35.751  0.00  0.00    +0.000 OA
ATOM      2  O   UNL     1     -13.505  43.488  36.540  0.00  0.00    +0.000 OA
ATOM      3  O   UNL     1     -17.201  46.493  35.196  0.00  0.00    +0.000 OA
ATOM      4  O   UNL     1     -16.111  40.486  35.468  0.00  0.00    +0.000 OA
ATOM      5  O   UNL     1     -10.274  40.375  38.108  0.00  0.00    +0.000 OA
ATOM      6  C   UNL     1     -14.567  43.852  35.668  0.00  0.00    +0.000 C 
ATOM      7  C   UNL     1     -14.059  44.348  34.267  0.00  0.00    +0.000 C 
ATOM      8  C   UNL     1     -15.154  45.273  36.035  0.00  0.00    +0.000 C 
ATOM      9  C   UNL     1     -13.371  45.671  34.622  0.00  0.00    +0.000 C 
ATOM     10  C   UNL     1     -15.227  44.406  33.388  0.00  0.00    +0.000 C 
ATOM     11  C   UNL     1     -16.550  44.475  33.985  0.00  0.00    +0.000 C 
ATOM     12  C   UNL     1     -15.684  42.800  35.566  0.00  0.00    +0.000 C 
ATOM     13  C   UNL     1     -16.429  45.553  35.099  0.00  0.00    +0.000 C 
ATOM     14  C   UNL     1     -16.728  43.234  34.693  0.00  0.00    +0.000 C 
ATOM     15  C   UNL     1     -13.461  46.693  33.479  0.00  0.00    +0.000 C 
ATOM     16  C   UNL     1     -11.904  45.418  35.006  0.00  0.00    +0.000 C 
ATOM     17  C   UNL     1     -15.349  41.393  35.777  0.00  0.00    +0.000 C 
ATOM     18  C   UNL     1     -13.182  42.168  36.703  0.00  0.00    +0.000 A 
ATOM     19  C   UNL     1     -14.030  41.107  36.355  0.00  0.00    +0.000 A 
ATOM     20  C   UNL     1     -11.930  41.904  37.300  0.00  0.00    +0.000 A 
ATOM     21  C   UNL     1     -13.632  39.777  36.570  0.00  0.00    +0.000 A 
ATOM     22  C   UNL     1     -11.526  40.583  37.523  0.00  0.00    +0.000 A 
ATOM     23  C   UNL     1     -12.390  39.524  37.147  0.00  0.00    +0.000 A 
ATOM     24  C   UNL     1     -11.871  38.236  37.429  0.00  0.00    +0.000 C 
ATOM     25  C   UNL     1      -9.818  39.004  38.439  0.00  0.00    +0.000 C 
ATOM     26  C   UNL     1     -10.821  38.051  37.962  0.00  0.00    +0.000 C 
ATOM     27  C   UNL     1      -9.650  38.950  39.978  0.00  0.00    +0.000 C 
ENDROOT
BRANCH  21  28
ATOM     28  O   UNL     1     -14.416  38.705  36.237  0.00  0.00    +0.000 OA
ATOM     29  H   UNL     1     -14.041  38.248  35.451  0.00  0.00    +0.000 HD
ENDBRANCH  21  28
BRANCH   8  30
ATOM     30  C   UNL     1     -15.524  45.378  37.454  0.00  0.00    +0.000 C 
ATOM     31  C   UNL     1     -15.933  45.438  38.934  0.00  0.00    +0.000 C 
BRANCH  31  32
ATOM     32  C   UNL     1     -16.321  45.452  40.177  0.00  0.00    +0.000 C 
ATOM     33  C   UNL     1     -16.959  46.752  40.631  0.00  0.00    +0.000 C 
BRANCH  32  35
ATOM     34  O   UNL     1     -15.830  44.253  42.215  0.00  0.00    +0.000 OA
ATOM     35  C   UNL     1     -16.143  44.248  41.034  0.00  0.00    +0.000 C 
BRANCH  35  36
ATOM     36  O   UNL     1     -16.362  43.077  40.398  0.00  0.00    +0.000 OA
ATOM     37  H   UNL     1     -15.682  43.038  39.693  0.00  0.00    +0.000 HD
ENDBRANCH  35  36
ENDBRANCH  32  35
ENDBRANCH  31  32
ENDBRANCH   8  30
BRANCH  20  38
ATOM     38  C   UNL     1     -11.072  42.990  37.674  0.00  0.00    +0.000 C 
ATOM     39  C   UNL     1     -10.154  44.144  38.105  0.00  0.00    +0.000 C 
BRANCH  39  40
ATOM     40  C   UNL     1      -9.378  45.110  38.487  0.00  0.00    +0.000 C 
ATOM     41  C   UNL     1      -8.169  44.797  39.316  0.00  0.00    +0.000 C 
ATOM     42  C   UNL     1      -9.551  46.478  37.903  0.00  0.00    +0.000 C 
ENDBRANCH  39  40
ENDBRANCH  20  38
BRANCH  25  43
ATOM     43  C   UNL     1      -8.519  38.809  37.768  0.00  0.00    +0.000 C 
BRANCH  43  44
ATOM     44  C   UNL     1      -7.170  38.598  37.071  0.00  0.00    +0.000 C 
ATOM     45  C   UNL     1      -5.819  38.388  36.370  0.00  0.00    +0.000 C 
BRANCH  45  46
ATOM     46  C   UNL     1      -4.682  38.203  35.776  0.00  0.00    +0.000 C 
ATOM     47  C   UNL     1      -4.503  38.664  34.362  0.00  0.00    +0.000 C 
ATOM     48  C   UNL     1      -3.619  37.379  36.433  0.00  0.00    +0.000 C 
ENDBRANCH  45  46
ENDBRANCH  43  44
ENDBRANCH  25  43
TORSDOF 10
ENDMDL
MODEL 8
REMARK VINA RESULT:      -5.3     24.907     28.252
REMARK  Name = 9852185_GambogicAcid.pdbqt.pdb
REMARK  10 active torsions:
REMARK  status: ('A' for Active; 'I' for Inactive)
REMARK    1  A    between atoms: C_8  and  C_30
REMARK    2  A    between atoms: C_20  and  C_38
REMARK    3  A    between atoms: C_21  and  O_28
REMARK    4  A    between atoms: C_25  and  C_43
REMARK    5  A    between atoms: C_31  and  C_32
REMARK    6  A    between atoms: C_32  and  C_35
REMARK    7  A    between atoms: C_35  and  O_36
REMARK    8  A    between atoms: C_39  and  C_40
REMARK    9  A    between atoms: C_43  and  C_44
REMARK   10  A    between atoms: C_45  and  C_46
REMARK                            x       y       z     vdW  Elec       q    Type
REMARK                         _______ _______ _______ _____ _____    ______ ____
ROOT
ATOM      1  O   UNL     1      -0.927  24.850  20.147  0.00  0.00    +0.000 OA
ATOM      2  O   UNL     1      -0.753  25.819  17.440  0.00  0.00    +0.000 OA
ATOM      3  O   UNL     1      -2.508  26.947  21.929  0.00  0.00    +0.000 OA
ATOM      4  O   UNL     1      -1.127  29.859  16.737  0.00  0.00    +0.000 OA
ATOM      5  O   UNL     1       0.554  24.971  12.950  0.00  0.00    +0.000 OA
ATOM      6  C   UNL     1      -0.812  26.659  18.585  0.00  0.00    +0.000 C 
ATOM      7  C   UNL     1       0.501  26.606  19.445  0.00  0.00    +0.000 C 
ATOM      8  C   UNL     1      -1.675  26.005  19.737  0.00  0.00    +0.000 C 
ATOM      9  C   UNL     1       0.466  25.179  20.002  0.00  0.00    +0.000 C 
ATOM     10  C   UNL     1       0.427  27.710  20.403  0.00  0.00    +0.000 C 
ATOM     11  C   UNL     1      -0.872  28.287  20.707  0.00  0.00    +0.000 C 
ATOM     12  C   UNL     1      -1.281  28.094  18.288  0.00  0.00    +0.000 C 
ATOM     13  C   UNL     1      -1.807  27.065  20.937  0.00  0.00    +0.000 C 
ATOM     14  C   UNL     1      -1.337  28.879  19.480  0.00  0.00    +0.000 C 
ATOM     15  C   UNL     1       1.126  25.082  21.385  0.00  0.00    +0.000 C 
ATOM     16  C   UNL     1       1.135  24.209  19.016  0.00  0.00    +0.000 C 
ATOM     17  C   UNL     1      -1.019  28.662  16.966  0.00  0.00    +0.000 C 
ATOM     18  C   UNL     1      -0.476  26.361  16.214  0.00  0.00    +0.000 A 
ATOM     19  C   UNL     1      -0.586  27.727  15.920  0.00  0.00    +0.000 A 
ATOM     20  C   UNL     1      -0.103  25.449  15.202  0.00  0.00    +0.000 A 
ATOM     21  C   UNL     1      -0.299  28.203  14.629  0.00  0.00    +0.000 A 
ATOM     22  C   UNL     1       0.179  25.912  13.913  0.00  0.00    +0.000 A 
ATOM     23  C   UNL     1       0.081  27.300  13.641  0.00  0.00    +0.000 A 
ATOM     24  C   UNL     1       0.386  27.642  12.300  0.00  0.00    +0.000 C 
ATOM     25  C   UNL     1       0.794  25.386  11.548  0.00  0.00    +0.000 C 
ATOM     26  C   UNL     1       0.670  26.842  11.463  0.00  0.00    +0.000 C 
ATOM     27  C   UNL     1      -0.265  24.660  10.681  0.00  0.00    +0.000 C 
ENDROOT
BRANCH  21  28
ATOM     28  O   UNL     1      -0.378  29.528  14.294  0.00  0.00    +0.000 OA
ATOM     29  H   UNL     1      -1.246  29.714  13.869  0.00  0.00    +0.000 HD
ENDBRANCH  21  28
BRANCH   8  30
ATOM     30  C   UNL     1      -3.005  25.585  19.272  0.00  0.00    +0.000 C 
ATOM     31  C   UNL     1      -4.391  25.183  18.746  0.00  0.00    +0.000 C 
BRANCH  31  32
ATOM     32  C   UNL     1      -5.571  24.893  18.276  0.00  0.00    +0.000 C 
ATOM     33  C   UNL     1      -6.117  23.546  18.711  0.00  0.00    +0.000 C 
BRANCH  32  35
ATOM     34  O   UNL     1      -5.872  26.303  16.339  0.00  0.00    +0.000 OA
ATOM     35  C   UNL     1      -6.288  25.857  17.399  0.00  0.00    +0.000 C 
BRANCH  35  36
ATOM     36  O   UNL     1      -7.498  26.237  17.862  0.00  0.00    +0.000 OA
ATOM     37  H   UNL     1      -7.551  25.870  18.770  0.00  0.00    +0.000 HD
ENDBRANCH  35  36
ENDBRANCH  32  35
ENDBRANCH  31  32
ENDBRANCH   8  30
BRANCH  20  38
ATOM     38  C   UNL     1      -0.010  24.049  15.498  0.00  0.00    +0.000 C 
ATOM     39  C   UNL     1       0.120  22.553  15.822  0.00  0.00    +0.000 C 
BRANCH  39  40
ATOM     40  C   UNL     1       0.248  21.294  16.103  0.00  0.00    +0.000 C 
ATOM     41  C   UNL     1       0.133  20.843  17.528  0.00  0.00    +0.000 C 
ATOM     42  C   UNL     1       0.262  20.283  14.997  0.00  0.00    +0.000 C 
ENDBRANCH  39  40
ENDBRANCH  20  38
BRANCH  25  43
ATOM     43  C   UNL     1       2.153  24.934  11.193  0.00  0.00    +0.000 C 
BRANCH  43  44
ATOM     44  C   UNL     1       3.566  24.469  10.817  0.00  0.00    +0.000 C 
ATOM     45  C   UNL     1       4.979  24.002  10.441  0.00  0.00    +0.000 C 
BRANCH  45  46
ATOM     46  C   UNL     1       6.174  23.607  10.131  0.00  0.00    +0.000 C 
ATOM     47  C   UNL     1       6.353  22.496   9.143  0.00  0.00    +0.000 C 
ATOM     48  C   UNL     1       7.356  24.132  10.886  0.00  0.00    +0.000 C 
ENDBRANCH  45  46
ENDBRANCH  43  44
ENDBRANCH  25  43
TORSDOF 10
ENDMDL
MODEL 9
REMARK VINA RESULT:      -5.3      8.661     11.971
REMARK  Name = 9852185_GambogicAcid.pdbqt.pdb
REMARK  10 active torsions:
REMARK  status: ('A' for Active; 'I' for Inactive)
REMARK    1  A    between atoms: C_8  and  C_30
REMARK    2  A    between atoms: C_20  and  C_38
REMARK    3  A    between atoms: C_21  and  O_28
REMARK    4  A    between atoms: C_25  and  C_43
REMARK    5  A    between atoms: C_31  and  C_32
REMARK    6  A    between atoms: C_32  and  C_35
REMARK    7  A    between atoms: C_35  and  O_36
REMARK    8  A    between atoms: C_39  and  C_40
REMARK    9  A    between atoms: C_43  and  C_44
REMARK   10  A    between atoms: C_45  and  C_46
REMARK                            x       y       z     vdW  Elec       q    Type
REMARK                         _______ _______ _______ _____ _____    ______ ____
ROOT
ATOM      1  O   UNL     1      -6.576  58.856  21.947  0.00  0.00    +0.000 OA
ATOM      2  O   UNL     1      -3.778  58.406  22.462  0.00  0.00    +0.000 OA
ATOM      3  O   UNL     1      -8.117  59.235  24.695  0.00  0.00    +0.000 OA
ATOM      4  O   UNL     1      -2.632  56.966  26.145  0.00  0.00    +0.000 OA
ATOM      5  O   UNL     1       0.592  57.850  20.679  0.00  0.00    +0.000 OA
ATOM      6  C   UNL     1      -4.823  58.023  23.346  0.00  0.00    +0.000 C 
ATOM      7  C   UNL     1      -5.682  56.831  22.792  0.00  0.00    +0.000 C 
ATOM      8  C   UNL     1      -6.042  59.027  23.269  0.00  0.00    +0.000 C 
ATOM      9  C   UNL     1      -6.394  57.473  21.596  0.00  0.00    +0.000 C 
ATOM     10  C   UNL     1      -6.511  56.353  23.898  0.00  0.00    +0.000 C 
ATOM     11  C   UNL     1      -6.751  57.238  25.025  0.00  0.00    +0.000 C 
ATOM     12  C   UNL     1      -4.369  57.814  24.801  0.00  0.00    +0.000 C 
ATOM     13  C   UNL     1      -7.117  58.608  24.386  0.00  0.00    +0.000 C 
ATOM     14  C   UNL     1      -5.467  57.451  25.640  0.00  0.00    +0.000 C 
ATOM     15  C   UNL     1      -7.777  56.856  21.348  0.00  0.00    +0.000 C 
ATOM     16  C   UNL     1      -5.520  57.362  20.337  0.00  0.00    +0.000 C 
ATOM     17  C   UNL     1      -2.993  57.394  25.057  0.00  0.00    +0.000 C 
ATOM     18  C   UNL     1      -2.499  57.979  22.697  0.00  0.00    +0.000 A 
ATOM     19  C   UNL     1      -2.055  57.480  23.930  0.00  0.00    +0.000 A 
ATOM     20  C   UNL     1      -1.594  58.107  21.621  0.00  0.00    +0.000 A 
ATOM     21  C   UNL     1      -0.720  57.077  24.096  0.00  0.00    +0.000 A 
ATOM     22  C   UNL     1      -0.260  57.713  21.778  0.00  0.00    +0.000 A 
ATOM     23  C   UNL     1       0.163  57.193  23.027  0.00  0.00    +0.000 A 
ATOM     24  C   UNL     1       1.534  56.837  23.061  0.00  0.00    +0.000 C 
ATOM     25  C   UNL     1       2.033  57.522  20.801  0.00  0.00    +0.000 C 
ATOM     26  C   UNL     1       2.278  56.985  22.141  0.00  0.00    +0.000 C 
ATOM     27  C   UNL     1       2.812  58.837  20.549  0.00  0.00    +0.000 C 
ENDROOT
BRANCH  21  28
ATOM     28  O   UNL     1      -0.239  56.572  25.275  0.00  0.00    +0.000 OA
ATOM     29  H   UNL     1       0.007  57.308  25.879  0.00  0.00    +0.000 HD
ENDBRANCH  21  28
BRANCH   8  30
ATOM     30  C   UNL     1      -5.629  60.426  23.450  0.00  0.00    +0.000 C 
ATOM     31  C   UNL     1      -5.178  61.875  23.690  0.00  0.00    +0.000 C 
BRANCH  31  32
ATOM     32  C   UNL     1      -4.800  63.095  23.949  0.00  0.00    +0.000 C 
ATOM     33  C   UNL     1      -5.902  64.135  23.861  0.00  0.00    +0.000 C 
BRANCH  32  35
ATOM     34  O   UNL     1      -2.662  64.203  23.771  0.00  0.00    +0.000 OA
ATOM     35  C   UNL     1      -3.387  63.382  24.314  0.00  0.00    +0.000 C 
BRANCH  35  36
ATOM     36  O   UNL     1      -2.918  62.643  25.342  0.00  0.00    +0.000 OA
ATOM     37  H   UNL     1      -3.634  62.006  25.548  0.00  0.00    +0.000 HD
ENDBRANCH  35  36
ENDBRANCH  32  35
ENDBRANCH  31  32
ENDBRANCH   8  30
BRANCH  20  38
ATOM     38  C   UNL     1      -2.043  58.636  20.366  0.00  0.00    +0.000 C 
ATOM     39  C   UNL     1      -2.496  59.213  19.017  0.00  0.00    +0.000 C 
BRANCH  39  40
ATOM     40  C   UNL     1      -2.857  59.703  17.872  0.00  0.00    +0.000 C 
ATOM     41  C   UNL     1      -4.314  59.757  17.523  0.00  0.00    +0.000 C 
ATOM     42  C   UNL     1      -1.857  60.427  17.023  0.00  0.00    +0.000 C 
ENDBRANCH  39  40
ENDBRANCH  20  38
BRANCH  25  43
ATOM     43  C   UNL     1       2.338  56.530  19.753  0.00  0.00    +0.000 C 
BRANCH  43  44
ATOM     44  C   UNL     1       2.651  55.493  18.667  0.00  0.00    +0.000 C 
ATOM     45  C   UNL     1       2.966  54.455  17.580  0.00  0.00    +0.000 C 
BRANCH  45  46
ATOM     46  C   UNL     1       3.230  53.585  16.657  0.00  0.00    +0.000 C 
ATOM     47  C   UNL     1       4.420  53.785  15.770  0.00  0.00    +0.000 C 
ATOM     48  C   UNL     1       2.256  52.487  16.362  0.00  0.00    +0.000 C 
ENDBRANCH  45  46
ENDBRANCH  43  44
ENDBRANCH  25  43
TORSDOF 10
ENDMDL
