MODEL 1
REMARK VINA RESULT:      -7.2      0.000      0.000
REMARK  Name = AFLATOXIN.pdbqt.pdb
REMARK  1 active torsions:
REMARK  status: ('A' for Active; 'I' for Inactive)
REMARK    1  A    between atoms: C_15  and  O_23
REMARK                            x       y       z     vdW  Elec       q    Type
REMARK                         _______ _______ _______ _____ _____    ______ ____
ROOT
ATOM      1  O   UNL     1     -19.524  36.022   7.395  0.00  0.00    +0.000 OA
ATOM      2  O   UNL     1     -21.870  35.969   6.619  0.00  0.00    +0.000 OA
ATOM      3  O   UNL     1     -19.218  40.500   5.972  0.00  0.00    +0.000 OA
ATOM      4  O   UNL     1     -15.026  42.873   4.681  0.00  0.00    +0.000 OA
ATOM      5  O   UNL     1     -19.233  42.698   5.478  0.00  0.00    +0.000 OA
ATOM      6  O   UNL     1     -17.031  43.885   4.567  0.00  0.00    +0.000 OA
ATOM      7  C   UNL     1     -20.692  37.979   6.882  0.00  0.00    +0.000 C 
ATOM      8  C   UNL     1     -19.276  38.238   6.718  0.00  0.00    +0.000 A 
ATOM      9  C   UNL     1     -20.809  36.568   7.325  0.00  0.00    +0.000 C 
ATOM     10  C   UNL     1     -18.643  37.042   7.071  0.00  0.00    +0.000 A 
ATOM     11  C   UNL     1     -18.535  39.327   6.300  0.00  0.00    +0.000 A 
ATOM     12  C   UNL     1     -17.144  39.253   6.229  0.00  0.00    +0.000 A 
ATOM     13  C   UNL     1     -21.746  38.185   5.954  0.00  0.00    +0.000 C 
ATOM     14  C   UNL     1     -16.448  40.449   5.723  0.00  0.00    +0.000 A 
ATOM     15  C   UNL     1     -16.524  38.038   6.636  0.00  0.00    +0.000 A 
ATOM     16  C   UNL     1     -17.274  36.912   7.030  0.00  0.00    +0.000 A 
ATOM     17  C   UNL     1     -15.053  40.460   5.501  0.00  0.00    +0.000 A 
ATOM     18  C   UNL     1     -17.101  41.609   5.418  0.00  0.00    +0.000 A 
ATOM     19  C   UNL     1     -22.214  37.085   5.976  0.00  0.00    +0.000 C 
ATOM     20  C   UNL     1     -14.477  41.722   4.993  0.00  0.00    +0.000 A 
ATOM     21  C   UNL     1     -18.573  41.678   5.616  0.00  0.00    +0.000 A 
ATOM     22  C   UNL     1     -16.403  42.876   4.865  0.00  0.00    +0.000 A 
ENDROOT
BRANCH  15  23
ATOM     23  O   UNL     1     -15.156  37.887   6.574  0.00  0.00    +0.000 OA
ATOM     24  C   UNL     1     -14.812  36.787   5.769  0.00  0.00    +0.000 C 
ENDBRANCH  15  23
TORSDOF 1
ENDMDL
MODEL 2
REMARK VINA RESULT:      -6.3      2.007      6.304
REMARK  Name = AFLATOXIN.pdbqt.pdb
REMARK  1 active torsions:
REMARK  status: ('A' for Active; 'I' for Inactive)
REMARK    1  A    between atoms: C_15  and  O_23
REMARK                            x       y       z     vdW  Elec       q    Type
REMARK                         _______ _______ _______ _____ _____    ______ ____
ROOT
ATOM      1  O   UNL     1     -20.238  43.953   3.703  0.00  0.00    +0.000 OA
ATOM      2  O   UNL     1     -18.914  44.968   1.879  0.00  0.00    +0.000 OA
ATOM      3  O   UNL     1     -16.531  41.272   4.818  0.00  0.00    +0.000 OA
ATOM      4  O   UNL     1     -16.711  36.866   7.148  0.00  0.00    +0.000 OA
ATOM      5  O   UNL     1     -14.644  40.202   5.426  0.00  0.00    +0.000 OA
ATOM      6  O   UNL     1     -14.762  37.749   6.455  0.00  0.00    +0.000 OA
ATOM      7  C   UNL     1     -17.917  43.701   3.581  0.00  0.00    +0.000 C 
ATOM      8  C   UNL     1     -18.459  42.582   4.325  0.00  0.00    +0.000 A 
ATOM      9  C   UNL     1     -19.074  44.556   3.216  0.00  0.00    +0.000 C 
ATOM     10  C   UNL     1     -19.837  42.816   4.385  0.00  0.00    +0.000 A 
ATOM     11  C   UNL     1     -17.914  41.447   4.896  0.00  0.00    +0.000 A 
ATOM     12  C   UNL     1     -18.728  40.521   5.547  0.00  0.00    +0.000 A 
ATOM     13  C   UNL     1     -17.069  43.685   2.444  0.00  0.00    +0.000 C 
ATOM     14  C   UNL     1     -18.060  39.319   6.078  0.00  0.00    +0.000 A 
ATOM     15  C   UNL     1     -20.120  40.805   5.630  0.00  0.00    +0.000 A 
ATOM     16  C   UNL     1     -20.688  41.941   5.022  0.00  0.00    +0.000 A 
ATOM     17  C   UNL     1     -18.789  38.257   6.658  0.00  0.00    +0.000 A 
ATOM     18  C   UNL     1     -16.707  39.143   6.026  0.00  0.00    +0.000 A 
ATOM     19  C   UNL     1     -17.729  44.376   1.725  0.00  0.00    +0.000 C 
ATOM     20  C   UNL     1     -18.000  37.111   7.153  0.00  0.00    +0.000 A 
ATOM     21  C   UNL     1     -15.866  40.212   5.422  0.00  0.00    +0.000 A 
ATOM     22  C   UNL     1     -15.976  37.885   6.555  0.00  0.00    +0.000 A 
ENDROOT
BRANCH  15  23
ATOM     23  O   UNL     1     -20.987  39.925   6.241  0.00  0.00    +0.000 OA
ATOM     24  C   UNL     1     -22.023  39.557   5.366  0.00  0.00    +0.000 C 
ENDBRANCH  15  23
TORSDOF 1
ENDMDL
MODEL 3
REMARK VINA RESULT:      -6.2     28.110     31.348
REMARK  Name = AFLATOXIN.pdbqt.pdb
REMARK  1 active torsions:
REMARK  status: ('A' for Active; 'I' for Inactive)
REMARK    1  A    between atoms: C_15  and  O_23
REMARK                            x       y       z     vdW  Elec       q    Type
REMARK                         _______ _______ _______ _____ _____    ______ ____
ROOT
ATOM      1  O   UNL     1       5.435  57.714  22.377  0.00  0.00    +0.000 OA
ATOM      2  O   UNL     1       3.266  57.778  23.559  0.00  0.00    +0.000 OA
ATOM      3  O   UNL     1       3.249  55.980  18.584  0.00  0.00    +0.000 OA
ATOM      4  O   UNL     1       5.353  53.201  15.018  0.00  0.00    +0.000 OA
ATOM      5  O   UNL     1       2.091  55.376  16.749  0.00  0.00    +0.000 OA
ATOM      6  O   UNL     1       3.160  53.702  14.976  0.00  0.00    +0.000 OA
ATOM      7  C   UNL     1       3.407  57.496  21.236  0.00  0.00    +0.000 C 
ATOM      8  C   UNL     1       4.442  56.849  20.455  0.00  0.00    +0.000 A 
ATOM      9  C   UNL     1       4.078  58.045  22.441  0.00  0.00    +0.000 C 
ATOM     10  C   UNL     1       5.623  57.046  21.178  0.00  0.00    +0.000 A 
ATOM     11  C   UNL     1       4.455  56.135  19.272  0.00  0.00    +0.000 A 
ATOM     12  C   UNL     1       5.645  55.606  18.775  0.00  0.00    +0.000 A 
ATOM     13  C   UNL     1       2.171  56.966  21.686  0.00  0.00    +0.000 C 
ATOM     14  C   UNL     1       5.547  54.818  17.534  0.00  0.00    +0.000 A 
ATOM     15  C   UNL     1       6.839  55.859  19.510  0.00  0.00    +0.000 A 
ATOM     16  C   UNL     1       6.830  56.555  20.733  0.00  0.00    +0.000 A 
ATOM     17  C   UNL     1       6.662  54.138  16.993  0.00  0.00    +0.000 A 
ATOM     18  C   UNL     1       4.379  54.674  16.842  0.00  0.00    +0.000 A 
ATOM     19  C   UNL     1       2.287  57.216  22.849  0.00  0.00    +0.000 C 
ATOM     20  C   UNL     1       6.430  53.384  15.745  0.00  0.00    +0.000 A 
ATOM     21  C   UNL     1       3.155  55.351  17.349  0.00  0.00    +0.000 A 
ATOM     22  C   UNL     1       4.236  53.837  15.547  0.00  0.00    +0.000 A 
ENDROOT
BRANCH  15  23
ATOM     23  O   UNL     1       8.049  55.350  19.089  0.00  0.00    +0.000 OA
ATOM     24  C   UNL     1       9.029  55.513  20.082  0.00  0.00    +0.000 C 
ENDBRANCH  15  23
TORSDOF 1
ENDMDL
MODEL 4
REMARK VINA RESULT:      -6.1      2.747      5.494
REMARK  Name = AFLATOXIN.pdbqt.pdb
REMARK  1 active torsions:
REMARK  status: ('A' for Active; 'I' for Inactive)
REMARK    1  A    between atoms: C_15  and  O_23
REMARK                            x       y       z     vdW  Elec       q    Type
REMARK                         _______ _______ _______ _____ _____    ______ ____
ROOT
ATOM      1  O   UNL     1     -22.660  43.052   4.493  0.00  0.00    +0.000 OA
ATOM      2  O   UNL     1     -22.872  44.743   2.704  0.00  0.00    +0.000 OA
ATOM      3  O   UNL     1     -17.978  43.509   4.286  0.00  0.00    +0.000 OA
ATOM      4  O   UNL     1     -14.646  40.050   5.629  0.00  0.00    +0.000 OA
ATOM      5  O   UNL     1     -15.771  43.960   4.281  0.00  0.00    +0.000 OA
ATOM      6  O   UNL     1     -14.004  42.029   4.775  0.00  0.00    +0.000 OA
ATOM      7  C   UNL     1     -20.869  44.421   3.878  0.00  0.00    +0.000 C 
ATOM      8  C   UNL     1     -20.335  43.206   4.459  0.00  0.00    +0.000 A 
ATOM      9  C   UNL     1     -22.346  44.293   3.929  0.00  0.00    +0.000 C 
ATOM     10  C   UNL     1     -21.456  42.456   4.831  0.00  0.00    +0.000 A 
ATOM     11  C   UNL     1     -19.061  42.711   4.664  0.00  0.00    +0.000 A 
ATOM     12  C   UNL     1     -18.871  41.461   5.250  0.00  0.00    +0.000 A 
ATOM     13  C   UNL     1     -20.572  45.009   2.621  0.00  0.00    +0.000 C 
ATOM     14  C   UNL     1     -17.477  41.000   5.378  0.00  0.00    +0.000 A 
ATOM     15  C   UNL     1     -20.028  40.738   5.657  0.00  0.00    +0.000 A 
ATOM     16  C   UNL     1     -21.330  41.219   5.421  0.00  0.00    +0.000 A 
ATOM     17  C   UNL     1     -17.161  39.706   5.851  0.00  0.00    +0.000 A 
ATOM     18  C   UNL     1     -16.408  41.776   5.030  0.00  0.00    +0.000 A 
ATOM     19  C   UNL     1     -21.688  45.101   2.204  0.00  0.00    +0.000 C 
ATOM     20  C   UNL     1     -15.725  39.369   5.933  0.00  0.00    +0.000 A 
ATOM     21  C   UNL     1     -16.655  43.149   4.515  0.00  0.00    +0.000 A 
ATOM     22  C   UNL     1     -14.934  41.315   5.133  0.00  0.00    +0.000 A 
ENDROOT
BRANCH  15  23
ATOM     23  O   UNL     1     -19.917  39.487   6.224  0.00  0.00    +0.000 OA
ATOM     24  C   UNL     1     -21.151  38.815   6.194  0.00  0.00    +0.000 C 
ENDBRANCH  15  23
TORSDOF 1
ENDMDL
MODEL 5
REMARK VINA RESULT:      -6.0     28.961     32.703
REMARK  Name = AFLATOXIN.pdbqt.pdb
REMARK  1 active torsions:
REMARK  status: ('A' for Active; 'I' for Inactive)
REMARK    1  A    between atoms: C_15  and  O_23
REMARK                            x       y       z     vdW  Elec       q    Type
REMARK                         _______ _______ _______ _____ _____    ______ ____
ROOT
ATOM      1  O   UNL     1       9.653  56.283  21.142  0.00  0.00    +0.000 OA
ATOM      2  O   UNL     1      11.774  55.855  19.948  0.00  0.00    +0.000 OA
ATOM      3  O   UNL     1       7.328  54.143  17.650  0.00  0.00    +0.000 OA
ATOM      4  O   UNL     1       2.563  54.928  16.406  0.00  0.00    +0.000 OA
ATOM      5  O   UNL     1       6.326  52.906  16.057  0.00  0.00    +0.000 OA
ATOM      6  O   UNL     1       3.858  53.499  15.249  0.00  0.00    +0.000 OA
ATOM      7  C   UNL     1       9.781  54.767  19.368  0.00  0.00    +0.000 C 
ATOM      8  C   UNL     1       8.417  55.246  19.460  0.00  0.00    +0.000 A 
ATOM      9  C   UNL     1      10.531  55.436  20.459  0.00  0.00    +0.000 C 
ATOM     10  C   UNL     1       8.408  56.117  20.555  0.00  0.00    +0.000 A 
ATOM     11  C   UNL     1       7.266  55.034  18.725  0.00  0.00    +0.000 A 
ATOM     12  C   UNL     1       6.077  55.677  19.065  0.00  0.00    +0.000 A 
ATOM     13  C   UNL     1      10.647  54.763  18.244  0.00  0.00    +0.000 C 
ATOM     14  C   UNL     1       4.919  55.425  18.190  0.00  0.00    +0.000 A 
ATOM     15  C   UNL     1       6.088  56.524  20.210  0.00  0.00    +0.000 A 
ATOM     16  C   UNL     1       7.263  56.773  20.944  0.00  0.00    +0.000 A 
ATOM     17  C   UNL     1       3.692  56.104  18.364  0.00  0.00    +0.000 A 
ATOM     18  C   UNL     1       4.960  54.544  17.148  0.00  0.00    +0.000 A 
ATOM     19  C   UNL     1      11.576  55.329  18.739  0.00  0.00    +0.000 C 
ATOM     20  C   UNL     1       2.610  55.759  17.420  0.00  0.00    +0.000 A 
ATOM     21  C   UNL     1       6.218  53.793  16.891  0.00  0.00    +0.000 A 
ATOM     22  C   UNL     1       3.769  54.270  16.197  0.00  0.00    +0.000 A 
ENDROOT
BRANCH  15  23
ATOM     23  O   UNL     1       4.955  57.208  20.594  0.00  0.00    +0.000 OA
ATOM     24  C   UNL     1       4.823  57.210  21.993  0.00  0.00    +0.000 C 
ENDBRANCH  15  23
TORSDOF 1
ENDMDL
MODEL 6
REMARK VINA RESULT:      -6.0     14.676     16.377
REMARK  Name = AFLATOXIN.pdbqt.pdb
REMARK  1 active torsions:
REMARK  status: ('A' for Active; 'I' for Inactive)
REMARK    1  A    between atoms: C_15  and  O_23
REMARK                            x       y       z     vdW  Elec       q    Type
REMARK                         _______ _______ _______ _____ _____    ______ ____
ROOT
ATOM      1  O   UNL     1     -25.420  36.826  20.780  0.00  0.00    +0.000 OA
ATOM      2  O   UNL     1     -23.622  35.795  19.435  0.00  0.00    +0.000 OA
ATOM      3  O   UNL     1     -24.456  40.976  18.773  0.00  0.00    +0.000 OA
ATOM      4  O   UNL     1     -25.387  45.459  20.748  0.00  0.00    +0.000 OA
ATOM      5  O   UNL     1     -24.083  42.862  17.598  0.00  0.00    +0.000 OA
ATOM      6  O   UNL     1     -24.366  45.243  18.756  0.00  0.00    +0.000 OA
ATOM      7  C   UNL     1     -24.475  37.922  18.944  0.00  0.00    +0.000 C 
ATOM      8  C   UNL     1     -25.012  38.922  19.845  0.00  0.00    +0.000 A 
ATOM      9  C   UNL     1     -24.765  36.605  19.564  0.00  0.00    +0.000 C 
ATOM     10  C   UNL     1     -25.586  38.197  20.895  0.00  0.00    +0.000 A 
ATOM     11  C   UNL     1     -25.031  40.304  19.854  0.00  0.00    +0.000 A 
ATOM     12  C   UNL     1     -25.627  40.998  20.906  0.00  0.00    +0.000 A 
ATOM     13  C   UNL     1     -23.165  37.821  18.409  0.00  0.00    +0.000 C 
ATOM     14  C   UNL     1     -25.551  42.469  20.849  0.00  0.00    +0.000 A 
ATOM     15  C   UNL     1     -26.241  40.235  21.939  0.00  0.00    +0.000 A 
ATOM     16  C   UNL     1     -26.196  38.828  21.956  0.00  0.00    +0.000 A 
ATOM     17  C   UNL     1     -26.018  43.280  21.907  0.00  0.00    +0.000 A 
ATOM     18  C   UNL     1     -25.009  43.139  19.790  0.00  0.00    +0.000 A 
ATOM     19  C   UNL     1     -22.927  36.698  18.742  0.00  0.00    +0.000 C 
ATOM     20  C   UNL     1     -25.885  44.740  21.726  0.00  0.00    +0.000 A 
ATOM     21  C   UNL     1     -24.485  42.358  18.637  0.00  0.00    +0.000 A 
ATOM     22  C   UNL     1     -24.894  44.681  19.708  0.00  0.00    +0.000 A 
ENDROOT
BRANCH  15  23
ATOM     23  O   UNL     1     -26.832  40.854  23.020  0.00  0.00    +0.000 OA
ATOM     24  C   UNL     1     -27.127  39.921  24.028  0.00  0.00    +0.000 C 
ENDBRANCH  15  23
TORSDOF 1
ENDMDL
MODEL 7
REMARK VINA RESULT:      -5.7     31.941     33.210
REMARK  Name = AFLATOXIN.pdbqt.pdb
REMARK  1 active torsions:
REMARK  status: ('A' for Active; 'I' for Inactive)
REMARK    1  A    between atoms: C_15  and  O_23
REMARK                            x       y       z     vdW  Elec       q    Type
REMARK                         _______ _______ _______ _____ _____    ______ ____
ROOT
ATOM      1  O   UNL     1      -4.308  40.415  34.734  0.00  0.00    +0.000 OA
ATOM      2  O   UNL     1      -6.049  39.596  36.285  0.00  0.00    +0.000 OA
ATOM      3  O   UNL     1      -2.342  36.137  34.777  0.00  0.00    +0.000 OA
ATOM      4  O   UNL     1       2.448  35.116  33.838  0.00  0.00    +0.000 OA
ATOM      5  O   UNL     1      -1.607  34.010  34.675  0.00  0.00    +0.000 OA
ATOM      6  O   UNL     1       0.992  33.498  34.405  0.00  0.00    +0.000 OA
ATOM      7  C   UNL     1      -4.633  38.134  35.122  0.00  0.00    +0.000 C 
ATOM      8  C   UNL     1      -3.262  38.333  34.697  0.00  0.00    +0.000 A 
ATOM      9  C   UNL     1      -5.268  39.475  35.120  0.00  0.00    +0.000 C 
ATOM     10  C   UNL     1      -3.151  39.706  34.453  0.00  0.00    +0.000 A 
ATOM     11  C   UNL     1      -2.171  37.501  34.533  0.00  0.00    +0.000 A 
ATOM     12  C   UNL     1      -0.944  38.015  34.116  0.00  0.00    +0.000 A 
ATOM     13  C   UNL     1      -5.116  37.475  36.282  0.00  0.00    +0.000 C 
ATOM     14  C   UNL     1       0.171  37.057  34.021  0.00  0.00    +0.000 A 
ATOM     15  C   UNL     1      -0.871  39.409  33.834  0.00  0.00    +0.000 A 
ATOM     16  C   UNL     1      -1.968  40.269  34.031  0.00  0.00    +0.000 A 
ATOM     17  C   UNL     1       1.488  37.473  33.718  0.00  0.00    +0.000 A 
ATOM     18  C   UNL     1       0.015  35.718  34.238  0.00  0.00    +0.000 A 
ATOM     19  C   UNL     1      -5.806  38.355  36.707  0.00  0.00    +0.000 C 
ATOM     20  C   UNL     1       2.514  36.413  33.651  0.00  0.00    +0.000 A 
ATOM     21  C   UNL     1      -1.339  35.198  34.570  0.00  0.00    +0.000 A 
ATOM     22  C   UNL     1       1.168  34.687  34.166  0.00  0.00    +0.000 A 
ENDROOT
BRANCH  15  23
ATOM     23  O   UNL     1       0.314  39.989  33.438  0.00  0.00    +0.000 OA
ATOM     24  C   UNL     1       0.090  41.275  32.917  0.00  0.00    +0.000 C 
ENDBRANCH  15  23
TORSDOF 1
ENDMDL
MODEL 8
REMARK VINA RESULT:      -5.7     24.492     27.851
REMARK  Name = AFLATOXIN.pdbqt.pdb
REMARK  1 active torsions:
REMARK  status: ('A' for Active; 'I' for Inactive)
REMARK    1  A    between atoms: C_15  and  O_23
REMARK                            x       y       z     vdW  Elec       q    Type
REMARK                         _______ _______ _______ _____ _____    ______ ____
ROOT
ATOM      1  O   UNL     1      11.348  45.654   9.751  0.00  0.00    +0.000 OA
ATOM      2  O   UNL     1      10.213  47.843   9.921  0.00  0.00    +0.000 OA
ATOM      3  O   UNL     1       7.941  44.180   6.854  0.00  0.00    +0.000 OA
ATOM      4  O   UNL     1       6.580  39.439   6.122  0.00  0.00    +0.000 OA
ATOM      5  O   UNL     1       6.401  43.642   5.300  0.00  0.00    +0.000 OA
ATOM      6  O   UNL     1       5.523  41.136   5.091  0.00  0.00    +0.000 OA
ATOM      7  C   UNL     1       9.661  46.282   8.261  0.00  0.00    +0.000 C 
ATOM      8  C   UNL     1       9.705  44.835   8.315  0.00  0.00    +0.000 A 
ATOM      9  C   UNL     1      10.726  46.766   9.174  0.00  0.00    +0.000 C 
ATOM     10  C   UNL     1      10.751  44.534   9.194  0.00  0.00    +0.000 A 
ATOM     11  C   UNL     1       8.964  43.823   7.734  0.00  0.00    +0.000 A 
ATOM     12  C   UNL     1       9.251  42.487   8.009  0.00  0.00    +0.000 A 
ATOM     13  C   UNL     1       8.553  47.145   8.463  0.00  0.00    +0.000 C 
ATOM     14  C   UNL     1       8.372  41.484   7.382  0.00  0.00    +0.000 A 
ATOM     15  C   UNL     1      10.348  42.209   8.874  0.00  0.00    +0.000 A 
ATOM     16  C   UNL     1      11.086  43.234   9.496  0.00  0.00    +0.000 A 
ATOM     17  C   UNL     1       8.490  40.106   7.671  0.00  0.00    +0.000 A 
ATOM     18  C   UNL     1       7.380  41.817   6.505  0.00  0.00    +0.000 A 
ATOM     19  C   UNL     1       9.031  47.848   9.303  0.00  0.00    +0.000 C 
ATOM     20  C   UNL     1       7.549  39.205   6.975  0.00  0.00    +0.000 A 
ATOM     21  C   UNL     1       7.184  43.249   6.153  0.00  0.00    +0.000 A 
ATOM     22  C   UNL     1       6.427  40.792   5.845  0.00  0.00    +0.000 A 
ENDROOT
BRANCH  15  23
ATOM     23  O   UNL     1      10.676  40.913   9.206  0.00  0.00    +0.000 OA
ATOM     24  C   UNL     1      11.488  40.882  10.352  0.00  0.00    +0.000 C 
ENDBRANCH  15  23
TORSDOF 1
ENDMDL
MODEL 9
REMARK VINA RESULT:      -5.7     25.272     26.647
REMARK  Name = AFLATOXIN.pdbqt.pdb
REMARK  1 active torsions:
REMARK  status: ('A' for Active; 'I' for Inactive)
REMARK    1  A    between atoms: C_15  and  O_23
REMARK                            x       y       z     vdW  Elec       q    Type
REMARK                         _______ _______ _______ _____ _____    ______ ____
ROOT
ATOM      1  O   UNL     1      -5.677  47.262  24.987  0.00  0.00    +0.000 OA
ATOM      2  O   UNL     1      -4.657  45.019  25.175  0.00  0.00    +0.000 OA
ATOM      3  O   UNL     1      -6.826  47.056  29.549  0.00  0.00    +0.000 OA
ATOM      4  O   UNL     1     -10.563  49.533  31.733  0.00  0.00    +0.000 OA
ATOM      5  O   UNL     1      -7.128  46.970  31.780  0.00  0.00    +0.000 OA
ATOM      6  O   UNL     1      -9.263  48.109  32.891  0.00  0.00    +0.000 OA
ATOM      7  C   UNL     1      -5.217  46.292  27.063  0.00  0.00    +0.000 C 
ATOM      8  C   UNL     1      -6.292  47.248  27.235  0.00  0.00    +0.000 A 
ATOM      9  C   UNL     1      -4.844  46.339  25.627  0.00  0.00    +0.000 C 
ATOM     10  C   UNL     1      -6.489  47.808  25.968  0.00  0.00    +0.000 A 
ATOM     11  C   UNL     1      -7.076  47.637  28.304  0.00  0.00    +0.000 A 
ATOM     12  C   UNL     1      -8.072  48.599  28.140  0.00  0.00    +0.000 A 
ATOM     13  C   UNL     1      -5.179  44.922  27.431  0.00  0.00    +0.000 C 
ATOM     14  C   UNL     1      -8.889  48.908  29.327  0.00  0.00    +0.000 A 
ATOM     15  C   UNL     1      -8.223  49.182  26.850  0.00  0.00    +0.000 A 
ATOM     16  C   UNL     1      -7.451  48.767  25.747  0.00  0.00    +0.000 A 
ATOM     17  C   UNL     1      -9.999  49.781  29.261  0.00  0.00    +0.000 A 
ATOM     18  C   UNL     1      -8.644  48.362  30.554  0.00  0.00    +0.000 A 
ATOM     19  C   UNL     1      -4.871  44.466  26.370  0.00  0.00    +0.000 C 
ATOM     20  C   UNL     1     -10.733  50.008  30.522  0.00  0.00    +0.000 A 
ATOM     21  C   UNL     1      -7.498  47.426  30.707  0.00  0.00    +0.000 A 
ATOM     22  C   UNL     1      -9.494  48.650  31.816  0.00  0.00    +0.000 A 
ENDROOT
BRANCH  15  23
ATOM     23  O   UNL     1      -9.200  50.124  26.609  0.00  0.00    +0.000 OA
ATOM     24  C   UNL     1      -9.001  50.740  25.362  0.00  0.00    +0.000 C 
ENDBRANCH  15  23
TORSDOF 1
ENDMDL
