MODEL 1
REMARK VINA RESULT:      -7.1      0.000      0.000
REMARK  Name = AZD4547.pdbqt.pdb
REMARK  6 active torsions:
REMARK  status: ('A' for Active; 'I' for Inactive)
REMARK    1  A    between atoms: C_3  and  C_23
REMARK    2  A    between atoms: C_8  and  C_11
REMARK    3  A    between atoms: C_12  and  C_13
REMARK    4  A    between atoms: C_15  and  O_19
REMARK    5  A    between atoms: C_17  and  O_21
REMARK    6  A    between atoms: C_26  and  N_29
REMARK                            x       y       z     vdW  Elec       q    Type
REMARK                         _______ _______ _______ _____ _____    ______ ____
ROOT
ATOM      1  O   UNL     1      -1.509  47.935  26.329  0.00  0.00    +0.000 OA
ATOM      2  N   UNL     1      -2.251  46.370  27.865  0.00  0.00    +0.000 N 
ATOM      3  C   UNL     1      -2.413  47.314  26.877  0.00  0.00    +0.000 C 
ATOM      4  H   UNL     1      -3.027  45.885  28.290  0.00  0.00    +0.000 HD
ATOM      5  C   UNL     1      -1.036  45.983  28.378  0.00  0.00    +0.000 A 
ATOM      6  N   UNL     1      -1.008  45.055  29.340  0.00  0.00    +0.000 NA
ATOM      7  N   UNL     1       0.303  44.913  29.609  0.00  0.00    +0.000 N 
ATOM      8  C   UNL     1       1.107  45.714  28.853  0.00  0.00    +0.000 A 
ATOM      9  H   UNL     1       0.584  44.249  30.322  0.00  0.00    +0.000 HD
ATOM     10  C   UNL     1       0.265  46.429  28.038  0.00  0.00    +0.000 A 
ENDROOT
BRANCH   3  11
ATOM     11  C   UNL     1      -3.812  47.584  26.461  0.00  0.00    +0.000 A 
ATOM     12  C   UNL     1      -4.319  48.872  26.628  0.00  0.00    +0.000 A 
ATOM     13  C   UNL     1      -5.628  49.162  26.249  0.00  0.00    +0.000 A 
ATOM     14  C   UNL     1      -6.464  48.175  25.711  0.00  0.00    +0.000 A 
ATOM     15  C   UNL     1      -5.931  46.890  25.534  0.00  0.00    +0.000 A 
ATOM     16  C   UNL     1      -4.621  46.593  25.910  0.00  0.00    +0.000 A 
BRANCH  14  17
ATOM     17  N   UNL     1      -7.778  48.482  25.286  0.00  0.00    +0.000 N 
ATOM     18  C   UNL     1      -8.833  48.606  26.306  0.00  0.00    +0.000 C 
ATOM     19  C   UNL     1     -10.134  48.054  26.496  0.00  0.00    +0.000 C 
ATOM     20  N   UNL     1     -10.597  47.149  25.492  0.00  0.00    +0.000 N 
ATOM     21  C   UNL     1     -10.973  48.361  27.684  0.00  0.00    +0.000 C 
ATOM     22  C   UNL     1      -9.730  46.871  24.394  0.00  0.00    +0.000 C 
ATOM     23  H   UNL     1     -11.498  46.703  25.572  0.00  0.00    +0.000 HD
ATOM     24  C   UNL     1      -8.465  47.531  24.395  0.00  0.00    +0.000 C 
ATOM     25  C   UNL     1     -10.128  45.905  23.337  0.00  0.00    +0.000 C 
ENDBRANCH  14  17
ENDBRANCH   3  11
BRANCH   8  26
ATOM     26  C   UNL     1       2.519  45.762  28.931  0.00  0.00    +0.000 C 
ATOM     27  C   UNL     1       4.049  45.811  29.011  0.00  0.00    +0.000 C 
BRANCH  27  28
ATOM     28  C   UNL     1       5.471  45.850  29.079  0.00  0.00    +0.000 A 
ATOM     29  C   UNL     1       6.174  46.815  28.362  0.00  0.00    +0.000 A 
ATOM     30  C   UNL     1       7.568  46.861  28.428  0.00  0.00    +0.000 A 
ATOM     31  C   UNL     1       8.247  45.935  29.224  0.00  0.00    +0.000 A 
ATOM     32  C   UNL     1       7.547  44.963  29.940  0.00  0.00    +0.000 A 
ATOM     33  C   UNL     1       6.154  44.927  29.865  0.00  0.00    +0.000 A 
BRANCH  30  34
ATOM     34  O   UNL     1       8.358  47.772  27.771  0.00  0.00    +0.000 OA
ATOM     35  C   UNL     1       8.413  49.046  28.347  0.00  0.00    +0.000 C 
ENDBRANCH  30  34
BRANCH  32  36
ATOM     36  O   UNL     1       8.318  44.107  30.687  0.00  0.00    +0.000 OA
ATOM     37  C   UNL     1       8.291  42.765  30.283  0.00  0.00    +0.000 C 
ENDBRANCH  32  36
ENDBRANCH  27  28
ENDBRANCH   8  26
TORSDOF 6
ENDMDL
MODEL 2
REMARK VINA RESULT:      -6.9      6.638     16.913
REMARK  Name = AZD4547.pdbqt.pdb
REMARK  6 active torsions:
REMARK  status: ('A' for Active; 'I' for Inactive)
REMARK    1  A    between atoms: C_3  and  C_23
REMARK    2  A    between atoms: C_8  and  C_11
REMARK    3  A    between atoms: C_12  and  C_13
REMARK    4  A    between atoms: C_15  and  O_19
REMARK    5  A    between atoms: C_17  and  O_21
REMARK    6  A    between atoms: C_26  and  N_29
REMARK                            x       y       z     vdW  Elec       q    Type
REMARK                         _______ _______ _______ _____ _____    ______ ____
ROOT
ATOM      1  O   UNL     1      -9.593  47.036  25.961  0.00  0.00    +0.000 OA
ATOM      2  N   UNL     1      -9.104  49.107  25.049  0.00  0.00    +0.000 N 
ATOM      3  C   UNL     1      -8.787  47.892  25.613  0.00  0.00    +0.000 C 
ATOM      4  H   UNL     1      -8.405  49.783  24.780  0.00  0.00    +0.000 HD
ATOM      5  C   UNL     1     -10.385  49.533  24.789  0.00  0.00    +0.000 A 
ATOM      6  N   UNL     1     -10.565  50.738  24.239  0.00  0.00    +0.000 NA
ATOM      7  N   UNL     1     -11.902  50.838  24.122  0.00  0.00    +0.000 N 
ATOM      8  C   UNL     1     -12.576  49.744  24.575  0.00  0.00    +0.000 A 
ATOM      9  H   UNL     1     -12.292  51.685  23.722  0.00  0.00    +0.000 HD
ATOM     10  C   UNL     1     -11.616  48.869  25.020  0.00  0.00    +0.000 A 
ENDROOT
BRANCH   3  11
ATOM     11  C   UNL     1      -7.340  47.624  25.806  0.00  0.00    +0.000 A 
ATOM     12  C   UNL     1      -6.494  48.700  26.071  0.00  0.00    +0.000 A 
ATOM     13  C   UNL     1      -5.130  48.486  26.258  0.00  0.00    +0.000 A 
ATOM     14  C   UNL     1      -4.578  47.202  26.169  0.00  0.00    +0.000 A 
ATOM     15  C   UNL     1      -5.446  46.130  25.919  0.00  0.00    +0.000 A 
ATOM     16  C   UNL     1      -6.813  46.337  25.732  0.00  0.00    +0.000 A 
BRANCH  14  17
ATOM     17  N   UNL     1      -3.200  46.981  26.402  0.00  0.00    +0.000 N 
ATOM     18  C   UNL     1      -2.810  46.100  27.517  0.00  0.00    +0.000 C 
ATOM     19  C   UNL     1      -1.924  46.198  28.629  0.00  0.00    +0.000 C 
ATOM     20  N   UNL     1      -1.201  47.423  28.764  0.00  0.00    +0.000 N 
ATOM     21  C   UNL     1      -1.766  45.111  29.631  0.00  0.00    +0.000 C 
ATOM     22  C   UNL     1      -1.423  48.439  27.786  0.00  0.00    +0.000 C 
ATOM     23  H   UNL     1      -0.574  47.572  29.539  0.00  0.00    +0.000 HD
ATOM     24  C   UNL     1      -2.355  48.136  26.750  0.00  0.00    +0.000 C 
ATOM     25  C   UNL     1      -0.739  49.755  27.890  0.00  0.00    +0.000 C 
ENDBRANCH  14  17
ENDBRANCH   3  11
BRANCH   8  26
ATOM     26  C   UNL     1     -13.983  49.587  24.566  0.00  0.00    +0.000 C 
ATOM     27  C   UNL     1     -15.505  49.417  24.561  0.00  0.00    +0.000 C 
BRANCH  27  28
ATOM     28  C   UNL     1     -16.921  49.257  24.565  0.00  0.00    +0.000 A 
ATOM     29  C   UNL     1     -17.623  49.321  25.766  0.00  0.00    +0.000 A 
ATOM     30  C   UNL     1     -19.012  49.170  25.776  0.00  0.00    +0.000 A 
ATOM     31  C   UNL     1     -19.686  48.961  24.571  0.00  0.00    +0.000 A 
ATOM     32  C   UNL     1     -18.986  48.892  23.365  0.00  0.00    +0.000 A 
ATOM     33  C   UNL     1     -17.598  49.044  23.369  0.00  0.00    +0.000 A 
BRANCH  30  34
ATOM     34  O   UNL     1     -19.802  49.223  26.898  0.00  0.00    +0.000 OA
ATOM     35  C   UNL     1     -19.244  48.660  28.052  0.00  0.00    +0.000 C 
ENDBRANCH  30  34
BRANCH  32  36
ATOM     36  O   UNL     1     -19.752  48.683  22.245  0.00  0.00    +0.000 OA
ATOM     37  C   UNL     1     -19.906  47.344  21.861  0.00  0.00    +0.000 C 
ENDBRANCH  32  36
ENDBRANCH  27  28
ENDBRANCH   8  26
TORSDOF 6
ENDMDL
MODEL 3
REMARK VINA RESULT:      -6.6     22.205     23.495
REMARK  Name = AZD4547.pdbqt.pdb
REMARK  6 active torsions:
REMARK  status: ('A' for Active; 'I' for Inactive)
REMARK    1  A    between atoms: C_3  and  C_23
REMARK    2  A    between atoms: C_8  and  C_11
REMARK    3  A    between atoms: C_12  and  C_13
REMARK    4  A    between atoms: C_15  and  O_19
REMARK    5  A    between atoms: C_17  and  O_21
REMARK    6  A    between atoms: C_26  and  N_29
REMARK                            x       y       z     vdW  Elec       q    Type
REMARK                         _______ _______ _______ _____ _____    ______ ____
ROOT
ATOM      1  O   UNL     1      -3.916  26.455  17.589  0.00  0.00    +0.000 OA
ATOM      2  N   UNL     1      -2.639  27.789  18.986  0.00  0.00    +0.000 N 
ATOM      3  C   UNL     1      -3.700  26.966  18.683  0.00  0.00    +0.000 C 
ATOM      4  H   UNL     1      -2.504  28.190  19.902  0.00  0.00    +0.000 HD
ATOM      5  C   UNL     1      -1.660  28.154  18.094  0.00  0.00    +0.000 A 
ATOM      6  N   UNL     1      -0.679  28.964  18.509  0.00  0.00    +0.000 NA
ATOM      7  N   UNL     1       0.091  29.117  17.415  0.00  0.00    +0.000 N 
ATOM      8  C   UNL     1      -0.362  28.435  16.326  0.00  0.00    +0.000 A 
ATOM      9  H   UNL     1       0.916  29.703  17.482  0.00  0.00    +0.000 HD
ATOM     10  C   UNL     1      -1.506  27.795  16.732  0.00  0.00    +0.000 A 
ENDROOT
BRANCH   3  11
ATOM     11  C   UNL     1      -4.647  26.692  19.793  0.00  0.00    +0.000 A 
ATOM     12  C   UNL     1      -4.145  26.610  21.091  0.00  0.00    +0.000 A 
ATOM     13  C   UNL     1      -5.004  26.354  22.158  0.00  0.00    +0.000 A 
ATOM     14  C   UNL     1      -6.376  26.160  21.953  0.00  0.00    +0.000 A 
ATOM     15  C   UNL     1      -6.866  26.264  20.644  0.00  0.00    +0.000 A 
ATOM     16  C   UNL     1      -6.011  26.520  19.572  0.00  0.00    +0.000 A 
BRANCH  14  17
ATOM     17  N   UNL     1      -7.253  25.944  23.042  0.00  0.00    +0.000 N 
ATOM     18  C   UNL     1      -7.335  24.591  23.620  0.00  0.00    +0.000 C 
ATOM     19  C   UNL     1      -8.386  23.681  23.933  0.00  0.00    +0.000 C 
ATOM     20  N   UNL     1      -9.715  24.116  23.643  0.00  0.00    +0.000 N 
ATOM     21  C   UNL     1      -8.138  22.329  24.501  0.00  0.00    +0.000 C 
ATOM     22  C   UNL     1      -9.883  25.411  23.068  0.00  0.00    +0.000 C 
ATOM     23  H   UNL     1     -10.507  23.516  23.817  0.00  0.00    +0.000 HD
ATOM     24  C   UNL     1      -8.695  26.165  22.834  0.00  0.00    +0.000 C 
ATOM     25  C   UNL     1     -11.234  25.910  22.700  0.00  0.00    +0.000 C 
ENDBRANCH  14  17
ENDBRANCH   3  11
BRANCH   8  26
ATOM     26  C   UNL     1       0.258  28.421  15.053  0.00  0.00    +0.000 C 
ATOM     27  C   UNL     1       0.926  28.408  13.674  0.00  0.00    +0.000 C 
BRANCH  27  28
ATOM     28  C   UNL     1       1.539  28.399  12.388  0.00  0.00    +0.000 A 
ATOM     29  C   UNL     1       0.752  28.501  11.244  0.00  0.00    +0.000 A 
ATOM     30  C   UNL     1       1.348  28.498   9.981  0.00  0.00    +0.000 A 
ATOM     31  C   UNL     1       2.738  28.396   9.879  0.00  0.00    +0.000 A 
ATOM     32  C   UNL     1       3.529  28.288  11.023  0.00  0.00    +0.000 A 
ATOM     33  C   UNL     1       2.922  28.292  12.280  0.00  0.00    +0.000 A 
BRANCH  30  34
ATOM     34  O   UNL     1       0.672  28.601   8.790  0.00  0.00    +0.000 OA
ATOM     35  C   UNL     1      -0.146  27.512   8.467  0.00  0.00    +0.000 C 
ENDBRANCH  30  34
BRANCH  32  36
ATOM     36  O   UNL     1       4.881  28.194  10.803  0.00  0.00    +0.000 OA
ATOM     37  C   UNL     1       5.347  28.822   9.639  0.00  0.00    +0.000 C 
ENDBRANCH  32  36
ENDBRANCH  27  28
ENDBRANCH   8  26
TORSDOF 6
ENDMDL
MODEL 4
REMARK VINA RESULT:      -6.5     17.951     24.588
REMARK  Name = AZD4547.pdbqt.pdb
REMARK  6 active torsions:
REMARK  status: ('A' for Active; 'I' for Inactive)
REMARK    1  A    between atoms: C_3  and  C_23
REMARK    2  A    between atoms: C_8  and  C_11
REMARK    3  A    between atoms: C_12  and  C_13
REMARK    4  A    between atoms: C_15  and  O_19
REMARK    5  A    between atoms: C_17  and  O_21
REMARK    6  A    between atoms: C_26  and  N_29
REMARK                            x       y       z     vdW  Elec       q    Type
REMARK                         _______ _______ _______ _____ _____    ______ ____
ROOT
ATOM      1  O   UNL     1     -20.519  46.865  21.252  0.00  0.00    +0.000 OA
ATOM      2  N   UNL     1     -21.709  47.525  19.378  0.00  0.00    +0.000 N 
ATOM      3  C   UNL     1     -20.773  47.684  20.375  0.00  0.00    +0.000 C 
ATOM      4  H   UNL     1     -21.885  48.229  18.678  0.00  0.00    +0.000 HD
ATOM      5  C   UNL     1     -22.495  46.408  19.221  0.00  0.00    +0.000 A 
ATOM      6  N   UNL     1     -23.371  46.374  18.212  0.00  0.00    +0.000 NA
ATOM      7  N   UNL     1     -23.962  45.172  18.344  0.00  0.00    +0.000 N 
ATOM      8  C   UNL     1     -23.494  44.443  19.396  0.00  0.00    +0.000 A 
ATOM      9  H   UNL     1     -24.681  44.908  17.678  0.00  0.00    +0.000 HD
ATOM     10  C   UNL     1     -22.534  45.222  19.994  0.00  0.00    +0.000 A 
ENDROOT
BRANCH   3  11
ATOM     11  C   UNL     1     -20.025  48.966  20.364  0.00  0.00    +0.000 A 
ATOM     12  C   UNL     1     -18.899  49.086  21.178  0.00  0.00    +0.000 A 
ATOM     13  C   UNL     1     -18.173  50.275  21.194  0.00  0.00    +0.000 A 
ATOM     14  C   UNL     1     -18.559  51.372  20.414  0.00  0.00    +0.000 A 
ATOM     15  C   UNL     1     -19.683  51.226  19.588  0.00  0.00    +0.000 A 
ATOM     16  C   UNL     1     -20.414  50.039  19.567  0.00  0.00    +0.000 A 
BRANCH  14  17
ATOM     17  N   UNL     1     -17.795  52.562  20.398  0.00  0.00    +0.000 N 
ATOM     18  C   UNL     1     -17.413  53.133  19.094  0.00  0.00    +0.000 C 
ATOM     19  C   UNL     1     -16.196  53.569  18.492  0.00  0.00    +0.000 C 
ATOM     20  N   UNL     1     -15.014  53.457  19.287  0.00  0.00    +0.000 N 
ATOM     21  C   UNL     1     -16.127  54.087  17.101  0.00  0.00    +0.000 C 
ATOM     22  C   UNL     1     -15.144  52.921  20.603  0.00  0.00    +0.000 C 
ATOM     23  H   UNL     1     -14.115  53.725  18.919  0.00  0.00    +0.000 HD
ATOM     24  C   UNL     1     -16.457  52.543  21.013  0.00  0.00    +0.000 C 
ATOM     25  C   UNL     1     -13.949  52.734  21.468  0.00  0.00    +0.000 C 
ENDBRANCH  14  17
ENDBRANCH   3  11
BRANCH   8  26
ATOM     26  C   UNL     1     -23.939  43.150  19.759  0.00  0.00    +0.000 C 
ATOM     27  C   UNL     1     -24.422  41.751  20.156  0.00  0.00    +0.000 C 
BRANCH  27  28
ATOM     28  C   UNL     1     -24.874  40.453  20.533  0.00  0.00    +0.000 A 
ATOM     29  C   UNL     1     -25.696  40.301  21.646  0.00  0.00    +0.000 A 
ATOM     30  C   UNL     1     -26.146  39.032  22.017  0.00  0.00    +0.000 A 
ATOM     31  C   UNL     1     -25.767  37.922  21.259  0.00  0.00    +0.000 A 
ATOM     32  C   UNL     1     -24.939  38.069  20.145  0.00  0.00    +0.000 A 
ATOM     33  C   UNL     1     -24.495  39.343  19.784  0.00  0.00    +0.000 A 
BRANCH  30  34
ATOM     34  O   UNL     1     -26.963  38.768  23.089  0.00  0.00    +0.000 OA
ATOM     35  C   UNL     1     -27.387  39.889  23.811  0.00  0.00    +0.000 C 
ENDBRANCH  30  34
BRANCH  32  36
ATOM     36  O   UNL     1     -24.632  36.910  19.476  0.00  0.00    +0.000 OA
ATOM     37  C   UNL     1     -23.297  36.786  19.067  0.00  0.00    +0.000 C 
ENDBRANCH  32  36
ENDBRANCH  27  28
ENDBRANCH   8  26
TORSDOF 6
ENDMDL
MODEL 5
REMARK VINA RESULT:      -6.5     17.913     24.686
REMARK  Name = AZD4547.pdbqt.pdb
REMARK  6 active torsions:
REMARK  status: ('A' for Active; 'I' for Inactive)
REMARK    1  A    between atoms: C_3  and  C_23
REMARK    2  A    between atoms: C_8  and  C_11
REMARK    3  A    between atoms: C_12  and  C_13
REMARK    4  A    between atoms: C_15  and  O_19
REMARK    5  A    between atoms: C_17  and  O_21
REMARK    6  A    between atoms: C_26  and  N_29
REMARK                            x       y       z     vdW  Elec       q    Type
REMARK                         _______ _______ _______ _____ _____    ______ ____
ROOT
ATOM      1  O   UNL     1     -20.568  46.923  21.273  0.00  0.00    +0.000 OA
ATOM      2  N   UNL     1     -21.710  47.588  19.371  0.00  0.00    +0.000 N 
ATOM      3  C   UNL     1     -20.794  47.742  20.388  0.00  0.00    +0.000 C 
ATOM      4  H   UNL     1     -21.864  48.292  18.665  0.00  0.00    +0.000 HD
ATOM      5  C   UNL     1     -22.503  46.479  19.201  0.00  0.00    +0.000 A 
ATOM      6  N   UNL     1     -23.357  46.449  18.172  0.00  0.00    +0.000 NA
ATOM      7  N   UNL     1     -23.963  45.253  18.296  0.00  0.00    +0.000 N 
ATOM      8  C   UNL     1     -23.525  44.524  19.361  0.00  0.00    +0.000 A 
ATOM      9  H   UNL     1     -24.669  44.995  17.616  0.00  0.00    +0.000 HD
ATOM     10  C   UNL     1     -22.570  45.295  19.976  0.00  0.00    +0.000 A 
ENDROOT
BRANCH   3  11
ATOM     11  C   UNL     1     -20.034  49.016  20.389  0.00  0.00    +0.000 A 
ATOM     12  C   UNL     1     -18.925  49.129  21.226  0.00  0.00    +0.000 A 
ATOM     13  C   UNL     1     -18.187  50.310  21.255  0.00  0.00    +0.000 A 
ATOM     14  C   UNL     1     -18.546  51.409  20.463  0.00  0.00    +0.000 A 
ATOM     15  C   UNL     1     -19.653  51.271  19.614  0.00  0.00    +0.000 A 
ATOM     16  C   UNL     1     -20.396  50.091  19.581  0.00  0.00    +0.000 A 
BRANCH  14  17
ATOM     17  N   UNL     1     -17.770  52.591  20.459  0.00  0.00    +0.000 N 
ATOM     18  C   UNL     1     -17.380  53.170  19.162  0.00  0.00    +0.000 C 
ATOM     19  C   UNL     1     -16.158  53.601  18.567  0.00  0.00    +0.000 C 
ATOM     20  N   UNL     1     -14.979  53.469  19.362  0.00  0.00    +0.000 N 
ATOM     21  C   UNL     1     -16.082  54.131  17.180  0.00  0.00    +0.000 C 
ATOM     22  C   UNL     1     -15.116  52.922  20.673  0.00  0.00    +0.000 C 
ATOM     23  H   UNL     1     -14.076  53.732  18.998  0.00  0.00    +0.000 HD
ATOM     24  C   UNL     1     -16.433  52.553  21.076  0.00  0.00    +0.000 C 
ATOM     25  C   UNL     1     -13.925  52.715  21.538  0.00  0.00    +0.000 C 
ENDBRANCH  14  17
ENDBRANCH   3  11
BRANCH   8  26
ATOM     26  C   UNL     1     -23.990  43.237  19.718  0.00  0.00    +0.000 C 
ATOM     27  C   UNL     1     -24.492  41.840  20.101  0.00  0.00    +0.000 C 
BRANCH  27  28
ATOM     28  C   UNL     1     -24.955  40.539  20.450  0.00  0.00    +0.000 A 
ATOM     29  C   UNL     1     -24.305  39.414  19.950  0.00  0.00    +0.000 A 
ATOM     30  C   UNL     1     -24.752  38.136  20.292  0.00  0.00    +0.000 A 
ATOM     31  C   UNL     1     -25.851  37.999  21.143  0.00  0.00    +0.000 A 
ATOM     32  C   UNL     1     -26.509  39.124  21.642  0.00  0.00    +0.000 A 
ATOM     33  C   UNL     1     -26.054  40.397  21.292  0.00  0.00    +0.000 A 
BRANCH  30  34
ATOM     34  O   UNL     1     -24.182  36.962  19.864  0.00  0.00    +0.000 OA
ATOM     35  C   UNL     1     -23.032  37.103  19.080  0.00  0.00    +0.000 C 
ENDBRANCH  30  34
BRANCH  32  36
ATOM     36  O   UNL     1     -27.576  38.870  22.468  0.00  0.00    +0.000 OA
ATOM     37  C   UNL     1     -28.728  39.626  22.214  0.00  0.00    +0.000 C 
ENDBRANCH  32  36
ENDBRANCH  27  28
ENDBRANCH   8  26
TORSDOF 6
ENDMDL
MODEL 6
REMARK VINA RESULT:      -6.3      8.297     18.681
REMARK  Name = AZD4547.pdbqt.pdb
REMARK  6 active torsions:
REMARK  status: ('A' for Active; 'I' for Inactive)
REMARK    1  A    between atoms: C_3  and  C_23
REMARK    2  A    between atoms: C_8  and  C_11
REMARK    3  A    between atoms: C_12  and  C_13
REMARK    4  A    between atoms: C_15  and  O_19
REMARK    5  A    between atoms: C_17  and  O_21
REMARK    6  A    between atoms: C_26  and  N_29
REMARK                            x       y       z     vdW  Elec       q    Type
REMARK                         _______ _______ _______ _____ _____    ______ ____
ROOT
ATOM      1  O   UNL     1     -11.842  48.726  23.891  0.00  0.00    +0.000 OA
ATOM      2  N   UNL     1     -12.124  48.858  26.186  0.00  0.00    +0.000 N 
ATOM      3  C   UNL     1     -11.389  48.712  25.030  0.00  0.00    +0.000 C 
ATOM      4  H   UNL     1     -11.707  48.837  27.104  0.00  0.00    +0.000 HD
ATOM      5  C   UNL     1     -13.484  49.049  26.222  0.00  0.00    +0.000 A 
ATOM      6  N   UNL     1     -14.086  49.177  27.409  0.00  0.00    +0.000 NA
ATOM      7  N   UNL     1     -15.383  49.346  27.092  0.00  0.00    +0.000 N 
ATOM      8  C   UNL     1     -15.627  49.332  25.752  0.00  0.00    +0.000 A 
ATOM      9  H   UNL     1     -16.054  49.467  27.844  0.00  0.00    +0.000 HD
ATOM     10  C   UNL     1     -14.407  49.139  25.151  0.00  0.00    +0.000 A 
ENDROOT
BRANCH   3  11
ATOM     11  C   UNL     1      -9.928  48.519  25.211  0.00  0.00    +0.000 A 
ATOM     12  C   UNL     1      -9.484  47.369  25.861  0.00  0.00    +0.000 A 
ATOM     13  C   UNL     1      -8.120  47.156  26.048  0.00  0.00    +0.000 A 
ATOM     14  C   UNL     1      -7.172  48.088  25.606  0.00  0.00    +0.000 A 
ATOM     15  C   UNL     1      -7.637  49.229  24.938  0.00  0.00    +0.000 A 
ATOM     16  C   UNL     1      -9.000  49.449  24.747  0.00  0.00    +0.000 A 
BRANCH  14  17
ATOM     17  N   UNL     1      -5.786  47.848  25.758  0.00  0.00    +0.000 N 
ATOM     18  C   UNL     1      -5.246  46.552  25.310  0.00  0.00    +0.000 C 
ATOM     19  C   UNL     1      -4.432  45.535  25.889  0.00  0.00    +0.000 C 
ATOM     20  N   UNL     1      -3.995  45.753  27.231  0.00  0.00    +0.000 N 
ATOM     21  C   UNL     1      -4.071  44.286  25.168  0.00  0.00    +0.000 C 
ATOM     22  C   UNL     1      -4.404  46.957  27.878  0.00  0.00    +0.000 C 
ATOM     23  H   UNL     1      -3.436  45.066  27.713  0.00  0.00    +0.000 HD
ATOM     24  C   UNL     1      -5.220  47.846  27.117  0.00  0.00    +0.000 C 
ATOM     25  C   UNL     1      -4.023  47.229  29.289  0.00  0.00    +0.000 C 
ENDBRANCH  14  17
ENDBRANCH   3  11
BRANCH   8  26
ATOM     26  C   UNL     1     -16.897  49.490  25.149  0.00  0.00    +0.000 C 
ATOM     27  C   UNL     1     -18.274  49.664  24.499  0.00  0.00    +0.000 C 
BRANCH  27  28
ATOM     28  C   UNL     1     -19.557  49.831  23.902  0.00  0.00    +0.000 A 
ATOM     29  C   UNL     1     -20.062  48.849  23.055  0.00  0.00    +0.000 A 
ATOM     30  C   UNL     1     -21.321  49.006  22.471  0.00  0.00    +0.000 A 
ATOM     31  C   UNL     1     -22.067  50.153  22.749  0.00  0.00    +0.000 A 
ATOM     32  C   UNL     1     -21.562  51.143  23.594  0.00  0.00    +0.000 A 
ATOM     33  C   UNL     1     -20.302  50.975  24.172  0.00  0.00    +0.000 A 
BRANCH  30  34
ATOM     34  O   UNL     1     -21.917  48.099  21.629  0.00  0.00    +0.000 OA
ATOM     35  C   UNL     1     -21.362  46.814  21.640  0.00  0.00    +0.000 C 
ENDBRANCH  30  34
BRANCH  32  36
ATOM     36  O   UNL     1     -22.382  52.226  23.795  0.00  0.00    +0.000 OA
ATOM     37  C   UNL     1     -23.630  51.938  24.364  0.00  0.00    +0.000 C 
ENDBRANCH  32  36
ENDBRANCH  27  28
ENDBRANCH   8  26
TORSDOF 6
ENDMDL
MODEL 7
REMARK VINA RESULT:      -6.3     21.175     25.220
REMARK  Name = AZD4547.pdbqt.pdb
REMARK  6 active torsions:
REMARK  status: ('A' for Active; 'I' for Inactive)
REMARK    1  A    between atoms: C_3  and  C_23
REMARK    2  A    between atoms: C_8  and  C_11
REMARK    3  A    between atoms: C_12  and  C_13
REMARK    4  A    between atoms: C_15  and  O_19
REMARK    5  A    between atoms: C_17  and  O_21
REMARK    6  A    between atoms: C_26  and  N_29
REMARK                            x       y       z     vdW  Elec       q    Type
REMARK                         _______ _______ _______ _____ _____    ______ ____
ROOT
ATOM      1  O   UNL     1     -23.356  44.096  17.712  0.00  0.00    +0.000 OA
ATOM      2  N   UNL     1     -23.646  44.517  19.970  0.00  0.00    +0.000 N 
ATOM      3  C   UNL     1     -23.741  43.758  18.826  0.00  0.00    +0.000 C 
ATOM      4  H   UNL     1     -23.980  44.198  20.866  0.00  0.00    +0.000 HD
ATOM      5  C   UNL     1     -23.093  45.774  20.024  0.00  0.00    +0.000 A 
ATOM      6  N   UNL     1     -23.060  46.414  21.198  0.00  0.00    +0.000 NA
ATOM      7  N   UNL     1     -22.470  47.587  20.905  0.00  0.00    +0.000 N 
ATOM      8  C   UNL     1     -22.126  47.716  19.593  0.00  0.00    +0.000 A 
ATOM      9  H   UNL     1     -22.330  48.260  21.652  0.00  0.00    +0.000 HD
ATOM     10  C   UNL     1     -22.520  46.549  18.986  0.00  0.00    +0.000 A 
ENDROOT
BRANCH   3  11
ATOM     11  C   UNL     1     -24.370  42.423  18.984  0.00  0.00    +0.000 A 
ATOM     12  C   UNL     1     -24.846  41.772  17.846  0.00  0.00    +0.000 A 
ATOM     13  C   UNL     1     -25.442  40.518  17.956  0.00  0.00    +0.000 A 
ATOM     14  C   UNL     1     -25.591  39.892  19.200  0.00  0.00    +0.000 A 
ATOM     15  C   UNL     1     -25.089  40.552  20.331  0.00  0.00    +0.000 A 
ATOM     16  C   UNL     1     -24.491  41.808  20.228  0.00  0.00    +0.000 A 
BRANCH  14  17
ATOM     17  N   UNL     1     -26.156  38.599  19.305  0.00  0.00    +0.000 N 
ATOM     18  C   UNL     1     -25.249  37.446  19.438  0.00  0.00    +0.000 C 
ATOM     19  C   UNL     1     -25.090  36.194  18.775  0.00  0.00    +0.000 C 
ATOM     20  N   UNL     1     -25.997  35.919  17.706  0.00  0.00    +0.000 N 
ATOM     21  C   UNL     1     -24.024  35.222  19.134  0.00  0.00    +0.000 C 
ATOM     22  C   UNL     1     -26.976  36.908  17.390  0.00  0.00    +0.000 C 
ATOM     23  H   UNL     1     -25.930  35.064  17.176  0.00  0.00    +0.000 HD
ATOM     24  C   UNL     1     -26.963  38.095  18.180  0.00  0.00    +0.000 C 
ATOM     25  C   UNL     1     -27.922  36.707  16.261  0.00  0.00    +0.000 C 
ENDBRANCH  14  17
ENDBRANCH   3  11
BRANCH   8  26
ATOM     26  C   UNL     1     -21.492  48.843  19.019  0.00  0.00    +0.000 C 
ATOM     27  C   UNL     1     -20.806  50.063  18.394  0.00  0.00    +0.000 C 
BRANCH  27  28
ATOM     28  C   UNL     1     -20.172  51.195  17.805  0.00  0.00    +0.000 A 
ATOM     29  C   UNL     1     -19.580  52.159  18.616  0.00  0.00    +0.000 A 
ATOM     30  C   UNL     1     -18.953  53.268  18.043  0.00  0.00    +0.000 A 
ATOM     31  C   UNL     1     -18.923  53.395  16.653  0.00  0.00    +0.000 A 
ATOM     32  C   UNL     1     -19.520  52.434  15.836  0.00  0.00    +0.000 A 
ATOM     33  C   UNL     1     -20.144  51.330  16.420  0.00  0.00    +0.000 A 
BRANCH  30  34
ATOM     34  O   UNL     1     -18.332  54.271  18.745  0.00  0.00    +0.000 OA
ATOM     35  C   UNL     1     -17.028  53.991  19.168  0.00  0.00    +0.000 C 
ENDBRANCH  30  34
BRANCH  32  36
ATOM     36  O   UNL     1     -19.429  52.663  14.485  0.00  0.00    +0.000 OA
ATOM     37  C   UNL     1     -19.600  51.535  13.671  0.00  0.00    +0.000 C 
ENDBRANCH  32  36
ENDBRANCH  27  28
ENDBRANCH   8  26
TORSDOF 6
ENDMDL
MODEL 8
REMARK VINA RESULT:      -6.3     11.464     12.735
REMARK  Name = AZD4547.pdbqt.pdb
REMARK  6 active torsions:
REMARK  status: ('A' for Active; 'I' for Inactive)
REMARK    1  A    between atoms: C_3  and  C_23
REMARK    2  A    between atoms: C_8  and  C_11
REMARK    3  A    between atoms: C_12  and  C_13
REMARK    4  A    between atoms: C_15  and  O_19
REMARK    5  A    between atoms: C_17  and  O_21
REMARK    6  A    between atoms: C_26  and  N_29
REMARK                            x       y       z     vdW  Elec       q    Type
REMARK                         _______ _______ _______ _____ _____    ______ ____
ROOT
ATOM      1  O   UNL     1      -3.171  36.449  35.439  0.00  0.00    +0.000 OA
ATOM      2  N   UNL     1      -3.347  38.603  34.609  0.00  0.00    +0.000 N 
ATOM      3  C   UNL     1      -3.773  37.512  35.332  0.00  0.00    +0.000 C 
ATOM      4  H   UNL     1      -3.879  39.458  34.547  0.00  0.00    +0.000 HD
ATOM      5  C   UNL     1      -2.169  38.656  33.903  0.00  0.00    +0.000 A 
ATOM      6  N   UNL     1      -1.866  39.775  33.237  0.00  0.00    +0.000 NA
ATOM      7  N   UNL     1      -0.677  39.496  32.670  0.00  0.00    +0.000 N 
ATOM      8  C   UNL     1      -0.215  38.245  32.952  0.00  0.00    +0.000 A 
ATOM      9  H   UNL     1      -0.233  40.208  32.100  0.00  0.00    +0.000 HD
ATOM     10  C   UNL     1      -1.166  37.666  33.755  0.00  0.00    +0.000 A 
ENDROOT
BRANCH   3  11
ATOM     11  C   UNL     1      -5.076  37.663  36.027  0.00  0.00    +0.000 A 
ATOM     12  C   UNL     1      -5.651  36.537  36.615  0.00  0.00    +0.000 A 
ATOM     13  C   UNL     1      -6.873  36.640  37.276  0.00  0.00    +0.000 A 
ATOM     14  C   UNL     1      -7.555  37.862  37.352  0.00  0.00    +0.000 A 
ATOM     15  C   UNL     1      -6.953  38.986  36.771  0.00  0.00    +0.000 A 
ATOM     16  C   UNL     1      -5.729  38.890  36.109  0.00  0.00    +0.000 A 
BRANCH  14  17
ATOM     17  N   UNL     1      -8.774  37.974  38.062  0.00  0.00    +0.000 N 
ATOM     18  C   UNL     1      -9.785  36.917  37.889  0.00  0.00    +0.000 C 
ATOM     19  C   UNL     1     -11.174  36.881  37.567  0.00  0.00    +0.000 C 
ATOM     20  N   UNL     1     -11.810  38.140  37.340  0.00  0.00    +0.000 N 
ATOM     21  C   UNL     1     -11.936  35.612  37.433  0.00  0.00    +0.000 C 
ATOM     22  C   UNL     1     -11.014  39.319  37.452  0.00  0.00    +0.000 C 
ATOM     23  H   UNL     1     -12.784  38.190  37.086  0.00  0.00    +0.000 HD
ATOM     24  C   UNL     1      -9.640  39.133  37.785  0.00  0.00    +0.000 C 
ATOM     25  C   UNL     1     -11.600  40.659  37.186  0.00  0.00    +0.000 C 
ENDBRANCH  14  17
ENDBRANCH   3  11
BRANCH   8  26
ATOM     26  C   UNL     1       1.005  37.700  32.487  0.00  0.00    +0.000 C 
ATOM     27  C   UNL     1       2.326  37.112  31.980  0.00  0.00    +0.000 C 
BRANCH  27  28
ATOM     28  C   UNL     1       3.555  36.571  31.502  0.00  0.00    +0.000 A 
ATOM     29  C   UNL     1       3.692  36.245  30.156  0.00  0.00    +0.000 A 
ATOM     30  C   UNL     1       4.896  35.719  29.680  0.00  0.00    +0.000 A 
ATOM     31  C   UNL     1       5.958  35.530  30.568  0.00  0.00    +0.000 A 
ATOM     32  C   UNL     1       5.823  35.850  31.919  0.00  0.00    +0.000 A 
ATOM     33  C   UNL     1       4.615  36.375  32.382  0.00  0.00    +0.000 A 
BRANCH  30  34
ATOM     34  O   UNL     1       5.142  35.371  28.375  0.00  0.00    +0.000 OA
ATOM     35  C   UNL     1       4.674  34.109  27.991  0.00  0.00    +0.000 C 
ENDBRANCH  30  34
BRANCH  32  36
ATOM     36  O   UNL     1       6.931  35.622  32.697  0.00  0.00    +0.000 OA
ATOM     37  C   UNL     1       6.811  34.580  33.627  0.00  0.00    +0.000 C 
ENDBRANCH  32  36
ENDBRANCH  27  28
ENDBRANCH   8  26
TORSDOF 6
ENDMDL
MODEL 9
REMARK VINA RESULT:      -6.3      7.210     14.319
REMARK  Name = AZD4547.pdbqt.pdb
REMARK  6 active torsions:
REMARK  status: ('A' for Active; 'I' for Inactive)
REMARK    1  A    between atoms: C_3  and  C_23
REMARK    2  A    between atoms: C_8  and  C_11
REMARK    3  A    between atoms: C_12  and  C_13
REMARK    4  A    between atoms: C_15  and  O_19
REMARK    5  A    between atoms: C_17  and  O_21
REMARK    6  A    between atoms: C_26  and  N_29
REMARK                            x       y       z     vdW  Elec       q    Type
REMARK                         _______ _______ _______ _____ _____    ______ ____
ROOT
ATOM      1  O   UNL     1       1.311  53.673  24.840  0.00  0.00    +0.000 OA
ATOM      2  N   UNL     1       2.110  52.995  26.904  0.00  0.00    +0.000 N 
ATOM      3  C   UNL     1       2.147  53.721  25.735  0.00  0.00    +0.000 C 
ATOM      4  H   UNL     1       2.824  53.065  27.613  0.00  0.00    +0.000 HD
ATOM      5  C   UNL     1       1.113  52.108  27.237  0.00  0.00    +0.000 A 
ATOM      6  N   UNL     1       1.190  51.460  28.404  0.00  0.00    +0.000 NA
ATOM      7  N   UNL     1       0.085  50.692  28.415  0.00  0.00    +0.000 N 
ATOM      8  C   UNL     1      -0.690  50.830  27.303  0.00  0.00    +0.000 A 
ATOM      9  H   UNL     1      -0.083  50.095  29.218  0.00  0.00    +0.000 HD
ATOM     10  C   UNL     1      -0.047  51.748  26.509  0.00  0.00    +0.000 A 
ENDROOT
BRANCH   3  11
ATOM     11  C   UNL     1       3.311  54.627  25.571  0.00  0.00    +0.000 A 
ATOM     12  C   UNL     1       3.163  55.764  24.778  0.00  0.00    +0.000 A 
ATOM     13  C   UNL     1       4.234  56.637  24.601  0.00  0.00    +0.000 A 
ATOM     14  C   UNL     1       5.478  56.389  25.196  0.00  0.00    +0.000 A 
ATOM     15  C   UNL     1       5.603  55.251  26.005  0.00  0.00    +0.000 A 
ATOM     16  C   UNL     1       4.535  54.373  26.186  0.00  0.00    +0.000 A 
BRANCH  14  17
ATOM     17  N   UNL     1       6.551  57.300  25.052  0.00  0.00    +0.000 N 
ATOM     18  C   UNL     1       7.334  57.268  23.804  0.00  0.00    +0.000 C 
ATOM     19  C   UNL     1       8.718  57.187  23.474  0.00  0.00    +0.000 C 
ATOM     20  N   UNL     1       9.633  57.114  24.569  0.00  0.00    +0.000 N 
ATOM     21  C   UNL     1       9.211  57.144  22.072  0.00  0.00    +0.000 C 
ATOM     22  C   UNL     1       9.094  57.127  25.891  0.00  0.00    +0.000 C 
ATOM     23  H   UNL     1      10.625  57.032  24.412  0.00  0.00    +0.000 HD
ATOM     24  C   UNL     1       7.674  57.214  26.000  0.00  0.00    +0.000 C 
ATOM     25  C   UNL     1       9.983  57.009  27.076  0.00  0.00    +0.000 C 
ENDBRANCH  14  17
ENDBRANCH   3  11
BRANCH   8  26
ATOM     26  C   UNL     1      -1.904  50.144  27.061  0.00  0.00    +0.000 C 
ATOM     27  C   UNL     1      -3.217  49.401  26.795  0.00  0.00    +0.000 C 
BRANCH  27  28
ATOM     28  C   UNL     1      -4.435  48.708  26.539  0.00  0.00    +0.000 A 
ATOM     29  C   UNL     1      -4.422  47.329  26.345  0.00  0.00    +0.000 A 
ATOM     30  C   UNL     1      -5.614  46.644  26.099  0.00  0.00    +0.000 A 
ATOM     31  C   UNL     1      -6.816  47.355  26.053  0.00  0.00    +0.000 A 
ATOM     32  C   UNL     1      -6.833  48.738  26.241  0.00  0.00    +0.000 A 
ATOM     33  C   UNL     1      -5.635  49.411  26.487  0.00  0.00    +0.000 A 
BRANCH  30  34
ATOM     34  O   UNL     1      -5.718  45.289  25.902  0.00  0.00    +0.000 OA
ATOM     35  C   UNL     1      -4.504  44.610  25.746  0.00  0.00    +0.000 C 
ENDBRANCH  30  34
BRANCH  32  36
ATOM     36  O   UNL     1      -8.070  49.330  26.175  0.00  0.00    +0.000 OA
ATOM     37  C   UNL     1      -9.096  48.660  26.856  0.00  0.00    +0.000 C 
ENDBRANCH  32  36
ENDBRANCH  27  28
ENDBRANCH   8  26
TORSDOF 6
ENDMDL
