MODEL 1
REMARK VINA RESULT:      -6.7      0.000      0.000
REMARK  Name = Belinostat.pdbqt.pdb
REMARK  6 active torsions:
REMARK  status: ('A' for Active; 'I' for Inactive)
REMARK    1  A    between atoms: C_1  and  S_7
REMARK    2  A    between atoms: C_3  and  C_18
REMARK    3  A    between atoms: S_7  and  N_10
REMARK    4  A    between atoms: N_10  and  C_12
REMARK    5  A    between atoms: C_19  and  C_20
REMARK    6  A    between atoms: N_22  and  O_24
REMARK                            x       y       z     vdW  Elec       q    Type
REMARK                         _______ _______ _______ _____ _____    ______ ____
ROOT
ATOM      1  C   UNL     1      -4.233  47.495  27.041  0.00  0.00    +0.000 A 
ATOM      2  C   UNL     1      -3.061  46.836  27.394  0.00  0.00    +0.000 A 
ATOM      3  C   UNL     1      -1.858  47.534  27.360  0.00  0.00    +0.000 A 
ATOM      4  C   UNL     1      -4.232  48.839  26.684  0.00  0.00    +0.000 A 
ATOM      5  C   UNL     1      -1.837  48.878  26.990  0.00  0.00    +0.000 A 
ATOM      6  C   UNL     1      -3.024  49.530  26.654  0.00  0.00    +0.000 A 
ENDROOT
BRANCH   1   7
ATOM      7  S   UNL     1      -5.763  46.636  27.120  0.00  0.00    +0.000 S 
ATOM      8  O   UNL     1      -6.690  47.485  27.835  0.00  0.00    +0.000 OA
ATOM      9  O   UNL     1      -5.499  45.282  27.558  0.00  0.00    +0.000 OA
BRANCH   7  10
ATOM     10  N   UNL     1      -6.276  46.609  25.526  0.00  0.00    +0.000 N 
ATOM     11  H   UNL     1      -5.993  45.781  25.004  0.00  0.00    +0.000 HD
BRANCH  10  12
ATOM     12  C   UNL     1      -7.338  47.419  25.034  0.00  0.00    +0.000 A 
ATOM     13  C   UNL     1      -7.134  48.692  24.505  0.00  0.00    +0.000 A 
ATOM     14  C   UNL     1      -8.198  49.409  23.961  0.00  0.00    +0.000 A 
ATOM     15  C   UNL     1      -9.468  48.842  23.919  0.00  0.00    +0.000 A 
ATOM     16  C   UNL     1      -9.672  47.556  24.413  0.00  0.00    +0.000 A 
ATOM     17  C   UNL     1      -8.607  46.843  24.956  0.00  0.00    +0.000 A 
ENDBRANCH  10  12
ENDBRANCH   7  10
ENDBRANCH   1   7
BRANCH   3  18
ATOM     18  C   UNL     1      -0.643  46.870  27.706  0.00  0.00    +0.000 C 
ATOM     19  C   UNL     1       0.379  46.313  27.999  0.00  0.00    +0.000 C 
BRANCH  19  20
ATOM     20  C   UNL     1       1.607  45.644  28.353  0.00  0.00    +0.000 C 
ATOM     21  O   UNL     1       2.559  46.282  28.788  0.00  0.00    +0.000 OA
ATOM     22  N   UNL     1       1.621  44.289  28.179  0.00  0.00    +0.000 N 
ATOM     23  H   UNL     1       0.824  43.741  27.875  0.00  0.00    +0.000 HD
BRANCH  22  24
ATOM     24  O   UNL     1       2.790  43.594  28.559  0.00  0.00    +0.000 OA
ATOM     25  H   UNL     1       3.357  43.672  27.762  0.00  0.00    +0.000 HD
ENDBRANCH  22  24
ENDBRANCH  19  20
ENDBRANCH   3  18
TORSDOF 6
ENDMDL
MODEL 2
REMARK VINA RESULT:      -6.5      3.739      7.993
REMARK  Name = Belinostat.pdbqt.pdb
REMARK  6 active torsions:
REMARK  status: ('A' for Active; 'I' for Inactive)
REMARK    1  A    between atoms: C_1  and  S_7
REMARK    2  A    between atoms: C_3  and  C_18
REMARK    3  A    between atoms: S_7  and  N_10
REMARK    4  A    between atoms: N_10  and  C_12
REMARK    5  A    between atoms: C_19  and  C_20
REMARK    6  A    between atoms: N_22  and  O_24
REMARK                            x       y       z     vdW  Elec       q    Type
REMARK                         _______ _______ _______ _____ _____    ______ ____
ROOT
ATOM      1  C   UNL     1      -4.998  46.722  28.198  0.00  0.00    +0.000 A 
ATOM      2  C   UNL     1      -6.168  46.987  27.495  0.00  0.00    +0.000 A 
ATOM      3  C   UNL     1      -6.469  46.223  26.372  0.00  0.00    +0.000 A 
ATOM      4  C   UNL     1      -4.141  45.693  27.821  0.00  0.00    +0.000 A 
ATOM      5  C   UNL     1      -5.612  45.198  25.971  0.00  0.00    +0.000 A 
ATOM      6  C   UNL     1      -4.450  44.933  26.697  0.00  0.00    +0.000 A 
ENDROOT
BRANCH   1   7
ATOM      7  S   UNL     1      -4.629  47.653  29.640  0.00  0.00    +0.000 S 
ATOM      8  O   UNL     1      -3.256  47.363  29.993  0.00  0.00    +0.000 OA
ATOM      9  O   UNL     1      -5.703  47.459  30.591  0.00  0.00    +0.000 OA
BRANCH   7  10
ATOM     10  N   UNL     1      -4.654  49.237  29.097  0.00  0.00    +0.000 N 
ATOM     11  H   UNL     1      -5.360  49.825  29.539  0.00  0.00    +0.000 HD
BRANCH  10  12
ATOM     12  C   UNL     1      -3.565  49.845  28.410  0.00  0.00    +0.000 A 
ATOM     13  C   UNL     1      -2.718  50.774  29.012  0.00  0.00    +0.000 A 
ATOM     14  C   UNL     1      -1.618  51.276  28.321  0.00  0.00    +0.000 A 
ATOM     15  C   UNL     1      -1.345  50.830  27.032  0.00  0.00    +0.000 A 
ATOM     16  C   UNL     1      -2.166  49.875  26.438  0.00  0.00    +0.000 A 
ATOM     17  C   UNL     1      -3.265  49.376  27.132  0.00  0.00    +0.000 A 
ENDBRANCH  10  12
ENDBRANCH   7  10
ENDBRANCH   1   7
BRANCH   3  18
ATOM     18  C   UNL     1      -7.658  46.490  25.630  0.00  0.00    +0.000 C 
ATOM     19  C   UNL     1      -8.660  46.716  25.008  0.00  0.00    +0.000 C 
BRANCH  19  20
ATOM     20  C   UNL     1      -9.863  46.987  24.262  0.00  0.00    +0.000 C 
ATOM     21  O   UNL     1     -10.298  46.166  23.463  0.00  0.00    +0.000 OA
ATOM     22  N   UNL     1     -10.465  48.188  24.514  0.00  0.00    +0.000 N 
ATOM     23  H   UNL     1     -10.151  48.853  25.212  0.00  0.00    +0.000 HD
BRANCH  22  24
ATOM     24  O   UNL     1     -11.673  48.469  23.837  0.00  0.00    +0.000 OA
ATOM     25  H   UNL     1     -11.581  47.949  23.009  0.00  0.00    +0.000 HD
ENDBRANCH  22  24
ENDBRANCH  19  20
ENDBRANCH   3  18
TORSDOF 6
ENDMDL
MODEL 3
REMARK VINA RESULT:      -6.4      3.401      8.020
REMARK  Name = Belinostat.pdbqt.pdb
REMARK  6 active torsions:
REMARK  status: ('A' for Active; 'I' for Inactive)
REMARK    1  A    between atoms: C_1  and  S_7
REMARK    2  A    between atoms: C_3  and  C_18
REMARK    3  A    between atoms: S_7  and  N_10
REMARK    4  A    between atoms: N_10  and  C_12
REMARK    5  A    between atoms: C_19  and  C_20
REMARK    6  A    between atoms: N_22  and  O_24
REMARK                            x       y       z     vdW  Elec       q    Type
REMARK                         _______ _______ _______ _____ _____    ______ ____
ROOT
ATOM      1  C   UNL     1      -3.852  46.532  26.855  0.00  0.00    +0.000 A 
ATOM      2  C   UNL     1      -4.904  47.155  26.193  0.00  0.00    +0.000 A 
ATOM      3  C   UNL     1      -6.160  46.557  26.208  0.00  0.00    +0.000 A 
ATOM      4  C   UNL     1      -4.035  45.343  27.553  0.00  0.00    +0.000 A 
ATOM      5  C   UNL     1      -6.358  45.357  26.891  0.00  0.00    +0.000 A 
ATOM      6  C   UNL     1      -5.296  44.752  27.564  0.00  0.00    +0.000 A 
ENDROOT
BRANCH   1   7
ATOM      7  S   UNL     1      -2.272  47.298  26.876  0.00  0.00    +0.000 S 
ATOM      8  O   UNL     1      -1.460  46.624  25.887  0.00  0.00    +0.000 OA
ATOM      9  O   UNL     1      -1.840  47.403  28.253  0.00  0.00    +0.000 OA
BRANCH   7  10
ATOM     10  N   UNL     1      -2.576  48.831  26.275  0.00  0.00    +0.000 N 
ATOM     11  H   UNL     1      -3.180  48.851  25.454  0.00  0.00    +0.000 HD
BRANCH  10  12
ATOM     12  C   UNL     1      -2.383  50.021  27.033  0.00  0.00    +0.000 A 
ATOM     13  C   UNL     1      -1.177  50.718  27.049  0.00  0.00    +0.000 A 
ATOM     14  C   UNL     1      -1.067  51.921  27.742  0.00  0.00    +0.000 A 
ATOM     15  C   UNL     1      -2.174  52.446  28.402  0.00  0.00    +0.000 A 
ATOM     16  C   UNL     1      -3.392  51.773  28.360  0.00  0.00    +0.000 A 
ATOM     17  C   UNL     1      -3.498  50.570  27.667  0.00  0.00    +0.000 A 
ENDBRANCH  10  12
ENDBRANCH   7  10
ENDBRANCH   1   7
BRANCH   3  18
ATOM     18  C   UNL     1      -7.248  47.175  25.523  0.00  0.00    +0.000 C 
ATOM     19  C   UNL     1      -8.166  47.694  24.948  0.00  0.00    +0.000 C 
BRANCH  19  20
ATOM     20  C   UNL     1      -9.269  48.316  24.258  0.00  0.00    +0.000 C 
ATOM     21  O   UNL     1      -9.071  49.235  23.472  0.00  0.00    +0.000 OA
ATOM     22  N   UNL     1     -10.508  47.811  24.535  0.00  0.00    +0.000 N 
ATOM     23  H   UNL     1     -10.683  47.015  25.137  0.00  0.00    +0.000 HD
BRANCH  22  24
ATOM     24  O   UNL     1     -11.608  48.363  23.841  0.00  0.00    +0.000 OA
ATOM     25  H   UNL     1     -11.584  47.886  22.983  0.00  0.00    +0.000 HD
ENDBRANCH  22  24
ENDBRANCH  19  20
ENDBRANCH   3  18
TORSDOF 6
ENDMDL
MODEL 4
REMARK VINA RESULT:      -6.3      2.250      2.553
REMARK  Name = Belinostat.pdbqt.pdb
REMARK  6 active torsions:
REMARK  status: ('A' for Active; 'I' for Inactive)
REMARK    1  A    between atoms: C_1  and  S_7
REMARK    2  A    between atoms: C_3  and  C_18
REMARK    3  A    between atoms: S_7  and  N_10
REMARK    4  A    between atoms: N_10  and  C_12
REMARK    5  A    between atoms: C_19  and  C_20
REMARK    6  A    between atoms: N_22  and  O_24
REMARK                            x       y       z     vdW  Elec       q    Type
REMARK                         _______ _______ _______ _____ _____    ______ ____
ROOT
ATOM      1  C   UNL     1      -3.793  46.022  27.436  0.00  0.00    +0.000 A 
ATOM      2  C   UNL     1      -3.059  45.274  28.350  0.00  0.00    +0.000 A 
ATOM      3  C   UNL     1      -1.765  45.675  28.665  0.00  0.00    +0.000 A 
ATOM      4  C   UNL     1      -3.274  47.175  26.856  0.00  0.00    +0.000 A 
ATOM      5  C   UNL     1      -1.223  46.819  28.081  0.00  0.00    +0.000 A 
ATOM      6  C   UNL     1      -1.978  47.569  27.179  0.00  0.00    +0.000 A 
ENDROOT
BRANCH   1   7
ATOM      7  S   UNL     1      -5.442  45.548  27.062  0.00  0.00    +0.000 S 
ATOM      8  O   UNL     1      -5.919  44.755  28.174  0.00  0.00    +0.000 OA
ATOM      9  O   UNL     1      -5.468  45.032  25.710  0.00  0.00    +0.000 OA
BRANCH   7  10
ATOM     10  N   UNL     1      -6.284  46.995  27.116  0.00  0.00    +0.000 N 
ATOM     11  H   UNL     1      -6.038  47.597  27.901  0.00  0.00    +0.000 HD
BRANCH  10  12
ATOM     12  C   UNL     1      -6.962  47.547  25.993  0.00  0.00    +0.000 A 
ATOM     13  C   UNL     1      -6.359  48.444  25.114  0.00  0.00    +0.000 A 
ATOM     14  C   UNL     1      -7.041  48.891  23.984  0.00  0.00    +0.000 A 
ATOM     15  C   UNL     1      -8.323  48.420  23.715  0.00  0.00    +0.000 A 
ATOM     16  C   UNL     1      -8.917  47.496  24.571  0.00  0.00    +0.000 A 
ATOM     17  C   UNL     1      -8.232  47.052  25.699  0.00  0.00    +0.000 A 
ENDBRANCH  10  12
ENDBRANCH   7  10
ENDBRANCH   1   7
BRANCH   3  18
ATOM     18  C   UNL     1      -0.991  44.911  29.589  0.00  0.00    +0.000 C 
ATOM     19  C   UNL     1      -0.342  44.266  30.367  0.00  0.00    +0.000 C 
BRANCH  19  20
ATOM     20  C   UNL     1       0.437  43.491  31.301  0.00  0.00    +0.000 C 
ATOM     21  O   UNL     1       1.616  43.761  31.501  0.00  0.00    +0.000 OA
ATOM     22  N   UNL     1      -0.223  42.474  31.930  0.00  0.00    +0.000 N 
ATOM     23  H   UNL     1      -1.211  42.275  31.819  0.00  0.00    +0.000 HD
BRANCH  22  24
ATOM     24  O   UNL     1       0.494  41.723  32.888  0.00  0.00    +0.000 OA
ATOM     25  H   UNL     1       1.356  41.571  32.441  0.00  0.00    +0.000 HD
ENDBRANCH  22  24
ENDBRANCH  19  20
ENDBRANCH   3  18
TORSDOF 6
ENDMDL
MODEL 5
REMARK VINA RESULT:      -6.2      3.259      8.523
REMARK  Name = Belinostat.pdbqt.pdb
REMARK  6 active torsions:
REMARK  status: ('A' for Active; 'I' for Inactive)
REMARK    1  A    between atoms: C_1  and  S_7
REMARK    2  A    between atoms: C_3  and  C_18
REMARK    3  A    between atoms: S_7  and  N_10
REMARK    4  A    between atoms: N_10  and  C_12
REMARK    5  A    between atoms: C_19  and  C_20
REMARK    6  A    between atoms: N_22  and  O_24
REMARK                            x       y       z     vdW  Elec       q    Type
REMARK                         _______ _______ _______ _____ _____    ______ ____
ROOT
ATOM      1  C   UNL     1      -6.283  46.391  26.551  0.00  0.00    +0.000 A 
ATOM      2  C   UNL     1      -7.617  46.561  26.905  0.00  0.00    +0.000 A 
ATOM      3  C   UNL     1      -8.452  47.289  26.063  0.00  0.00    +0.000 A 
ATOM      4  C   UNL     1      -5.776  46.906  25.363  0.00  0.00    +0.000 A 
ATOM      5  C   UNL     1      -7.955  47.825  24.876  0.00  0.00    +0.000 A 
ATOM      6  C   UNL     1      -6.618  47.632  24.525  0.00  0.00    +0.000 A 
ENDROOT
BRANCH   1   7
ATOM      7  S   UNL     1      -5.231  45.439  27.586  0.00  0.00    +0.000 S 
ATOM      8  O   UNL     1      -4.271  44.782  26.725  0.00  0.00    +0.000 OA
ATOM      9  O   UNL     1      -6.059  44.682  28.499  0.00  0.00    +0.000 OA
BRANCH   7  10
ATOM     10  N   UNL     1      -4.380  46.598  28.445  0.00  0.00    +0.000 N 
ATOM     11  H   UNL     1      -3.986  46.267  29.324  0.00  0.00    +0.000 HD
BRANCH  10  12
ATOM     12  C   UNL     1      -3.882  47.796  27.860  0.00  0.00    +0.000 A 
ATOM     13  C   UNL     1      -4.492  49.036  28.043  0.00  0.00    +0.000 A 
ATOM     14  C   UNL     1      -3.917  50.190  27.515  0.00  0.00    +0.000 A 
ATOM     15  C   UNL     1      -2.712  50.111  26.824  0.00  0.00    +0.000 A 
ATOM     16  C   UNL     1      -2.079  48.881  26.669  0.00  0.00    +0.000 A 
ATOM     17  C   UNL     1      -2.657  47.730  27.197  0.00  0.00    +0.000 A 
ENDBRANCH  10  12
ENDBRANCH   7  10
ENDBRANCH   1   7
BRANCH   3  18
ATOM     18  C   UNL     1      -9.820  47.485  26.418  0.00  0.00    +0.000 C 
ATOM     19  C   UNL     1     -10.970  47.651  26.719  0.00  0.00    +0.000 C 
BRANCH  19  20
ATOM     20  C   UNL     1     -12.351  47.849  27.082  0.00  0.00    +0.000 C 
ATOM     21  O   UNL     1     -13.119  48.422  26.317  0.00  0.00    +0.000 OA
ATOM     22  N   UNL     1     -12.727  47.357  28.300  0.00  0.00    +0.000 N 
ATOM     23  H   UNL     1     -12.120  46.831  28.918  0.00  0.00    +0.000 HD
BRANCH  22  24
ATOM     24  O   UNL     1     -14.083  47.490  28.669  0.00  0.00    +0.000 OA
ATOM     25  H   UNL     1     -14.038  48.082  29.451  0.00  0.00    +0.000 HD
ENDBRANCH  22  24
ENDBRANCH  19  20
ENDBRANCH   3  18
TORSDOF 6
ENDMDL
MODEL 6
REMARK VINA RESULT:      -6.1      3.927      5.386
REMARK  Name = Belinostat.pdbqt.pdb
REMARK  6 active torsions:
REMARK  status: ('A' for Active; 'I' for Inactive)
REMARK    1  A    between atoms: C_1  and  S_7
REMARK    2  A    between atoms: C_3  and  C_18
REMARK    3  A    between atoms: S_7  and  N_10
REMARK    4  A    between atoms: N_10  and  C_12
REMARK    5  A    between atoms: C_19  and  C_20
REMARK    6  A    between atoms: N_22  and  O_24
REMARK                            x       y       z     vdW  Elec       q    Type
REMARK                         _______ _______ _______ _____ _____    ______ ____
ROOT
ATOM      1  C   UNL     1      -0.217  45.911  28.128  0.00  0.00    +0.000 A 
ATOM      2  C   UNL     1      -0.609  45.186  29.248  0.00  0.00    +0.000 A 
ATOM      3  C   UNL     1       0.305  44.328  29.851  0.00  0.00    +0.000 A 
ATOM      4  C   UNL     1       1.074  45.819  27.619  0.00  0.00    +0.000 A 
ATOM      5  C   UNL     1       1.599  44.212  29.343  0.00  0.00    +0.000 A 
ATOM      6  C   UNL     1       1.983  44.959  28.229  0.00  0.00    +0.000 A 
ENDROOT
BRANCH   1   7
ATOM      7  S   UNL     1      -1.349  47.027  27.384  0.00  0.00    +0.000 S 
ATOM      8  O   UNL     1      -1.440  46.669  25.984  0.00  0.00    +0.000 OA
ATOM      9  O   UNL     1      -0.995  48.370  27.791  0.00  0.00    +0.000 OA
BRANCH   7  10
ATOM     10  N   UNL     1      -2.817  46.610  28.075  0.00  0.00    +0.000 N 
ATOM     11  H   UNL     1      -2.860  46.741  29.085  0.00  0.00    +0.000 HD
BRANCH  10  12
ATOM     12  C   UNL     1      -4.024  46.486  27.331  0.00  0.00    +0.000 A 
ATOM     13  C   UNL     1      -4.612  47.558  26.663  0.00  0.00    +0.000 A 
ATOM     14  C   UNL     1      -5.749  47.364  25.882  0.00  0.00    +0.000 A 
ATOM     15  C   UNL     1      -6.287  46.087  25.744  0.00  0.00    +0.000 A 
ATOM     16  C   UNL     1      -5.683  45.006  26.379  0.00  0.00    +0.000 A 
ATOM     17  C   UNL     1      -4.547  45.204  27.160  0.00  0.00    +0.000 A 
ENDBRANCH  10  12
ENDBRANCH   7  10
ENDBRANCH   1   7
BRANCH   3  18
ATOM     18  C   UNL     1      -0.084  43.565  30.992  0.00  0.00    +0.000 C 
ATOM     19  C   UNL     1      -0.414  42.926  31.954  0.00  0.00    +0.000 C 
BRANCH  19  20
ATOM     20  C   UNL     1      -0.810  42.158  33.108  0.00  0.00    +0.000 C 
ATOM     21  O   UNL     1      -1.311  42.711  34.080  0.00  0.00    +0.000 OA
ATOM     22  N   UNL     1      -0.600  40.810  33.030  0.00  0.00    +0.000 N 
ATOM     23  H   UNL     1      -0.241  40.331  32.213  0.00  0.00    +0.000 HD
BRANCH  22  24
ATOM     24  O   UNL     1      -1.020  40.020  34.123  0.00  0.00    +0.000 OA
ATOM     25  H   UNL     1      -0.764  39.113  33.844  0.00  0.00    +0.000 HD
ENDBRANCH  22  24
ENDBRANCH  19  20
ENDBRANCH   3  18
TORSDOF 6
ENDMDL
MODEL 7
REMARK VINA RESULT:      -6.1      3.009      8.756
REMARK  Name = Belinostat.pdbqt.pdb
REMARK  6 active torsions:
REMARK  status: ('A' for Active; 'I' for Inactive)
REMARK    1  A    between atoms: C_1  and  S_7
REMARK    2  A    between atoms: C_3  and  C_18
REMARK    3  A    between atoms: S_7  and  N_10
REMARK    4  A    between atoms: N_10  and  C_12
REMARK    5  A    between atoms: C_19  and  C_20
REMARK    6  A    between atoms: N_22  and  O_24
REMARK                            x       y       z     vdW  Elec       q    Type
REMARK                         _______ _______ _______ _____ _____    ______ ____
ROOT
ATOM      1  C   UNL     1      -3.973  46.803  27.156  0.00  0.00    +0.000 A 
ATOM      2  C   UNL     1      -5.320  47.107  26.995  0.00  0.00    +0.000 A 
ATOM      3  C   UNL     1      -6.072  46.378  26.079  0.00  0.00    +0.000 A 
ATOM      4  C   UNL     1      -3.371  45.770  26.445  0.00  0.00    +0.000 A 
ATOM      5  C   UNL     1      -5.480  45.349  25.346  0.00  0.00    +0.000 A 
ATOM      6  C   UNL     1      -4.130  45.045  25.531  0.00  0.00    +0.000 A 
ENDROOT
BRANCH   1   7
ATOM      7  S   UNL     1      -3.025  47.689  28.339  0.00  0.00    +0.000 S 
ATOM      8  O   UNL     1      -2.726  46.771  29.417  0.00  0.00    +0.000 OA
ATOM      9  O   UNL     1      -3.683  48.952  28.593  0.00  0.00    +0.000 OA
BRANCH   7  10
ATOM     10  N   UNL     1      -1.578  47.971  27.544  0.00  0.00    +0.000 N 
ATOM     11  H   UNL     1      -1.589  48.778  26.921  0.00  0.00    +0.000 HD
BRANCH  10  12
ATOM     12  C   UNL     1      -0.332  47.434  27.974  0.00  0.00    +0.000 A 
ATOM     13  C   UNL     1       0.461  48.048  28.941  0.00  0.00    +0.000 A 
ATOM     14  C   UNL     1       1.632  47.437  29.385  0.00  0.00    +0.000 A 
ATOM     15  C   UNL     1       2.001  46.194  28.880  0.00  0.00    +0.000 A 
ATOM     16  C   UNL     1       1.194  45.558  27.940  0.00  0.00    +0.000 A 
ATOM     17  C   UNL     1       0.025  46.172  27.499  0.00  0.00    +0.000 A 
ENDBRANCH  10  12
ENDBRANCH   7  10
ENDBRANCH   1   7
BRANCH   3  18
ATOM     18  C   UNL     1      -7.452  46.685  25.890  0.00  0.00    +0.000 C 
ATOM     19  C   UNL     1      -8.615  46.942  25.734  0.00  0.00    +0.000 C 
BRANCH  19  20
ATOM     20  C   UNL     1     -10.011  47.249  25.546  0.00  0.00    +0.000 C 
ATOM     21  O   UNL     1     -10.474  47.373  24.418  0.00  0.00    +0.000 OA
ATOM     22  N   UNL     1     -10.753  47.379  26.686  0.00  0.00    +0.000 N 
ATOM     23  H   UNL     1     -10.398  47.223  27.623  0.00  0.00    +0.000 HD
BRANCH  22  24
ATOM     24  O   UNL     1     -12.135  47.632  26.541  0.00  0.00    +0.000 OA
ATOM     25  H   UNL     1     -12.153  48.575  26.266  0.00  0.00    +0.000 HD
ENDBRANCH  22  24
ENDBRANCH  19  20
ENDBRANCH   3  18
TORSDOF 6
ENDMDL
MODEL 8
REMARK VINA RESULT:      -6.1      3.236      9.153
REMARK  Name = Belinostat.pdbqt.pdb
REMARK  6 active torsions:
REMARK  status: ('A' for Active; 'I' for Inactive)
REMARK    1  A    between atoms: C_1  and  S_7
REMARK    2  A    between atoms: C_3  and  C_18
REMARK    3  A    between atoms: S_7  and  N_10
REMARK    4  A    between atoms: N_10  and  C_12
REMARK    5  A    between atoms: C_19  and  C_20
REMARK    6  A    between atoms: N_22  and  O_24
REMARK                            x       y       z     vdW  Elec       q    Type
REMARK                         _______ _______ _______ _____ _____    ______ ____
ROOT
ATOM      1  C   UNL     1      -6.462  46.444  26.519  0.00  0.00    +0.000 A 
ATOM      2  C   UNL     1      -7.796  46.642  26.859  0.00  0.00    +0.000 A 
ATOM      3  C   UNL     1      -8.574  47.486  26.074  0.00  0.00    +0.000 A 
ATOM      4  C   UNL     1      -5.901  47.047  25.398  0.00  0.00    +0.000 A 
ATOM      5  C   UNL     1      -8.023  48.111  24.956  0.00  0.00    +0.000 A 
ATOM      6  C   UNL     1      -6.687  47.889  24.618  0.00  0.00    +0.000 A 
ENDROOT
BRANCH   1   7
ATOM      7  S   UNL     1      -5.481  45.348  27.479  0.00  0.00    +0.000 S 
ATOM      8  O   UNL     1      -4.736  44.524  26.552  0.00  0.00    +0.000 OA
ATOM      9  O   UNL     1      -6.325  44.757  28.494  0.00  0.00    +0.000 OA
BRANCH   7  10
ATOM     10  N   UNL     1      -4.368  46.364  28.210  0.00  0.00    +0.000 N 
ATOM     11  H   UNL     1      -4.751  46.944  28.955  0.00  0.00    +0.000 HD
BRANCH  10  12
ATOM     12  C   UNL     1      -2.960  46.171  28.126  0.00  0.00    +0.000 A 
ATOM     13  C   UNL     1      -2.183  46.725  27.111  0.00  0.00    +0.000 A 
ATOM     14  C   UNL     1      -0.798  46.574  27.121  0.00  0.00    +0.000 A 
ATOM     15  C   UNL     1      -0.182  45.889  28.163  0.00  0.00    +0.000 A 
ATOM     16  C   UNL     1      -0.949  45.364  29.199  0.00  0.00    +0.000 A 
ATOM     17  C   UNL     1      -2.333  45.516  29.186  0.00  0.00    +0.000 A 
ENDBRANCH  10  12
ENDBRANCH   7  10
ENDBRANCH   1   7
BRANCH   3  18
ATOM     18  C   UNL     1      -9.941  47.712  26.416  0.00  0.00    +0.000 C 
ATOM     19  C   UNL     1     -11.091  47.906  26.704  0.00  0.00    +0.000 C 
BRANCH  19  20
ATOM     20  C   UNL     1     -12.471  48.139  27.049  0.00  0.00    +0.000 C 
ATOM     21  O   UNL     1     -12.997  47.515  27.963  0.00  0.00    +0.000 OA
ATOM     22  N   UNL     1     -13.121  49.084  26.307  0.00  0.00    +0.000 N 
ATOM     23  H   UNL     1     -12.686  49.649  25.587  0.00  0.00    +0.000 HD
BRANCH  22  24
ATOM     24  O   UNL     1     -14.461  49.374  26.647  0.00  0.00    +0.000 OA
ATOM     25  H   UNL     1     -14.969  48.876  25.970  0.00  0.00    +0.000 HD
ENDBRANCH  22  24
ENDBRANCH  19  20
ENDBRANCH   3  18
TORSDOF 6
ENDMDL
MODEL 9
REMARK VINA RESULT:      -6.0      3.649      7.904
REMARK  Name = Belinostat.pdbqt.pdb
REMARK  6 active torsions:
REMARK  status: ('A' for Active; 'I' for Inactive)
REMARK    1  A    between atoms: C_1  and  S_7
REMARK    2  A    between atoms: C_3  and  C_18
REMARK    3  A    between atoms: S_7  and  N_10
REMARK    4  A    between atoms: N_10  and  C_12
REMARK    5  A    between atoms: C_19  and  C_20
REMARK    6  A    between atoms: N_22  and  O_24
REMARK                            x       y       z     vdW  Elec       q    Type
REMARK                         _______ _______ _______ _____ _____    ______ ____
ROOT
ATOM      1  C   UNL     1      -3.982  47.415  26.529  0.00  0.00    +0.000 A 
ATOM      2  C   UNL     1      -5.337  47.662  26.338  0.00  0.00    +0.000 A 
ATOM      3  C   UNL     1      -6.136  46.661  25.797  0.00  0.00    +0.000 A 
ATOM      4  C   UNL     1      -3.417  46.182  26.219  0.00  0.00    +0.000 A 
ATOM      5  C   UNL     1      -5.583  45.424  25.466  0.00  0.00    +0.000 A 
ATOM      6  C   UNL     1      -4.225  45.185  25.679  0.00  0.00    +0.000 A 
ENDROOT
BRANCH   1   7
ATOM      7  S   UNL     1      -2.972  48.658  27.250  0.00  0.00    +0.000 S 
ATOM      8  O   UNL     1      -2.922  49.760  26.313  0.00  0.00    +0.000 OA
ATOM      9  O   UNL     1      -1.760  48.032  27.733  0.00  0.00    +0.000 OA
BRANCH   7  10
ATOM     10  N   UNL     1      -3.878  49.186  28.555  0.00  0.00    +0.000 N 
ATOM     11  H   UNL     1      -3.776  48.620  29.397  0.00  0.00    +0.000 HD
BRANCH  10  12
ATOM     12  C   UNL     1      -4.411  50.502  28.655  0.00  0.00    +0.000 A 
ATOM     13  C   UNL     1      -5.771  50.777  28.533  0.00  0.00    +0.000 A 
ATOM     14  C   UNL     1      -6.250  52.071  28.721  0.00  0.00    +0.000 A 
ATOM     15  C   UNL     1      -5.370  53.094  29.060  0.00  0.00    +0.000 A 
ATOM     16  C   UNL     1      -4.014  52.820  29.220  0.00  0.00    +0.000 A 
ATOM     17  C   UNL     1      -3.540  51.525  29.030  0.00  0.00    +0.000 A 
ENDBRANCH  10  12
ENDBRANCH   7  10
ENDBRANCH   1   7
BRANCH   3  18
ATOM     18  C   UNL     1      -7.525  46.902  25.581  0.00  0.00    +0.000 C 
ATOM     19  C   UNL     1      -8.695  47.107  25.400  0.00  0.00    +0.000 C 
BRANCH  19  20
ATOM     20  C   UNL     1     -10.098  47.355  25.182  0.00  0.00    +0.000 C 
ATOM     21  O   UNL     1     -10.940  46.852  25.918  0.00  0.00    +0.000 OA
ATOM     22  N   UNL     1     -10.405  48.174  24.132  0.00  0.00    +0.000 N 
ATOM     23  H   UNL     1      -9.721  48.644  23.551  0.00  0.00    +0.000 HD
BRANCH  22  24
ATOM     24  O   UNL     1     -11.768  48.479  23.918  0.00  0.00    +0.000 OA
ATOM     25  H   UNL     1     -11.959  49.126  24.631  0.00  0.00    +0.000 HD
ENDBRANCH  22  24
ENDBRANCH  19  20
ENDBRANCH   3  18
TORSDOF 6
ENDMDL
