MODEL 1
REMARK VINA RESULT:      -7.9      0.000      0.000
REMARK  Name = Benzo[a]pyrene.pdbqt.pdb
REMARK  0 active torsions:
REMARK  status: ('A' for Active; 'I' for Inactive)
REMARK                            x       y       z     vdW  Elec       q    Type
REMARK                         _______ _______ _______ _____ _____    ______ ____
ROOT
ATOM      1  C   UNL     1      -5.190  48.142  26.354  0.00  0.00    +0.000 A 
ATOM      2  C   UNL     1      -3.835  47.822  26.593  0.00  0.00    +0.000 A 
ATOM      3  C   UNL     1      -6.046  47.208  25.729  0.00  0.00    +0.000 A 
ATOM      4  C   UNL     1      -5.677  49.407  26.747  0.00  0.00    +0.000 A 
ATOM      5  C   UNL     1      -7.401  47.556  25.501  0.00  0.00    +0.000 A 
ATOM      6  C   UNL     1      -3.329  46.564  26.208  0.00  0.00    +0.000 A 
ATOM      7  C   UNL     1      -2.985  48.759  27.217  0.00  0.00    +0.000 A 
ATOM      8  C   UNL     1      -7.868  48.828  25.902  0.00  0.00    +0.000 A 
ATOM      9  C   UNL     1      -7.009  49.735  26.517  0.00  0.00    +0.000 A 
ATOM     10  C   UNL     1      -5.508  45.963  25.358  0.00  0.00    +0.000 A 
ATOM     11  C   UNL     1      -4.824  50.323  27.363  0.00  0.00    +0.000 A 
ATOM     12  C   UNL     1      -4.171  45.643  25.593  0.00  0.00    +0.000 A 
ATOM     13  C   UNL     1      -3.488  50.002  27.597  0.00  0.00    +0.000 A 
ATOM     14  C   UNL     1      -1.990  46.257  26.448  0.00  0.00    +0.000 A 
ATOM     15  C   UNL     1      -1.649  48.432  27.448  0.00  0.00    +0.000 A 
ATOM     16  C   UNL     1      -8.314  46.683  24.886  0.00  0.00    +0.000 A 
ATOM     17  C   UNL     1      -9.197  49.192  25.688  0.00  0.00    +0.000 A 
ATOM     18  C   UNL     1      -1.154  47.186  27.066  0.00  0.00    +0.000 A 
ATOM     19  C   UNL     1      -9.640  47.052  24.675  0.00  0.00    +0.000 A 
ATOM     20  C   UNL     1     -10.082  48.307  25.076  0.00  0.00    +0.000 A 
ENDROOT
TORSDOF 0
ENDMDL
MODEL 2
REMARK VINA RESULT:      -7.9      0.691      2.922
REMARK  Name = Benzo[a]pyrene.pdbqt.pdb
REMARK  0 active torsions:
REMARK  status: ('A' for Active; 'I' for Inactive)
REMARK                            x       y       z     vdW  Elec       q    Type
REMARK                         _______ _______ _______ _____ _____    ______ ____
ROOT
ATOM      1  C   UNL     1      -5.428  47.580  26.188  0.00  0.00    +0.000 A 
ATOM      2  C   UNL     1      -4.050  47.656  26.487  0.00  0.00    +0.000 A 
ATOM      3  C   UNL     1      -6.271  48.692  26.414  0.00  0.00    +0.000 A 
ATOM      4  C   UNL     1      -5.952  46.381  25.660  0.00  0.00    +0.000 A 
ATOM      5  C   UNL     1      -7.650  48.588  26.105  0.00  0.00    +0.000 A 
ATOM      6  C   UNL     1      -3.506  48.844  27.014  0.00  0.00    +0.000 A 
ATOM      7  C   UNL     1      -3.213  46.543  26.259  0.00  0.00    +0.000 A 
ATOM      8  C   UNL     1      -8.155  47.378  25.578  0.00  0.00    +0.000 A 
ATOM      9  C   UNL     1      -7.308  46.294  25.362  0.00  0.00    +0.000 A 
ATOM     10  C   UNL     1      -5.695  49.861  26.941  0.00  0.00    +0.000 A 
ATOM     11  C   UNL     1      -5.113  45.289  25.441  0.00  0.00    +0.000 A 
ATOM     12  C   UNL     1      -4.335  49.940  27.237  0.00  0.00    +0.000 A 
ATOM     13  C   UNL     1      -3.753  45.369  25.737  0.00  0.00    +0.000 A 
ATOM     14  C   UNL     1      -2.144  48.910  27.306  0.00  0.00    +0.000 A 
ATOM     15  C   UNL     1      -1.854  46.629  26.557  0.00  0.00    +0.000 A 
ATOM     16  C   UNL     1      -8.552  49.647  26.301  0.00  0.00    +0.000 A 
ATOM     17  C   UNL     1      -9.508  47.253  25.267  0.00  0.00    +0.000 A 
ATOM     18  C   UNL     1      -1.321  47.807  27.079  0.00  0.00    +0.000 A 
ATOM     19  C   UNL     1      -9.903  49.517  25.988  0.00  0.00    +0.000 A 
ATOM     20  C   UNL     1     -10.381  48.319  25.471  0.00  0.00    +0.000 A 
ENDROOT
TORSDOF 0
ENDMDL
MODEL 3
REMARK VINA RESULT:      -7.7      1.683      5.478
REMARK  Name = Benzo[a]pyrene.pdbqt.pdb
REMARK  0 active torsions:
REMARK  status: ('A' for Active; 'I' for Inactive)
REMARK                            x       y       z     vdW  Elec       q    Type
REMARK                         _______ _______ _______ _____ _____    ______ ____
ROOT
ATOM      1  C   UNL     1      -3.801  48.648  26.872  0.00  0.00    +0.000 A 
ATOM      2  C   UNL     1      -4.333  47.423  26.414  0.00  0.00    +0.000 A 
ATOM      3  C   UNL     1      -2.403  48.826  26.979  0.00  0.00    +0.000 A 
ATOM      4  C   UNL     1      -4.684  49.692  27.222  0.00  0.00    +0.000 A 
ATOM      5  C   UNL     1      -1.898  50.066  27.443  0.00  0.00    +0.000 A 
ATOM      6  C   UNL     1      -3.469  46.367  26.059  0.00  0.00    +0.000 A 
ATOM      7  C   UNL     1      -5.729  47.251  26.309  0.00  0.00    +0.000 A 
ATOM      8  C   UNL     1      -2.799  51.099  27.788  0.00  0.00    +0.000 A 
ATOM      9  C   UNL     1      -4.173  50.904  27.675  0.00  0.00    +0.000 A 
ATOM     10  C   UNL     1      -1.572  47.752  26.617  0.00  0.00    +0.000 A 
ATOM     11  C   UNL     1      -6.062  49.508  27.113  0.00  0.00    +0.000 A 
ATOM     12  C   UNL     1      -2.092  46.540  26.164  0.00  0.00    +0.000 A 
ATOM     13  C   UNL     1      -6.582  48.296  26.660  0.00  0.00    +0.000 A 
ATOM     14  C   UNL     1      -4.003  45.161  25.607  0.00  0.00    +0.000 A 
ATOM     15  C   UNL     1      -6.243  46.037  25.855  0.00  0.00    +0.000 A 
ATOM     16  C   UNL     1      -0.523  50.320  27.577  0.00  0.00    +0.000 A 
ATOM     17  C   UNL     1      -2.323  52.327  28.246  0.00  0.00    +0.000 A 
ATOM     18  C   UNL     1      -5.384  44.996  25.505  0.00  0.00    +0.000 A 
ATOM     19  C   UNL     1      -0.054  51.549  28.035  0.00  0.00    +0.000 A 
ATOM     20  C   UNL     1      -0.955  52.553  28.369  0.00  0.00    +0.000 A 
ENDROOT
TORSDOF 0
ENDMDL
MODEL 4
REMARK VINA RESULT:      -7.7      1.123      6.551
REMARK  Name = Benzo[a]pyrene.pdbqt.pdb
REMARK  0 active torsions:
REMARK  status: ('A' for Active; 'I' for Inactive)
REMARK                            x       y       z     vdW  Elec       q    Type
REMARK                         _______ _______ _______ _____ _____    ______ ____
ROOT
ATOM      1  C   UNL     1      -3.530  47.709  26.721  0.00  0.00    +0.000 A 
ATOM      2  C   UNL     1      -4.847  48.000  26.302  0.00  0.00    +0.000 A 
ATOM      3  C   UNL     1      -2.782  48.666  27.444  0.00  0.00    +0.000 A 
ATOM      4  C   UNL     1      -2.970  46.452  26.408  0.00  0.00    +0.000 A 
ATOM      5  C   UNL     1      -1.463  48.348  27.852  0.00  0.00    +0.000 A 
ATOM      6  C   UNL     1      -5.425  49.249  26.604  0.00  0.00    +0.000 A 
ATOM      7  C   UNL     1      -5.588  47.041  25.580  0.00  0.00    +0.000 A 
ATOM      8  C   UNL     1      -0.921  47.083  27.528  0.00  0.00    +0.000 A 
ATOM      9  C   UNL     1      -1.674  46.154  26.815  0.00  0.00    +0.000 A 
ATOM     10  C   UNL     1      -3.390  49.901  27.728  0.00  0.00    +0.000 A 
ATOM     11  C   UNL     1      -3.715  45.515  25.694  0.00  0.00    +0.000 A 
ATOM     12  C   UNL     1      -4.690  50.192  27.316  0.00  0.00    +0.000 A 
ATOM     13  C   UNL     1      -5.015  45.805  25.282  0.00  0.00    +0.000 A 
ATOM     14  C   UNL     1      -6.726  49.527  26.186  0.00  0.00    +0.000 A 
ATOM     15  C   UNL     1      -6.888  47.338  25.171  0.00  0.00    +0.000 A 
ATOM     16  C   UNL     1      -0.657  49.244  28.573  0.00  0.00    +0.000 A 
ATOM     17  C   UNL     1       0.375  46.749  27.920  0.00  0.00    +0.000 A 
ATOM     18  C   UNL     1      -7.454  48.576  25.473  0.00  0.00    +0.000 A 
ATOM     19  C   UNL     1       0.637  48.904  28.962  0.00  0.00    +0.000 A 
ATOM     20  C   UNL     1       1.153  47.656  28.634  0.00  0.00    +0.000 A 
ENDROOT
TORSDOF 0
ENDMDL
MODEL 5
REMARK VINA RESULT:      -7.5     24.189     25.481
REMARK  Name = Benzo[a]pyrene.pdbqt.pdb
REMARK  0 active torsions:
REMARK  status: ('A' for Active; 'I' for Inactive)
REMARK                            x       y       z     vdW  Elec       q    Type
REMARK                         _______ _______ _______ _____ _____    ______ ____
ROOT
ATOM      1  C   UNL     1     -18.129  39.191   6.252  0.00  0.00    +0.000 A 
ATOM      2  C   UNL     1     -18.480  37.888   6.672  0.00  0.00    +0.000 A 
ATOM      3  C   UNL     1     -16.786  39.507   5.948  0.00  0.00    +0.000 A 
ATOM      4  C   UNL     1     -19.138  40.171   6.140  0.00  0.00    +0.000 A 
ATOM      5  C   UNL     1     -16.463  40.821   5.529  0.00  0.00    +0.000 A 
ATOM      6  C   UNL     1     -17.488  36.894   6.790  0.00  0.00    +0.000 A 
ATOM      7  C   UNL     1     -19.822  37.578   6.973  0.00  0.00    +0.000 A 
ATOM      8  C   UNL     1     -17.488  41.789   5.424  0.00  0.00    +0.000 A 
ATOM      9  C   UNL     1     -18.806  41.457   5.727  0.00  0.00    +0.000 A 
ATOM     10  C   UNL     1     -15.823  38.491   6.077  0.00  0.00    +0.000 A 
ATOM     11  C   UNL     1     -20.460  39.850   6.441  0.00  0.00    +0.000 A 
ATOM     12  C   UNL     1     -16.164  37.204   6.491  0.00  0.00    +0.000 A 
ATOM     13  C   UNL     1     -20.802  38.563   6.855  0.00  0.00    +0.000 A 
ATOM     14  C   UNL     1     -17.843  35.611   7.205  0.00  0.00    +0.000 A 
ATOM     15  C   UNL     1     -20.157  36.289   7.387  0.00  0.00    +0.000 A 
ATOM     16  C   UNL     1     -15.152  41.214   5.210  0.00  0.00    +0.000 A 
ATOM     17  C   UNL     1     -17.193  43.088   5.014  0.00  0.00    +0.000 A 
ATOM     18  C   UNL     1     -19.172  35.310   7.502  0.00  0.00    +0.000 A 
ATOM     19  C   UNL     1     -14.863  42.514   4.801  0.00  0.00    +0.000 A 
ATOM     20  C   UNL     1     -15.885  43.451   4.703  0.00  0.00    +0.000 A 
ENDROOT
TORSDOF 0
ENDMDL
MODEL 6
REMARK VINA RESULT:      -7.3     24.179     25.669
REMARK  Name = Benzo[a]pyrene.pdbqt.pdb
REMARK  0 active torsions:
REMARK  status: ('A' for Active; 'I' for Inactive)
REMARK                            x       y       z     vdW  Elec       q    Type
REMARK                         _______ _______ _______ _____ _____    ______ ____
ROOT
ATOM      1  C   UNL     1     -17.958  39.150   6.215  0.00  0.00    +0.000 A 
ATOM      2  C   UNL     1     -18.980  38.263   6.620  0.00  0.00    +0.000 A 
ATOM      3  C   UNL     1     -18.269  40.480   5.851  0.00  0.00    +0.000 A 
ATOM      4  C   UNL     1     -16.624  38.692   6.180  0.00  0.00    +0.000 A 
ATOM      5  C   UNL     1     -17.224  41.348   5.450  0.00  0.00    +0.000 A 
ATOM      6  C   UNL     1     -20.319  38.700   6.662  0.00  0.00    +0.000 A 
ATOM      7  C   UNL     1     -18.664  36.936   6.982  0.00  0.00    +0.000 A 
ATOM      8  C   UNL     1     -15.894  40.869   5.421  0.00  0.00    +0.000 A 
ATOM      9  C   UNL     1     -15.609  39.556   5.784  0.00  0.00    +0.000 A 
ATOM     10  C   UNL     1     -19.614  40.882   5.905  0.00  0.00    +0.000 A 
ATOM     11  C   UNL     1     -16.327  37.378   6.541  0.00  0.00    +0.000 A 
ATOM     12  C   UNL     1     -20.626  40.009   6.304  0.00  0.00    +0.000 A 
ATOM     13  C   UNL     1     -17.339  36.506   6.940  0.00  0.00    +0.000 A 
ATOM     14  C   UNL     1     -21.321  37.817   7.063  0.00  0.00    +0.000 A 
ATOM     15  C   UNL     1     -19.681  36.069   7.380  0.00  0.00    +0.000 A 
ATOM     16  C   UNL     1     -17.451  42.683   5.073  0.00  0.00    +0.000 A 
ATOM     17  C   UNL     1     -14.850  41.707   5.029  0.00  0.00    +0.000 A 
ATOM     18  C   UNL     1     -21.004  36.507   7.420  0.00  0.00    +0.000 A 
ATOM     19  C   UNL     1     -16.404  43.514   4.682  0.00  0.00    +0.000 A 
ATOM     20  C   UNL     1     -15.103  43.026   4.660  0.00  0.00    +0.000 A 
ENDROOT
TORSDOF 0
ENDMDL
MODEL 7
REMARK VINA RESULT:      -7.0     14.538     15.740
REMARK  Name = Benzo[a]pyrene.pdbqt.pdb
REMARK  0 active torsions:
REMARK  status: ('A' for Active; 'I' for Inactive)
REMARK                            x       y       z     vdW  Elec       q    Type
REMARK                         _______ _______ _______ _____ _____    ______ ____
ROOT
ATOM      1  C   UNL     1       5.968  55.810  19.281  0.00  0.00    +0.000 A 
ATOM      2  C   UNL     1       6.976  56.142  20.213  0.00  0.00    +0.000 A 
ATOM      3  C   UNL     1       6.279  55.046  18.133  0.00  0.00    +0.000 A 
ATOM      4  C   UNL     1       4.647  56.250  19.512  0.00  0.00    +0.000 A 
ATOM      5  C   UNL     1       5.247  54.728  17.215  0.00  0.00    +0.000 A 
ATOM      6  C   UNL     1       8.302  55.712  20.002  0.00  0.00    +0.000 A 
ATOM      7  C   UNL     1       6.660  56.904  21.358  0.00  0.00    +0.000 A 
ATOM      8  C   UNL     1       3.931  55.179  17.465  0.00  0.00    +0.000 A 
ATOM      9  C   UNL     1       3.645  55.930  18.602  0.00  0.00    +0.000 A 
ATOM     10  C   UNL     1       7.611  54.635  17.954  0.00  0.00    +0.000 A 
ATOM     11  C   UNL     1       4.350  57.003  20.647  0.00  0.00    +0.000 A 
ATOM     12  C   UNL     1       8.609  54.960  18.872  0.00  0.00    +0.000 A 
ATOM     13  C   UNL     1       5.349  57.328  21.565  0.00  0.00    +0.000 A 
ATOM     14  C   UNL     1       9.290  56.044  20.927  0.00  0.00    +0.000 A 
ATOM     15  C   UNL     1       7.664  57.226  22.271  0.00  0.00    +0.000 A 
ATOM     16  C   UNL     1       5.475  53.974  16.052  0.00  0.00    +0.000 A 
ATOM     17  C   UNL     1       2.901  54.877  16.575  0.00  0.00    +0.000 A 
ATOM     18  C   UNL     1       8.973  56.798  22.057  0.00  0.00    +0.000 A 
ATOM     19  C   UNL     1       4.442  53.676  15.166  0.00  0.00    +0.000 A 
ATOM     20  C   UNL     1       3.154  54.128  15.428  0.00  0.00    +0.000 A 
ENDROOT
TORSDOF 0
ENDMDL
MODEL 8
REMARK VINA RESULT:      -6.9     21.318     24.437
REMARK  Name = Benzo[a]pyrene.pdbqt.pdb
REMARK  0 active torsions:
REMARK  status: ('A' for Active; 'I' for Inactive)
REMARK                            x       y       z     vdW  Elec       q    Type
REMARK                         _______ _______ _______ _____ _____    ______ ____
ROOT
ATOM      1  C   UNL     1     -25.356  36.436  20.154  0.00  0.00    +0.000 A 
ATOM      2  C   UNL     1     -25.267  37.804  20.494  0.00  0.00    +0.000 A 
ATOM      3  C   UNL     1     -26.453  35.660  20.593  0.00  0.00    +0.000 A 
ATOM      4  C   UNL     1     -24.336  35.854  19.371  0.00  0.00    +0.000 A 
ATOM      5  C   UNL     1     -26.516  34.290  20.237  0.00  0.00    +0.000 A 
ATOM      6  C   UNL     1     -26.274  38.405  21.274  0.00  0.00    +0.000 A 
ATOM      7  C   UNL     1     -24.169  38.574  20.053  0.00  0.00    +0.000 A 
ATOM      8  C   UNL     1     -25.484  33.727  19.453  0.00  0.00    +0.000 A 
ATOM      9  C   UNL     1     -24.412  34.508  19.030  0.00  0.00    +0.000 A 
ATOM     10  C   UNL     1     -27.439  36.292  21.370  0.00  0.00    +0.000 A 
ATOM     11  C   UNL     1     -23.258  36.628  18.943  0.00  0.00    +0.000 A 
ATOM     12  C   UNL     1     -27.355  37.642  21.707  0.00  0.00    +0.000 A 
ATOM     13  C   UNL     1     -23.174  37.978  19.280  0.00  0.00    +0.000 A 
ATOM     14  C   UNL     1     -26.178  39.756  21.605  0.00  0.00    +0.000 A 
ATOM     15  C   UNL     1     -24.092  39.924  20.394  0.00  0.00    +0.000 A 
ATOM     16  C   UNL     1     -27.573  33.453  20.634  0.00  0.00    +0.000 A 
ATOM     17  C   UNL     1     -25.527  32.381  19.091  0.00  0.00    +0.000 A 
ATOM     18  C   UNL     1     -25.092  40.512  21.167  0.00  0.00    +0.000 A 
ATOM     19  C   UNL     1     -27.609  32.109  20.270  0.00  0.00    +0.000 A 
ATOM     20  C   UNL     1     -26.586  31.573  19.498  0.00  0.00    +0.000 A 
ENDROOT
TORSDOF 0
ENDMDL
MODEL 9
REMARK VINA RESULT:      -6.4     21.277     22.536
REMARK  Name = Benzo[a]pyrene.pdbqt.pdb
REMARK  0 active torsions:
REMARK  status: ('A' for Active; 'I' for Inactive)
REMARK                            x       y       z     vdW  Elec       q    Type
REMARK                         _______ _______ _______ _____ _____    ______ ____
ROOT
ATOM      1  C   UNL     1      -3.546  27.129  19.477  0.00  0.00    +0.000 A 
ATOM      2  C   UNL     1      -4.594  26.525  20.208  0.00  0.00    +0.000 A 
ATOM      3  C   UNL     1      -2.350  27.513  20.125  0.00  0.00    +0.000 A 
ATOM      4  C   UNL     1      -3.709  27.343  18.092  0.00  0.00    +0.000 A 
ATOM      5  C   UNL     1      -1.317  28.116  19.368  0.00  0.00    +0.000 A 
ATOM      6  C   UNL     1      -4.451  26.302  21.592  0.00  0.00    +0.000 A 
ATOM      7  C   UNL     1      -5.785  26.144  19.555  0.00  0.00    +0.000 A 
ATOM      8  C   UNL     1      -1.500  28.322  17.981  0.00  0.00    +0.000 A 
ATOM      9  C   UNL     1      -2.685  27.937  17.361  0.00  0.00    +0.000 A 
ATOM     10  C   UNL     1      -2.243  27.275  21.506  0.00  0.00    +0.000 A 
ATOM     11  C   UNL     1      -4.893  26.962  17.461  0.00  0.00    +0.000 A 
ATOM     12  C   UNL     1      -3.274  26.679  22.232  0.00  0.00    +0.000 A 
ATOM     13  C   UNL     1      -5.924  26.366  18.186  0.00  0.00    +0.000 A 
ATOM     14  C   UNL     1      -5.490  25.706  22.305  0.00  0.00    +0.000 A 
ATOM     15  C   UNL     1      -6.813  25.549  20.286  0.00  0.00    +0.000 A 
ATOM     16  C   UNL     1      -0.099  28.525  19.938  0.00  0.00    +0.000 A 
ATOM     17  C   UNL     1      -0.496  28.914  17.216  0.00  0.00    +0.000 A 
ATOM     18  C   UNL     1      -6.666  25.331  21.656  0.00  0.00    +0.000 A 
ATOM     19  C   UNL     1       0.900  29.116  19.169  0.00  0.00    +0.000 A 
ATOM     20  C   UNL     1       0.702  29.310  17.807  0.00  0.00    +0.000 A 
ENDROOT
TORSDOF 0
ENDMDL
