MODEL 1
REMARK VINA RESULT:      -7.3      0.000      0.000
REMARK  Name = Bicalutamide.pdbqt.pdb
REMARK  8 active torsions:
REMARK  status: ('A' for Active; 'I' for Inactive)
REMARK    1  A    between atoms: C_2  and  N_13
REMARK    2  A    between atoms: C_5  and  C_9
REMARK    3  A    between atoms: C_6  and  C_8
REMARK    4  A    between atoms: C_14  and  C_17
REMARK    5  A    between atoms: C_17  and  O_19
REMARK    6  A    between atoms: C_17  and  C_21
REMARK    7  A    between atoms: C_21  and  S_22
REMARK    8  A    between atoms: S_22  and  C_25
REMARK                            x       y       z     vdW  Elec       q    Type
REMARK                         _______ _______ _______ _____ _____    ______ ____
ROOT
ATOM      1  N   UNL     1      -5.992  46.520  25.544  0.00  0.00    +0.000 N 
ATOM      2  C   UNL     1      -5.255  46.532  26.725  0.00  0.00    +0.000 C 
ATOM      3  O   UNL     1      -5.436  47.321  27.658  0.00  0.00    +0.000 OA
ATOM      4  H   UNL     1      -5.807  45.751  24.899  0.00  0.00    +0.000 HD
ENDROOT
BRANCH   1   5
ATOM      5  C   UNL     1      -7.017  47.417  25.202  0.00  0.00    +0.000 A 
ATOM      6  C   UNL     1      -8.256  47.254  25.821  0.00  0.00    +0.000 A 
ATOM      7  C   UNL     1      -6.851  48.439  24.273  0.00  0.00    +0.000 A 
ATOM      8  C   UNL     1      -9.332  48.101  25.528  0.00  0.00    +0.000 A 
ATOM      9  C   UNL     1      -9.149  49.129  24.591  0.00  0.00    +0.000 A 
ATOM     10  C   UNL     1      -7.910  49.291  23.969  0.00  0.00    +0.000 A 
BRANCH   8  11
ATOM     11  C   UNL     1     -10.643  47.882  26.224  0.00  0.00    +0.000 C 
ATOM     12  F   UNL     1     -10.849  48.736  27.264  0.00  0.00    +0.000 F 
ATOM     13  F   UNL     1     -11.705  48.050  25.391  0.00  0.00    +0.000 F 
ATOM     14  F   UNL     1     -10.753  46.631  26.744  0.00  0.00    +0.000 F 
ENDBRANCH   8  11
BRANCH   9  16
ATOM     15  N   UNL     1     -11.039  50.780  23.946  0.00  0.00    +0.000 NA
ATOM     16  C   UNL     1     -10.199  50.036  24.237  0.00  0.00    +0.000 C 
ENDBRANCH   9  16
ENDBRANCH   1   5
BRANCH   2  17
ATOM     17  C   UNL     1      -4.091  45.463  26.805  0.00  0.00    +0.000 C 
ATOM     18  C   UNL     1      -3.456  45.213  25.407  0.00  0.00    +0.000 C 
BRANCH  17  19
ATOM     19  O   UNL     1      -4.596  44.219  27.264  0.00  0.00    +0.000 OA
ATOM     20  H   UNL     1      -5.286  44.457  27.912  0.00  0.00    +0.000 HD
ENDBRANCH  17  19
BRANCH  17  21
ATOM     21  C   UNL     1      -3.114  45.939  27.735  0.00  0.00    +0.000 C 
BRANCH  21  22
ATOM     22  S   UNL     1      -1.941  46.705  28.742  0.00  0.00    +0.000 S 
ATOM     23  O   UNL     1      -2.646  46.585  29.993  0.00  0.00    +0.000 OA
ATOM     24  O   UNL     1      -1.814  47.911  27.961  0.00  0.00    +0.000 OA
BRANCH  22  25
ATOM     25  C   UNL     1      -0.483  45.772  28.730  0.00  0.00    +0.000 A 
ATOM     26  C   UNL     1       0.389  45.931  27.657  0.00  0.00    +0.000 A 
ATOM     27  C   UNL     1       1.557  45.176  27.614  0.00  0.00    +0.000 A 
ATOM     28  C   UNL     1       1.827  44.274  28.639  0.00  0.00    +0.000 A 
ATOM     29  F   UNL     1       2.951  43.546  28.596  0.00  0.00    +0.000 F 
ATOM     30  C   UNL     1       0.948  44.112  29.707  0.00  0.00    +0.000 A 
ATOM     31  C   UNL     1      -0.220  44.866  29.753  0.00  0.00    +0.000 A 
ENDBRANCH  22  25
ENDBRANCH  21  22
ENDBRANCH  17  21
ENDBRANCH   2  17
TORSDOF 8
ENDMDL
MODEL 2
REMARK VINA RESULT:      -6.8      2.184      2.914
REMARK  Name = Bicalutamide.pdbqt.pdb
REMARK  8 active torsions:
REMARK  status: ('A' for Active; 'I' for Inactive)
REMARK    1  A    between atoms: C_2  and  N_13
REMARK    2  A    between atoms: C_5  and  C_9
REMARK    3  A    between atoms: C_6  and  C_8
REMARK    4  A    between atoms: C_14  and  C_17
REMARK    5  A    between atoms: C_17  and  O_19
REMARK    6  A    between atoms: C_17  and  C_21
REMARK    7  A    between atoms: C_21  and  S_22
REMARK    8  A    between atoms: S_22  and  C_25
REMARK                            x       y       z     vdW  Elec       q    Type
REMARK                         _______ _______ _______ _____ _____    ______ ____
ROOT
ATOM      1  N   UNL     1      -4.496  47.551  26.525  0.00  0.00    +0.000 N 
ATOM      2  C   UNL     1      -3.595  46.537  26.838  0.00  0.00    +0.000 C 
ATOM      3  O   UNL     1      -3.912  45.375  27.114  0.00  0.00    +0.000 OA
ATOM      4  H   UNL     1      -4.094  48.438  26.218  0.00  0.00    +0.000 HD
ENDROOT
BRANCH   1   5
ATOM      5  C   UNL     1      -5.896  47.437  26.514  0.00  0.00    +0.000 A 
ATOM      6  C   UNL     1      -6.566  47.779  25.340  0.00  0.00    +0.000 A 
ATOM      7  C   UNL     1      -6.630  47.015  27.617  0.00  0.00    +0.000 A 
ATOM      8  C   UNL     1      -7.961  47.701  25.250  0.00  0.00    +0.000 A 
ATOM      9  C   UNL     1      -8.688  47.271  26.370  0.00  0.00    +0.000 A 
ATOM     10  C   UNL     1      -8.018  46.932  27.547  0.00  0.00    +0.000 A 
BRANCH   8  11
ATOM     11  C   UNL     1      -8.631  48.080  23.962  0.00  0.00    +0.000 C 
ATOM     12  F   UNL     1      -9.556  49.069  24.109  0.00  0.00    +0.000 F 
ATOM     13  F   UNL     1      -7.749  48.533  23.033  0.00  0.00    +0.000 F 
ATOM     14  F   UNL     1      -9.291  47.037  23.394  0.00  0.00    +0.000 F 
ENDBRANCH   8  11
BRANCH   9  16
ATOM     15  N   UNL     1     -11.271  47.068  26.359  0.00  0.00    +0.000 NA
ATOM     16  C   UNL     1     -10.116  47.165  26.359  0.00  0.00    +0.000 C 
ENDBRANCH   9  16
ENDBRANCH   1   5
BRANCH   2  17
ATOM     17  C   UNL     1      -2.073  46.971  26.868  0.00  0.00    +0.000 C 
ATOM     18  C   UNL     1      -1.926  48.519  26.835  0.00  0.00    +0.000 C 
BRANCH  17  19
ATOM     19  O   UNL     1      -1.394  46.462  25.731  0.00  0.00    +0.000 OA
ATOM     20  H   UNL     1      -0.461  46.713  25.869  0.00  0.00    +0.000 HD
ENDBRANCH  17  19
BRANCH  17  21
ATOM     21  C   UNL     1      -1.478  46.424  28.048  0.00  0.00    +0.000 C 
BRANCH  21  22
ATOM     22  S   UNL     1      -0.796  45.963  29.564  0.00  0.00    +0.000 S 
ATOM     23  O   UNL     1      -1.512  44.725  29.735  0.00  0.00    +0.000 OA
ATOM     24  O   UNL     1      -1.076  47.199  30.254  0.00  0.00    +0.000 OA
BRANCH  22  25
ATOM     25  C   UNL     1       0.905  45.704  29.369  0.00  0.00    +0.000 A 
ATOM     26  C   UNL     1       1.776  46.434  30.171  0.00  0.00    +0.000 A 
ATOM     27  C   UNL     1       3.148  46.260  30.017  0.00  0.00    +0.000 A 
ATOM     28  C   UNL     1       3.621  45.366  29.061  0.00  0.00    +0.000 A 
ATOM     29  F   UNL     1       4.942  45.199  28.913  0.00  0.00    +0.000 F 
ATOM     30  C   UNL     1       2.746  44.643  28.255  0.00  0.00    +0.000 A 
ATOM     31  C   UNL     1       1.374  44.815  28.407  0.00  0.00    +0.000 A 
ENDBRANCH  22  25
ENDBRANCH  21  22
ENDBRANCH  17  21
ENDBRANCH   2  17
TORSDOF 8
ENDMDL
MODEL 3
REMARK VINA RESULT:      -6.7      5.536      7.926
REMARK  Name = Bicalutamide.pdbqt.pdb
REMARK  8 active torsions:
REMARK  status: ('A' for Active; 'I' for Inactive)
REMARK    1  A    between atoms: C_2  and  N_13
REMARK    2  A    between atoms: C_5  and  C_9
REMARK    3  A    between atoms: C_6  and  C_8
REMARK    4  A    between atoms: C_14  and  C_17
REMARK    5  A    between atoms: C_17  and  O_19
REMARK    6  A    between atoms: C_17  and  C_21
REMARK    7  A    between atoms: C_21  and  S_22
REMARK    8  A    between atoms: S_22  and  C_25
REMARK                            x       y       z     vdW  Elec       q    Type
REMARK                         _______ _______ _______ _____ _____    ______ ____
ROOT
ATOM      1  N   UNL     1      -8.526  50.476  27.254  0.00  0.00    +0.000 N 
ATOM      2  C   UNL     1      -9.278  51.080  26.250  0.00  0.00    +0.000 C 
ATOM      3  O   UNL     1      -8.880  52.005  25.535  0.00  0.00    +0.000 OA
ATOM      4  H   UNL     1      -8.940  49.656  27.701  0.00  0.00    +0.000 HD
ENDROOT
BRANCH   1   5
ATOM      5  C   UNL     1      -7.228  50.840  27.646  0.00  0.00    +0.000 A 
ATOM      6  C   UNL     1      -6.166  50.073  27.169  0.00  0.00    +0.000 A 
ATOM      7  C   UNL     1      -6.965  51.914  28.491  0.00  0.00    +0.000 A 
ATOM      8  C   UNL     1      -4.843  50.365  27.520  0.00  0.00    +0.000 A 
ATOM      9  C   UNL     1      -4.592  51.452  28.371  0.00  0.00    +0.000 A 
ATOM     10  C   UNL     1      -5.655  52.219  28.851  0.00  0.00    +0.000 A 
BRANCH   8  11
ATOM     11  C   UNL     1      -3.738  49.507  26.977  0.00  0.00    +0.000 C 
ATOM     12  F   UNL     1      -2.738  50.224  26.392  0.00  0.00    +0.000 F 
ATOM     13  F   UNL     1      -3.141  48.760  27.943  0.00  0.00    +0.000 F 
ATOM     14  F   UNL     1      -4.174  48.636  26.029  0.00  0.00    +0.000 F 
ENDBRANCH   8  11
BRANCH   9  16
ATOM     15  N   UNL     1      -2.201  52.122  29.108  0.00  0.00    +0.000 NA
ATOM     16  C   UNL     1      -3.268  51.815  28.776  0.00  0.00    +0.000 C 
ENDBRANCH   9  16
ENDBRANCH   1   5
BRANCH   2  17
ATOM     17  C   UNL     1     -10.753  50.529  26.086  0.00  0.00    +0.000 C 
ATOM     18  C   UNL     1     -11.485  51.218  24.900  0.00  0.00    +0.000 C 
BRANCH  17  19
ATOM     19  O   UNL     1     -11.509  50.795  27.256  0.00  0.00    +0.000 OA
ATOM     20  H   UNL     1     -12.292  51.284  26.938  0.00  0.00    +0.000 HD
ENDBRANCH  17  19
BRANCH  17  21
ATOM     21  C   UNL     1     -10.679  49.114  25.892  0.00  0.00    +0.000 C 
BRANCH  21  22
ATOM     22  S   UNL     1     -10.379  47.441  25.595  0.00  0.00    +0.000 S 
ATOM     23  O   UNL     1     -10.462  47.478  24.157  0.00  0.00    +0.000 OA
ATOM     24  O   UNL     1     -11.394  46.929  26.483  0.00  0.00    +0.000 OA
BRANCH  22  25
ATOM     25  C   UNL     1      -8.784  47.042  26.139  0.00  0.00    +0.000 A 
ATOM     26  C   UNL     1      -7.837  46.683  25.186  0.00  0.00    +0.000 A 
ATOM     27  C   UNL     1      -6.554  46.336  25.601  0.00  0.00    +0.000 A 
ATOM     28  C   UNL     1      -6.248  46.350  26.959  0.00  0.00    +0.000 A 
ATOM     29  F   UNL     1      -5.013  46.015  27.358  0.00  0.00    +0.000 F 
ATOM     30  C   UNL     1      -7.201  46.703  27.910  0.00  0.00    +0.000 A 
ATOM     31  C   UNL     1      -8.483  47.050  27.498  0.00  0.00    +0.000 A 
ENDBRANCH  22  25
ENDBRANCH  21  22
ENDBRANCH  17  21
ENDBRANCH   2  17
TORSDOF 8
ENDMDL
MODEL 4
REMARK VINA RESULT:      -6.7      3.178      3.930
REMARK  Name = Bicalutamide.pdbqt.pdb
REMARK  8 active torsions:
REMARK  status: ('A' for Active; 'I' for Inactive)
REMARK    1  A    between atoms: C_2  and  N_13
REMARK    2  A    between atoms: C_5  and  C_9
REMARK    3  A    between atoms: C_6  and  C_8
REMARK    4  A    between atoms: C_14  and  C_17
REMARK    5  A    between atoms: C_17  and  O_19
REMARK    6  A    between atoms: C_17  and  C_21
REMARK    7  A    between atoms: C_21  and  S_22
REMARK    8  A    between atoms: S_22  and  C_25
REMARK                            x       y       z     vdW  Elec       q    Type
REMARK                         _______ _______ _______ _____ _____    ______ ____
ROOT
ATOM      1  N   UNL     1      -5.769  47.208  26.288  0.00  0.00    +0.000 N 
ATOM      2  C   UNL     1      -5.887  46.081  27.097  0.00  0.00    +0.000 C 
ATOM      3  O   UNL     1      -6.855  45.837  27.825  0.00  0.00    +0.000 OA
ATOM      4  H   UNL     1      -4.964  47.236  25.661  0.00  0.00    +0.000 HD
ENDROOT
BRANCH   1   5
ATOM      5  C   UNL     1      -6.695  48.260  26.199  0.00  0.00    +0.000 A 
ATOM      6  C   UNL     1      -7.822  48.069  25.401  0.00  0.00    +0.000 A 
ATOM      7  C   UNL     1      -6.526  49.475  26.857  0.00  0.00    +0.000 A 
ATOM      8  C   UNL     1      -8.787  49.072  25.253  0.00  0.00    +0.000 A 
ATOM      9  C   UNL     1      -8.605  50.291  25.924  0.00  0.00    +0.000 A 
ATOM     10  C   UNL     1      -7.476  50.484  26.721  0.00  0.00    +0.000 A 
BRANCH   8  11
ATOM     11  C   UNL     1      -9.981  48.813  24.382  0.00  0.00    +0.000 C 
ATOM     12  F   UNL     1     -11.148  48.737  25.080  0.00  0.00    +0.000 F 
ATOM     13  F   UNL     1     -10.167  49.790  23.455  0.00  0.00    +0.000 F 
ATOM     14  F   UNL     1      -9.881  47.643  23.698  0.00  0.00    +0.000 F 
ENDBRANCH   8  11
BRANCH   9  16
ATOM     15  N   UNL     1     -10.317  52.228  25.750  0.00  0.00    +0.000 NA
ATOM     16  C   UNL     1      -9.546  51.365  25.824  0.00  0.00    +0.000 C 
ENDBRANCH   9  16
ENDBRANCH   1   5
BRANCH   2  17
ATOM     17  C   UNL     1      -4.646  45.100  27.073  0.00  0.00    +0.000 C 
ATOM     18  C   UNL     1      -4.567  44.320  25.730  0.00  0.00    +0.000 C 
BRANCH  17  19
ATOM     19  O   UNL     1      -4.758  44.138  28.109  0.00  0.00    +0.000 OA
ATOM     20  H   UNL     1      -5.571  43.641  27.897  0.00  0.00    +0.000 HD
ENDBRANCH  17  19
BRANCH  17  21
ATOM     21  C   UNL     1      -3.463  45.875  27.286  0.00  0.00    +0.000 C 
BRANCH  21  22
ATOM     22  S   UNL     1      -1.946  46.691  27.378  0.00  0.00    +0.000 S 
ATOM     23  O   UNL     1      -1.498  46.429  26.033  0.00  0.00    +0.000 OA
ATOM     24  O   UNL     1      -1.471  46.026  28.567  0.00  0.00    +0.000 OA
BRANCH  22  25
ATOM     25  C   UNL     1      -2.221  48.379  27.649  0.00  0.00    +0.000 A 
ATOM     26  C   UNL     1      -3.007  48.749  28.736  0.00  0.00    +0.000 A 
ATOM     27  C   UNL     1      -3.261  50.098  28.961  0.00  0.00    +0.000 A 
ATOM     28  C   UNL     1      -2.730  51.049  28.094  0.00  0.00    +0.000 A 
ATOM     29  F   UNL     1      -2.975  52.348  28.312  0.00  0.00    +0.000 F 
ATOM     30  C   UNL     1      -1.949  50.674  27.004  0.00  0.00    +0.000 A 
ATOM     31  C   UNL     1      -1.694  49.326  26.776  0.00  0.00    +0.000 A 
ENDBRANCH  22  25
ENDBRANCH  21  22
ENDBRANCH  17  21
ENDBRANCH   2  17
TORSDOF 8
ENDMDL
MODEL 5
REMARK VINA RESULT:      -6.3     22.683     24.660
REMARK  Name = Bicalutamide.pdbqt.pdb
REMARK  8 active torsions:
REMARK  status: ('A' for Active; 'I' for Inactive)
REMARK    1  A    between atoms: C_2  and  N_13
REMARK    2  A    between atoms: C_5  and  C_9
REMARK    3  A    between atoms: C_6  and  C_8
REMARK    4  A    between atoms: C_14  and  C_17
REMARK    5  A    between atoms: C_17  and  O_19
REMARK    6  A    between atoms: C_17  and  C_21
REMARK    7  A    between atoms: C_21  and  S_22
REMARK    8  A    between atoms: S_22  and  C_25
REMARK                            x       y       z     vdW  Elec       q    Type
REMARK                         _______ _______ _______ _____ _____    ______ ____
ROOT
ATOM      1  N   UNL     1     -26.727  38.561  22.544  0.00  0.00    +0.000 N 
ATOM      2  C   UNL     1     -26.485  38.329  23.896  0.00  0.00    +0.000 C 
ATOM      3  O   UNL     1     -25.405  37.951  24.361  0.00  0.00    +0.000 OA
ATOM      4  H   UNL     1     -27.633  38.968  22.307  0.00  0.00    +0.000 HD
ENDROOT
BRANCH   1   5
ATOM      5  C   UNL     1     -25.812  38.366  21.497  0.00  0.00    +0.000 A 
ATOM      6  C   UNL     1     -25.751  37.101  20.914  0.00  0.00    +0.000 A 
ATOM      7  C   UNL     1     -24.967  39.370  21.033  0.00  0.00    +0.000 A 
ATOM      8  C   UNL     1     -24.860  36.823  19.871  0.00  0.00    +0.000 A 
ATOM      9  C   UNL     1     -24.015  37.845  19.412  0.00  0.00    +0.000 A 
ATOM     10  C   UNL     1     -24.074  39.111  19.996  0.00  0.00    +0.000 A 
BRANCH   8  11
ATOM     11  C   UNL     1     -24.835  35.444  19.280  0.00  0.00    +0.000 C 
ATOM     12  F   UNL     1     -25.675  34.575  19.909  0.00  0.00    +0.000 F 
ATOM     13  F   UNL     1     -25.205  35.436  17.972  0.00  0.00    +0.000 F 
ATOM     14  F   UNL     1     -23.602  34.876  19.338  0.00  0.00    +0.000 F 
ENDBRANCH   8  11
BRANCH   9  16
ATOM     15  N   UNL     1     -22.307  37.470  17.500  0.00  0.00    +0.000 NA
ATOM     16  C   UNL     1     -23.077  37.641  18.350  0.00  0.00    +0.000 C 
ENDBRANCH   9  16
ENDBRANCH   1   5
BRANCH   2  17
ATOM     17  C   UNL     1     -27.730  38.539  24.850  0.00  0.00    +0.000 C 
ATOM     18  C   UNL     1     -29.067  38.280  24.101  0.00  0.00    +0.000 C 
BRANCH  17  19
ATOM     19  O   UNL     1     -27.766  39.876  25.323  0.00  0.00    +0.000 OA
ATOM     20  H   UNL     1     -28.244  40.370  24.629  0.00  0.00    +0.000 HD
ENDBRANCH  17  19
BRANCH  17  21
ATOM     21  C   UNL     1     -27.587  37.656  25.967  0.00  0.00    +0.000 C 
BRANCH  21  22
ATOM     22  S   UNL     1     -27.431  36.425  27.165  0.00  0.00    +0.000 S 
ATOM     23  O   UNL     1     -28.736  36.563  27.762  0.00  0.00    +0.000 OA
ATOM     24  O   UNL     1     -26.193  36.900  27.732  0.00  0.00    +0.000 OA
BRANCH  22  25
ATOM     25  C   UNL     1     -27.238  34.891  26.385  0.00  0.00    +0.000 A 
ATOM     26  C   UNL     1     -27.220  33.749  27.179  0.00  0.00    +0.000 A 
ATOM     27  C   UNL     1     -27.043  32.507  26.577  0.00  0.00    +0.000 A 
ATOM     28  C   UNL     1     -26.881  32.432  25.196  0.00  0.00    +0.000 A 
ATOM     29  F   UNL     1     -26.710  31.236  24.618  0.00  0.00    +0.000 F 
ATOM     30  C   UNL     1     -26.892  33.579  24.406  0.00  0.00    +0.000 A 
ATOM     31  C   UNL     1     -27.069  34.821  25.005  0.00  0.00    +0.000 A 
ENDBRANCH  22  25
ENDBRANCH  21  22
ENDBRANCH  17  21
ENDBRANCH   2  17
TORSDOF 8
ENDMDL
MODEL 6
REMARK VINA RESULT:      -6.2      5.318      7.987
REMARK  Name = Bicalutamide.pdbqt.pdb
REMARK  8 active torsions:
REMARK  status: ('A' for Active; 'I' for Inactive)
REMARK    1  A    between atoms: C_2  and  N_13
REMARK    2  A    between atoms: C_5  and  C_9
REMARK    3  A    between atoms: C_6  and  C_8
REMARK    4  A    between atoms: C_14  and  C_17
REMARK    5  A    between atoms: C_17  and  O_19
REMARK    6  A    between atoms: C_17  and  C_21
REMARK    7  A    between atoms: C_21  and  S_22
REMARK    8  A    between atoms: S_22  and  C_25
REMARK                            x       y       z     vdW  Elec       q    Type
REMARK                         _______ _______ _______ _____ _____    ______ ____
ROOT
ATOM      1  N   UNL     1     -13.376  49.676  25.408  0.00  0.00    +0.000 N 
ATOM      2  C   UNL     1     -12.135  49.112  25.124  0.00  0.00    +0.000 C 
ATOM      3  O   UNL     1     -11.782  48.717  24.008  0.00  0.00    +0.000 OA
ATOM      4  H   UNL     1     -13.500  50.052  26.349  0.00  0.00    +0.000 HD
ENDROOT
BRANCH   1   5
ATOM      5  C   UNL     1     -14.432  49.848  24.499  0.00  0.00    +0.000 A 
ATOM      6  C   UNL     1     -14.227  50.706  23.419  0.00  0.00    +0.000 A 
ATOM      7  C   UNL     1     -15.662  49.214  24.639  0.00  0.00    +0.000 A 
ATOM      8  C   UNL     1     -15.233  50.938  22.473  0.00  0.00    +0.000 A 
ATOM      9  C   UNL     1     -16.468  50.290  22.626  0.00  0.00    +0.000 A 
ATOM     10  C   UNL     1     -16.675  49.433  23.708  0.00  0.00    +0.000 A 
BRANCH   8  11
ATOM     11  C   UNL     1     -14.959  51.870  21.330  0.00  0.00    +0.000 C 
ATOM     12  F   UNL     1     -15.050  51.268  20.112  0.00  0.00    +0.000 F 
ATOM     13  F   UNL     1     -15.829  52.913  21.294  0.00  0.00    +0.000 F 
ATOM     14  F   UNL     1     -13.712  52.407  21.386  0.00  0.00    +0.000 F 
ENDBRANCH   8  11
BRANCH   9  16
ATOM     15  N   UNL     1     -18.410  50.622  20.944  0.00  0.00    +0.000 NA
ATOM     16  C   UNL     1     -17.546  50.474  21.703  0.00  0.00    +0.000 C 
ENDBRANCH   9  16
ENDBRANCH   1   5
BRANCH   2  17
ATOM     17  C   UNL     1     -11.166  48.952  26.365  0.00  0.00    +0.000 C 
ATOM     18  C   UNL     1     -11.478  47.655  27.163  0.00  0.00    +0.000 C 
BRANCH  17  19
ATOM     19  O   UNL     1     -11.327  50.042  27.258  0.00  0.00    +0.000 OA
ATOM     20  H   UNL     1     -12.254  50.325  27.138  0.00  0.00    +0.000 HD
ENDBRANCH  17  19
BRANCH  17  21
ATOM     21  C   UNL     1      -9.820  48.945  25.880  0.00  0.00    +0.000 C 
BRANCH  21  22
ATOM     22  S   UNL     1      -8.204  49.159  25.316  0.00  0.00    +0.000 S 
ATOM     23  O   UNL     1      -7.861  50.301  26.126  0.00  0.00    +0.000 OA
ATOM     24  O   UNL     1      -8.521  49.191  23.909  0.00  0.00    +0.000 OA
BRANCH  22  25
ATOM     25  C   UNL     1      -7.265  47.765  25.735  0.00  0.00    +0.000 A 
ATOM     26  C   UNL     1      -7.675  47.002  26.823  0.00  0.00    +0.000 A 
ATOM     27  C   UNL     1      -6.923  45.890  27.193  0.00  0.00    +0.000 A 
ATOM     28  C   UNL     1      -5.777  45.568  26.471  0.00  0.00    +0.000 A 
ATOM     29  F   UNL     1      -5.054  44.498  26.828  0.00  0.00    +0.000 F 
ATOM     30  C   UNL     1      -5.367  46.340  25.387  0.00  0.00    +0.000 A 
ATOM     31  C   UNL     1      -6.116  47.451  25.016  0.00  0.00    +0.000 A 
ENDBRANCH  22  25
ENDBRANCH  21  22
ENDBRANCH  17  21
ENDBRANCH   2  17
TORSDOF 8
ENDMDL
MODEL 7
REMARK VINA RESULT:      -6.1     25.153     26.864
REMARK  Name = Bicalutamide.pdbqt.pdb
REMARK  8 active torsions:
REMARK  status: ('A' for Active; 'I' for Inactive)
REMARK    1  A    between atoms: C_2  and  N_13
REMARK    2  A    between atoms: C_5  and  C_9
REMARK    3  A    between atoms: C_6  and  C_8
REMARK    4  A    between atoms: C_14  and  C_17
REMARK    5  A    between atoms: C_17  and  O_19
REMARK    6  A    between atoms: C_17  and  C_21
REMARK    7  A    between atoms: C_21  and  S_22
REMARK    8  A    between atoms: S_22  and  C_25
REMARK                            x       y       z     vdW  Elec       q    Type
REMARK                         _______ _______ _______ _____ _____    ______ ____
ROOT
ATOM      1  N   UNL     1     -20.558  38.229   5.812  0.00  0.00    +0.000 N 
ATOM      2  C   UNL     1     -20.666  37.540   7.017  0.00  0.00    +0.000 C 
ATOM      3  O   UNL     1     -20.143  37.894   8.078  0.00  0.00    +0.000 OA
ATOM      4  H   UNL     1     -21.123  37.881   5.036  0.00  0.00    +0.000 HD
ENDROOT
BRANCH   1   5
ATOM      5  C   UNL     1     -19.814  39.400   5.594  0.00  0.00    +0.000 A 
ATOM      6  C   UNL     1     -18.452  39.368   5.891  0.00  0.00    +0.000 A 
ATOM      7  C   UNL     1     -20.378  40.577   5.113  0.00  0.00    +0.000 A 
ATOM      8  C   UNL     1     -17.642  40.496   5.711  0.00  0.00    +0.000 A 
ATOM      9  C   UNL     1     -18.224  41.676   5.223  0.00  0.00    +0.000 A 
ATOM     10  C   UNL     1     -19.588  41.709   4.928  0.00  0.00    +0.000 A 
BRANCH   8  11
ATOM     11  C   UNL     1     -16.182  40.407   6.046  0.00  0.00    +0.000 C 
ATOM     12  F   UNL     1     -15.860  39.289   6.754  0.00  0.00    +0.000 F 
ATOM     13  F   UNL     1     -15.398  40.382   4.936  0.00  0.00    +0.000 F 
ATOM     14  F   UNL     1     -15.757  41.457   6.797  0.00  0.00    +0.000 F 
ENDBRANCH   8  11
BRANCH   9  16
ATOM     15  N   UNL     1     -16.860  43.844   4.832  0.00  0.00    +0.000 NA
ATOM     16  C   UNL     1     -17.464  42.871   5.012  0.00  0.00    +0.000 C 
ENDBRANCH   9  16
ENDBRANCH   1   5
BRANCH   2  17
ATOM     17  C   UNL     1     -21.493  36.192   6.952  0.00  0.00    +0.000 C 
ATOM     18  C   UNL     1     -22.375  36.131   5.672  0.00  0.00    +0.000 C 
BRANCH  17  19
ATOM     19  O   UNL     1     -22.366  36.096   8.066  0.00  0.00    +0.000 OA
ATOM     20  H   UNL     1     -22.458  37.014   8.386  0.00  0.00    +0.000 HD
ENDBRANCH  17  19
BRANCH  17  21
ATOM     21  C   UNL     1     -20.569  35.101   6.991  0.00  0.00    +0.000 C 
BRANCH  21  22
ATOM     22  S   UNL     1     -19.294  33.941   7.063  0.00  0.00    +0.000 S 
ATOM     23  O   UNL     1     -19.902  32.927   6.239  0.00  0.00    +0.000 OA
ATOM     24  O   UNL     1     -19.187  33.901   8.502  0.00  0.00    +0.000 OA
BRANCH  22  25
ATOM     25  C   UNL     1     -17.875  34.605   6.328  0.00  0.00    +0.000 A 
ATOM     26  C   UNL     1     -17.453  35.866   6.738  0.00  0.00    +0.000 A 
ATOM     27  C   UNL     1     -16.328  36.432   6.145  0.00  0.00    +0.000 A 
ATOM     28  C   UNL     1     -15.651  35.728   5.153  0.00  0.00    +0.000 A 
ATOM     29  F   UNL     1     -14.568  36.273   4.583  0.00  0.00    +0.000 F 
ATOM     30  C   UNL     1     -16.081  34.469   4.741  0.00  0.00    +0.000 A 
ATOM     31  C   UNL     1     -17.205  33.902   5.332  0.00  0.00    +0.000 A 
ENDBRANCH  22  25
ENDBRANCH  21  22
ENDBRANCH  17  21
ENDBRANCH   2  17
TORSDOF 8
ENDMDL
MODEL 8
REMARK VINA RESULT:      -6.0      3.329      9.489
REMARK  Name = Bicalutamide.pdbqt.pdb
REMARK  8 active torsions:
REMARK  status: ('A' for Active; 'I' for Inactive)
REMARK    1  A    between atoms: C_2  and  N_13
REMARK    2  A    between atoms: C_5  and  C_9
REMARK    3  A    between atoms: C_6  and  C_8
REMARK    4  A    between atoms: C_14  and  C_17
REMARK    5  A    between atoms: C_17  and  O_19
REMARK    6  A    between atoms: C_17  and  C_21
REMARK    7  A    between atoms: C_21  and  S_22
REMARK    8  A    between atoms: S_22  and  C_25
REMARK                            x       y       z     vdW  Elec       q    Type
REMARK                         _______ _______ _______ _____ _____    ______ ____
ROOT
ATOM      1  N   UNL     1      -2.576  47.738  29.475  0.00  0.00    +0.000 N 
ATOM      2  C   UNL     1      -3.301  47.831  30.661  0.00  0.00    +0.000 C 
ATOM      3  O   UNL     1      -2.822  47.690  31.790  0.00  0.00    +0.000 OA
ATOM      4  H   UNL     1      -3.075  47.976  28.617  0.00  0.00    +0.000 HD
ENDROOT
BRANCH   1   5
ATOM      5  C   UNL     1      -1.211  47.430  29.365  0.00  0.00    +0.000 A 
ATOM      6  C   UNL     1      -0.816  46.120  29.636  0.00  0.00    +0.000 A 
ATOM      7  C   UNL     1      -0.248  48.371  29.014  0.00  0.00    +0.000 A 
ATOM      8  C   UNL     1       0.527  45.734  29.558  0.00  0.00    +0.000 A 
ATOM      9  C   UNL     1       1.487  46.693  29.201  0.00  0.00    +0.000 A 
ATOM     10  C   UNL     1       1.094  48.005  28.932  0.00  0.00    +0.000 A 
BRANCH   8  11
ATOM     11  C   UNL     1       0.897  44.311  29.859  0.00  0.00    +0.000 C 
ATOM     12  F   UNL     1       1.790  44.192  30.880  0.00  0.00    +0.000 F 
ATOM     13  F   UNL     1      -0.179  43.563  30.218  0.00  0.00    +0.000 F 
ATOM     14  F   UNL     1       1.466  43.686  28.795  0.00  0.00    +0.000 F 
ENDBRANCH   8  11
BRANCH   9  16
ATOM     15  N   UNL     1       4.011  46.137  29.012  0.00  0.00    +0.000 NA
ATOM     16  C   UNL     1       2.880  46.378  29.099  0.00  0.00    +0.000 C 
ENDBRANCH   9  16
ENDBRANCH   1   5
BRANCH   2  17
ATOM     17  C   UNL     1      -4.852  48.096  30.484  0.00  0.00    +0.000 C 
ATOM     18  C   UNL     1      -5.139  49.596  30.192  0.00  0.00    +0.000 C 
BRANCH  17  19
ATOM     19  O   UNL     1      -5.546  47.761  31.674  0.00  0.00    +0.000 OA
ATOM     20  H   UNL     1      -5.919  48.606  31.990  0.00  0.00    +0.000 HD
ENDBRANCH  17  19
BRANCH  17  21
ATOM     21  C   UNL     1      -5.326  47.266  29.420  0.00  0.00    +0.000 C 
BRANCH  21  22
ATOM     22  S   UNL     1      -5.718  46.334  28.023  0.00  0.00    +0.000 S 
ATOM     23  O   UNL     1      -6.717  45.487  28.624  0.00  0.00    +0.000 OA
ATOM     24  O   UNL     1      -4.368  45.942  27.699  0.00  0.00    +0.000 OA
BRANCH  22  25
ATOM     25  C   UNL     1      -6.395  47.374  26.815  0.00  0.00    +0.000 A 
ATOM     26  C   UNL     1      -5.951  47.233  25.505  0.00  0.00    +0.000 A 
ATOM     27  C   UNL     1      -6.463  48.073  24.520  0.00  0.00    +0.000 A 
ATOM     28  C   UNL     1      -7.404  49.039  24.867  0.00  0.00    +0.000 A 
ATOM     29  F   UNL     1      -7.897  49.848  23.919  0.00  0.00    +0.000 F 
ATOM     30  C   UNL     1      -7.841  49.181  26.181  0.00  0.00    +0.000 A 
ATOM     31  C   UNL     1      -7.330  48.343  27.167  0.00  0.00    +0.000 A 
ENDBRANCH  22  25
ENDBRANCH  21  22
ENDBRANCH  17  21
ENDBRANCH   2  17
TORSDOF 8
ENDMDL
MODEL 9
REMARK VINA RESULT:      -6.0      4.255      9.227
REMARK  Name = Bicalutamide.pdbqt.pdb
REMARK  8 active torsions:
REMARK  status: ('A' for Active; 'I' for Inactive)
REMARK    1  A    between atoms: C_2  and  N_13
REMARK    2  A    between atoms: C_5  and  C_9
REMARK    3  A    between atoms: C_6  and  C_8
REMARK    4  A    between atoms: C_14  and  C_17
REMARK    5  A    between atoms: C_17  and  O_19
REMARK    6  A    between atoms: C_17  and  C_21
REMARK    7  A    between atoms: C_21  and  S_22
REMARK    8  A    between atoms: S_22  and  C_25
REMARK                            x       y       z     vdW  Elec       q    Type
REMARK                         _______ _______ _______ _____ _____    ______ ____
ROOT
ATOM      1  N   UNL     1      -2.138  48.221  27.958  0.00  0.00    +0.000 N 
ATOM      2  C   UNL     1      -2.119  46.988  27.312  0.00  0.00    +0.000 C 
ATOM      3  O   UNL     1      -1.254  46.632  26.504  0.00  0.00    +0.000 OA
ATOM      4  H   UNL     1      -2.853  48.347  28.676  0.00  0.00    +0.000 HD
ENDROOT
BRANCH   1   5
ATOM      5  C   UNL     1      -1.219  49.266  27.771  0.00  0.00    +0.000 A 
ATOM      6  C   UNL     1      -0.005  49.193  28.453  0.00  0.00    +0.000 A 
ATOM      7  C   UNL     1      -1.474  50.362  26.953  0.00  0.00    +0.000 A 
ATOM      8  C   UNL     1       0.961  50.198  28.328  0.00  0.00    +0.000 A 
ATOM      9  C   UNL     1       0.692  51.296  27.498  0.00  0.00    +0.000 A 
ATOM     10  C   UNL     1      -0.524  51.371  26.816  0.00  0.00    +0.000 A 
BRANCH   8  11
ATOM     11  C   UNL     1       2.251  50.069  29.084  0.00  0.00    +0.000 C 
ATOM     12  F   UNL     1       3.332  49.881  28.276  0.00  0.00    +0.000 F 
ATOM     13  F   UNL     1       2.530  51.174  29.824  0.00  0.00    +0.000 F 
ATOM     14  F   UNL     1       2.245  49.018  29.945  0.00  0.00    +0.000 F 
ENDBRANCH   8  11
BRANCH   9  16
ATOM     15  N   UNL     1       2.396  53.220  27.167  0.00  0.00    +0.000 NA
ATOM     16  C   UNL     1       1.628  52.364  27.316  0.00  0.00    +0.000 C 
ENDBRANCH   9  16
ENDBRANCH   1   5
BRANCH   2  17
ATOM     17  C   UNL     1      -3.338  46.034  27.641  0.00  0.00    +0.000 C 
ATOM     18  C   UNL     1      -2.977  45.025  28.768  0.00  0.00    +0.000 C 
BRANCH  17  19
ATOM     19  O   UNL     1      -3.691  45.274  26.497  0.00  0.00    +0.000 OA
ATOM     20  H   UNL     1      -4.443  45.757  26.103  0.00  0.00    +0.000 HD
ENDBRANCH  17  19
BRANCH  17  21
ATOM     21  C   UNL     1      -4.451  46.850  28.019  0.00  0.00    +0.000 C 
BRANCH  21  22
ATOM     22  S   UNL     1      -5.897  47.747  28.297  0.00  0.00    +0.000 S 
ATOM     23  O   UNL     1      -5.288  49.012  28.620  0.00  0.00    +0.000 OA
ATOM     24  O   UNL     1      -6.483  46.829  29.244  0.00  0.00    +0.000 OA
BRANCH  22  25
ATOM     25  C   UNL     1      -6.810  47.826  26.828  0.00  0.00    +0.000 A 
ATOM     26  C   UNL     1      -7.889  46.961  26.679  0.00  0.00    +0.000 A 
ATOM     27  C   UNL     1      -8.625  46.990  25.497  0.00  0.00    +0.000 A 
ATOM     28  C   UNL     1      -8.263  47.879  24.489  0.00  0.00    +0.000 A 
ATOM     29  F   UNL     1      -8.972  47.907  23.351  0.00  0.00    +0.000 F 
ATOM     30  C   UNL     1      -7.178  48.739  24.640  0.00  0.00    +0.000 A 
ATOM     31  C   UNL     1      -6.442  48.711  25.819  0.00  0.00    +0.000 A 
ENDBRANCH  22  25
ENDBRANCH  21  22
ENDBRANCH  17  21
ENDBRANCH   2  17
TORSDOF 8
ENDMDL
