MODEL 1
REMARK VINA RESULT:      -6.2      0.000      0.000
REMARK  Name = Bisphenol_A.pdbqt.pdb
REMARK  4 active torsions:
REMARK  status: ('A' for Active; 'I' for Inactive)
REMARK    1  A    between atoms: C_1  and  C_4
REMARK    2  A    between atoms: C_1  and  C_12
REMARK    3  A    between atoms: C_7  and  O_10
REMARK    4  A    between atoms: C_15  and  O_18
REMARK                            x       y       z     vdW  Elec       q    Type
REMARK                         _______ _______ _______ _____ _____    ______ ____
ROOT
ATOM      1  C   UNL     1      -5.039  45.869  26.143  0.00  0.00    +0.000 C 
ATOM      2  C   UNL     1      -4.383  44.902  25.095  0.00  0.00    +0.000 C 
ATOM      3  C   UNL     1      -5.726  44.992  27.251  0.00  0.00    +0.000 C 
ENDROOT
BRANCH   1   4
ATOM      4  C   UNL     1      -3.908  46.732  26.722  0.00  0.00    +0.000 A 
ATOM      5  C   UNL     1      -2.594  46.582  26.240  0.00  0.00    +0.000 A 
ATOM      6  C   UNL     1      -1.541  47.336  26.754  0.00  0.00    +0.000 A 
ATOM      7  C   UNL     1      -1.793  48.252  27.769  0.00  0.00    +0.000 A 
ATOM      8  C   UNL     1      -3.077  48.420  28.274  0.00  0.00    +0.000 A 
ATOM      9  C   UNL     1      -4.121  47.658  27.753  0.00  0.00    +0.000 A 
BRANCH   7  10
ATOM     10  O   UNL     1      -0.787  49.008  28.292  0.00  0.00    +0.000 OA
ATOM     11  H   UNL     1      -1.117  49.454  29.091  0.00  0.00    +0.000 HD
ENDBRANCH   7  10
ENDBRANCH   1   4
BRANCH   1  12
ATOM     12  C   UNL     1      -6.141  46.731  25.513  0.00  0.00    +0.000 A 
ATOM     13  C   UNL     1      -7.493  46.377  25.679  0.00  0.00    +0.000 A 
ATOM     14  C   UNL     1      -8.517  47.127  25.106  0.00  0.00    +0.000 A 
ATOM     15  C   UNL     1      -8.196  48.248  24.349  0.00  0.00    +0.000 A 
ATOM     16  C   UNL     1      -6.872  48.623  24.159  0.00  0.00    +0.000 A 
ATOM     17  C   UNL     1      -5.857  47.863  24.734  0.00  0.00    +0.000 A 
BRANCH  15  18
ATOM     18  O   UNL     1      -9.174  49.008  23.779  0.00  0.00    +0.000 OA
ATOM     19  H   UNL     1      -9.978  48.939  24.324  0.00  0.00    +0.000 HD
ENDBRANCH  15  18
ENDBRANCH   1  12
TORSDOF 4
ENDMDL
MODEL 2
REMARK VINA RESULT:      -6.2      0.102      5.617
REMARK  Name = Bisphenol_A.pdbqt.pdb
REMARK  4 active torsions:
REMARK  status: ('A' for Active; 'I' for Inactive)
REMARK    1  A    between atoms: C_1  and  C_4
REMARK    2  A    between atoms: C_1  and  C_12
REMARK    3  A    between atoms: C_7  and  O_10
REMARK    4  A    between atoms: C_15  and  O_18
REMARK                            x       y       z     vdW  Elec       q    Type
REMARK                         _______ _______ _______ _____ _____    ______ ____
ROOT
ATOM      1  C   UNL     1      -5.076  45.852  26.076  0.00  0.00    +0.000 C 
ATOM      2  C   UNL     1      -5.750  44.985  27.198  0.00  0.00    +0.000 C 
ATOM      3  C   UNL     1      -4.427  44.876  25.031  0.00  0.00    +0.000 C 
ENDROOT
BRANCH   1   4
ATOM      4  C   UNL     1      -6.188  46.704  25.444  0.00  0.00    +0.000 A 
ATOM      5  C   UNL     1      -5.854  47.835  24.677  0.00  0.00    +0.000 A 
ATOM      6  C   UNL     1      -6.837  48.640  24.105  0.00  0.00    +0.000 A 
ATOM      7  C   UNL     1      -8.175  48.322  24.302  0.00  0.00    +0.000 A 
ATOM      8  C   UNL     1      -8.541  47.217  25.060  0.00  0.00    +0.000 A 
ATOM      9  C   UNL     1      -7.549  46.421  25.629  0.00  0.00    +0.000 A 
BRANCH   7  10
ATOM     10  O   UNL     1      -9.162  49.086  23.752  0.00  0.00    +0.000 OA
ATOM     11  H   UNL     1      -8.752  49.841  23.296  0.00  0.00    +0.000 HD
ENDBRANCH   7  10
ENDBRANCH   1   4
BRANCH   1  12
ATOM     12  C   UNL     1      -3.943  46.725  26.633  0.00  0.00    +0.000 A 
ATOM     13  C   UNL     1      -2.624  46.540  26.178  0.00  0.00    +0.000 A 
ATOM     14  C   UNL     1      -1.570  47.302  26.674  0.00  0.00    +0.000 A 
ATOM     15  C   UNL     1      -1.825  48.264  27.644  0.00  0.00    +0.000 A 
ATOM     16  C   UNL     1      -3.114  48.470  28.121  0.00  0.00    +0.000 A 
ATOM     17  C   UNL     1      -4.160  47.699  27.619  0.00  0.00    +0.000 A 
BRANCH  15  18
ATOM     18  O   UNL     1      -0.817  49.033  28.147  0.00  0.00    +0.000 OA
ATOM     19  H   UNL     1      -1.195  49.651  28.797  0.00  0.00    +0.000 HD
ENDBRANCH  15  18
ENDBRANCH   1  12
TORSDOF 4
ENDMDL
MODEL 3
REMARK VINA RESULT:      -5.4     23.774     25.363
REMARK  Name = Bisphenol_A.pdbqt.pdb
REMARK  4 active torsions:
REMARK  status: ('A' for Active; 'I' for Inactive)
REMARK    1  A    between atoms: C_1  and  C_4
REMARK    2  A    between atoms: C_1  and  C_12
REMARK    3  A    between atoms: C_7  and  O_10
REMARK    4  A    between atoms: C_15  and  O_18
REMARK                            x       y       z     vdW  Elec       q    Type
REMARK                         _______ _______ _______ _____ _____    ______ ____
ROOT
ATOM      1  C   UNL     1     -16.024  38.321   5.145  0.00  0.00    +0.000 C 
ATOM      2  C   UNL     1     -15.841  37.791   3.679  0.00  0.00    +0.000 C 
ATOM      3  C   UNL     1     -14.810  37.813   6.001  0.00  0.00    +0.000 C 
ENDROOT
BRANCH   1   4
ATOM      4  C   UNL     1     -16.059  39.855   5.062  0.00  0.00    +0.000 A 
ATOM      5  C   UNL     1     -14.952  40.606   5.497  0.00  0.00    +0.000 A 
ATOM      6  C   UNL     1     -14.957  41.999   5.453  0.00  0.00    +0.000 A 
ATOM      7  C   UNL     1     -16.082  42.659   4.975  0.00  0.00    +0.000 A 
ATOM      8  C   UNL     1     -17.196  41.949   4.545  0.00  0.00    +0.000 A 
ATOM      9  C   UNL     1     -17.180  40.556   4.597  0.00  0.00    +0.000 A 
BRANCH   7  10
ATOM     10  O   UNL     1     -16.119  44.021   4.914  0.00  0.00    +0.000 OA
ATOM     11  H   UNL     1     -15.525  44.316   4.203  0.00  0.00    +0.000 HD
ENDBRANCH   7  10
ENDBRANCH   1   4
BRANCH   1  12
ATOM     12  C   UNL     1     -17.295  37.762   5.800  0.00  0.00    +0.000 A 
ATOM     13  C   UNL     1     -17.449  37.819   7.197  0.00  0.00    +0.000 A 
ATOM     14  C   UNL     1     -18.581  37.305   7.825  0.00  0.00    +0.000 A 
ATOM     15  C   UNL     1     -19.578  36.719   7.055  0.00  0.00    +0.000 A 
ATOM     16  C   UNL     1     -19.456  36.640   5.673  0.00  0.00    +0.000 A 
ATOM     17  C   UNL     1     -18.318  37.154   5.057  0.00  0.00    +0.000 A 
BRANCH  15  18
ATOM     18  O   UNL     1     -20.702  36.212   7.637  0.00  0.00    +0.000 OA
ATOM     19  H   UNL     1     -20.905  36.738   8.430  0.00  0.00    +0.000 HD
ENDBRANCH  15  18
ENDBRANCH   1  12
TORSDOF 4
ENDMDL
MODEL 4
REMARK VINA RESULT:      -5.1     21.915     24.030
REMARK  Name = Bisphenol_A.pdbqt.pdb
REMARK  4 active torsions:
REMARK  status: ('A' for Active; 'I' for Inactive)
REMARK    1  A    between atoms: C_1  and  C_4
REMARK    2  A    between atoms: C_1  and  C_12
REMARK    3  A    between atoms: C_7  and  O_10
REMARK    4  A    between atoms: C_15  and  O_18
REMARK                            x       y       z     vdW  Elec       q    Type
REMARK                         _______ _______ _______ _____ _____    ______ ____
ROOT
ATOM      1  C   UNL     1     -24.195  37.332  18.843  0.00  0.00    +0.000 C 
ATOM      2  C   UNL     1     -24.390  38.303  17.625  0.00  0.00    +0.000 C 
ATOM      3  C   UNL     1     -22.657  37.067  19.013  0.00  0.00    +0.000 C 
ENDROOT
BRANCH   1   4
ATOM      4  C   UNL     1     -24.790  38.036  20.072  0.00  0.00    +0.000 A 
ATOM      5  C   UNL     1     -25.780  37.394  20.838  0.00  0.00    +0.000 A 
ATOM      6  C   UNL     1     -26.354  38.011  21.948  0.00  0.00    +0.000 A 
ATOM      7  C   UNL     1     -25.943  39.290  22.302  0.00  0.00    +0.000 A 
ATOM      8  C   UNL     1     -24.974  39.957  21.564  0.00  0.00    +0.000 A 
ATOM      9  C   UNL     1     -24.409  39.331  20.455  0.00  0.00    +0.000 A 
BRANCH   7  10
ATOM     10  O   UNL     1     -26.481  39.921  23.385  0.00  0.00    +0.000 OA
ATOM     11  H   UNL     1     -27.126  39.324  23.803  0.00  0.00    +0.000 HD
ENDBRANCH   7  10
ENDBRANCH   1   4
BRANCH   1  12
ATOM     12  C   UNL     1     -24.857  35.969  18.598  0.00  0.00    +0.000 A 
ATOM     13  C   UNL     1     -24.316  34.809  19.183  0.00  0.00    +0.000 A 
ATOM     14  C   UNL     1     -24.881  33.555  18.968  0.00  0.00    +0.000 A 
ATOM     15  C   UNL     1     -26.001  33.445  18.153  0.00  0.00    +0.000 A 
ATOM     16  C   UNL     1     -26.558  34.568  17.554  0.00  0.00    +0.000 A 
ATOM     17  C   UNL     1     -25.982  35.817  17.774  0.00  0.00    +0.000 A 
BRANCH  15  18
ATOM     18  O   UNL     1     -26.583  32.233  17.925  0.00  0.00    +0.000 OA
ATOM     19  H   UNL     1     -27.177  32.314  17.158  0.00  0.00    +0.000 HD
ENDBRANCH  15  18
ENDBRANCH   1  12
TORSDOF 4
ENDMDL
MODEL 5
REMARK VINA RESULT:      -5.1     18.862     22.737
REMARK  Name = Bisphenol_A.pdbqt.pdb
REMARK  4 active torsions:
REMARK  status: ('A' for Active; 'I' for Inactive)
REMARK    1  A    between atoms: C_1  and  C_4
REMARK    2  A    between atoms: C_1  and  C_12
REMARK    3  A    between atoms: C_7  and  O_10
REMARK    4  A    between atoms: C_15  and  O_18
REMARK                            x       y       z     vdW  Elec       q    Type
REMARK                         _______ _______ _______ _____ _____    ______ ____
ROOT
ATOM      1  C   UNL     1     -16.394  54.183   8.327  0.00  0.00    +0.000 C 
ATOM      2  C   UNL     1     -15.008  54.599   7.718  0.00  0.00    +0.000 C 
ATOM      3  C   UNL     1     -17.125  55.486   8.809  0.00  0.00    +0.000 C 
ENDROOT
BRANCH   1   4
ATOM      4  C   UNL     1     -17.174  53.472   7.211  0.00  0.00    +0.000 A 
ATOM      5  C   UNL     1     -16.588  53.300   5.944  0.00  0.00    +0.000 A 
ATOM      6  C   UNL     1     -17.273  52.676   4.904  0.00  0.00    +0.000 A 
ATOM      7  C   UNL     1     -18.567  52.219   5.122  0.00  0.00    +0.000 A 
ATOM      8  C   UNL     1     -19.180  52.379   6.358  0.00  0.00    +0.000 A 
ATOM      9  C   UNL     1     -18.485  53.007   7.389  0.00  0.00    +0.000 A 
BRANCH   7  10
ATOM     10  O   UNL     1     -19.265  51.600   4.127  0.00  0.00    +0.000 OA
ATOM     11  H   UNL     1     -19.273  50.643   4.303  0.00  0.00    +0.000 HD
ENDBRANCH   7  10
ENDBRANCH   1   4
BRANCH   1  12
ATOM     12  C   UNL     1     -16.228  53.284   9.561  0.00  0.00    +0.000 A 
ATOM     13  C   UNL     1     -16.744  53.695  10.804  0.00  0.00    +0.000 A 
ATOM     14  C   UNL     1     -16.596  52.913  11.946  0.00  0.00    +0.000 A 
ATOM     15  C   UNL     1     -15.921  51.701  11.857  0.00  0.00    +0.000 A 
ATOM     16  C   UNL     1     -15.393  51.267  10.648  0.00  0.00    +0.000 A 
ATOM     17  C   UNL     1     -15.544  52.060   9.512  0.00  0.00    +0.000 A 
BRANCH  15  18
ATOM     18  O   UNL     1     -15.763  50.908  12.955  0.00  0.00    +0.000 OA
ATOM     19  H   UNL     1     -16.397  51.192  13.637  0.00  0.00    +0.000 HD
ENDBRANCH  15  18
ENDBRANCH   1  12
TORSDOF 4
ENDMDL
MODEL 6
REMARK VINA RESULT:      -5.1     21.011     23.068
REMARK  Name = Bisphenol_A.pdbqt.pdb
REMARK  4 active torsions:
REMARK  status: ('A' for Active; 'I' for Inactive)
REMARK    1  A    between atoms: C_1  and  C_4
REMARK    2  A    between atoms: C_1  and  C_12
REMARK    3  A    between atoms: C_7  and  O_10
REMARK    4  A    between atoms: C_15  and  O_18
REMARK                            x       y       z     vdW  Elec       q    Type
REMARK                         _______ _______ _______ _____ _____    ______ ____
ROOT
ATOM      1  C   UNL     1     -24.897  39.876  20.492  0.00  0.00    +0.000 C 
ATOM      2  C   UNL     1     -23.625  40.450  21.210  0.00  0.00    +0.000 C 
ATOM      3  C   UNL     1     -26.089  39.904  21.514  0.00  0.00    +0.000 C 
ENDROOT
BRANCH   1   4
ATOM      4  C   UNL     1     -25.168  40.777  19.278  0.00  0.00    +0.000 A 
ATOM      5  C   UNL     1     -24.541  42.033  19.182  0.00  0.00    +0.000 A 
ATOM      6  C   UNL     1     -24.777  42.884  18.104  0.00  0.00    +0.000 A 
ATOM      7  C   UNL     1     -25.656  42.485  17.105  0.00  0.00    +0.000 A 
ATOM      8  C   UNL     1     -26.299  41.255  17.170  0.00  0.00    +0.000 A 
ATOM      9  C   UNL     1     -26.056  40.414  18.255  0.00  0.00    +0.000 A 
BRANCH   7  10
ATOM     10  O   UNL     1     -25.907  43.291  16.034  0.00  0.00    +0.000 OA
ATOM     11  H   UNL     1     -26.249  44.141  16.359  0.00  0.00    +0.000 HD
ENDBRANCH   7  10
ENDBRANCH   1   4
BRANCH   1  12
ATOM     12  C   UNL     1     -24.705  38.411  20.075  0.00  0.00    +0.000 A 
ATOM     13  C   UNL     1     -25.702  37.461  20.362  0.00  0.00    +0.000 A 
ATOM     14  C   UNL     1     -25.552  36.121  20.014  0.00  0.00    +0.000 A 
ATOM     15  C   UNL     1     -24.389  35.712  19.373  0.00  0.00    +0.000 A 
ATOM     16  C   UNL     1     -23.381  36.621  19.079  0.00  0.00    +0.000 A 
ATOM     17  C   UNL     1     -23.541  37.958  19.435  0.00  0.00    +0.000 A 
BRANCH  15  18
ATOM     18  O   UNL     1     -24.212  34.409  19.012  0.00  0.00    +0.000 OA
ATOM     19  H   UNL     1     -24.961  33.889  19.353  0.00  0.00    +0.000 HD
ENDBRANCH  15  18
ENDBRANCH   1  12
TORSDOF 4
ENDMDL
MODEL 7
REMARK VINA RESULT:      -5.1     18.877     22.277
REMARK  Name = Bisphenol_A.pdbqt.pdb
REMARK  4 active torsions:
REMARK  status: ('A' for Active; 'I' for Inactive)
REMARK    1  A    between atoms: C_1  and  C_4
REMARK    2  A    between atoms: C_1  and  C_12
REMARK    3  A    between atoms: C_7  and  O_10
REMARK    4  A    between atoms: C_15  and  O_18
REMARK                            x       y       z     vdW  Elec       q    Type
REMARK                         _______ _______ _______ _____ _____    ______ ____
ROOT
ATOM      1  C   UNL     1     -16.384  54.267   8.311  0.00  0.00    +0.000 C 
ATOM      2  C   UNL     1     -17.122  55.572   8.775  0.00  0.00    +0.000 C 
ATOM      3  C   UNL     1     -15.002  54.683   7.692  0.00  0.00    +0.000 C 
ENDROOT
BRANCH   1   4
ATOM      4  C   UNL     1     -16.207  53.388   9.558  0.00  0.00    +0.000 A 
ATOM      5  C   UNL     1     -15.549  52.149   9.456  0.00  0.00    +0.000 A 
ATOM      6  C   UNL     1     -15.388  51.318  10.563  0.00  0.00    +0.000 A 
ATOM      7  C   UNL     1     -15.892  51.721  11.793  0.00  0.00    +0.000 A 
ATOM      8  C   UNL     1     -16.555  52.935  11.929  0.00  0.00    +0.000 A 
ATOM      9  C   UNL     1     -16.712  53.755  10.814  0.00  0.00    +0.000 A 
BRANCH   7  10
ATOM     10  O   UNL     1     -15.748  50.935  12.898  0.00  0.00    +0.000 OA
ATOM     11  H   UNL     1     -15.730  50.004  12.616  0.00  0.00    +0.000 HD
ENDBRANCH   7  10
ENDBRANCH   1   4
BRANCH   1  12
ATOM     12  C   UNL     1     -17.161  53.533   7.208  0.00  0.00    +0.000 A 
ATOM     13  C   UNL     1     -16.567  53.322   5.950  0.00  0.00    +0.000 A 
ATOM     14  C   UNL     1     -17.250  52.676   4.923  0.00  0.00    +0.000 A 
ATOM     15  C   UNL     1     -18.549  52.233   5.144  0.00  0.00    +0.000 A 
ATOM     16  C   UNL     1     -19.169  52.430   6.372  0.00  0.00    +0.000 A 
ATOM     17  C   UNL     1     -18.477  53.081   7.391  0.00  0.00    +0.000 A 
BRANCH  15  18
ATOM     18  O   UNL     1     -19.244  51.592   4.162  0.00  0.00    +0.000 OA
ATOM     19  H   UNL     1     -19.175  52.112   3.343  0.00  0.00    +0.000 HD
ENDBRANCH  15  18
ENDBRANCH   1  12
TORSDOF 4
ENDMDL
MODEL 8
REMARK VINA RESULT:      -4.9     19.030     22.484
REMARK  Name = Bisphenol_A.pdbqt.pdb
REMARK  4 active torsions:
REMARK  status: ('A' for Active; 'I' for Inactive)
REMARK    1  A    between atoms: C_1  and  C_4
REMARK    2  A    between atoms: C_1  and  C_12
REMARK    3  A    between atoms: C_7  and  O_10
REMARK    4  A    between atoms: C_15  and  O_18
REMARK                            x       y       z     vdW  Elec       q    Type
REMARK                         _______ _______ _______ _____ _____    ______ ____
ROOT
ATOM      1  C   UNL     1     -18.560  53.147   8.525  0.00  0.00    +0.000 C 
ATOM      2  C   UNL     1     -19.800  53.933   9.082  0.00  0.00    +0.000 C 
ATOM      3  C   UNL     1     -17.682  54.149   7.694  0.00  0.00    +0.000 C 
ENDROOT
BRANCH   1   4
ATOM      4  C   UNL     1     -17.799  52.597   9.741  0.00  0.00    +0.000 A 
ATOM      5  C   UNL     1     -16.451  52.218   9.613  0.00  0.00    +0.000 A 
ATOM      6  C   UNL     1     -15.736  51.698  10.690  0.00  0.00    +0.000 A 
ATOM      7  C   UNL     1     -16.371  51.546  11.916  0.00  0.00    +0.000 A 
ATOM      8  C   UNL     1     -17.704  51.904  12.077  0.00  0.00    +0.000 A 
ATOM      9  C   UNL     1     -18.409  52.420  10.992  0.00  0.00    +0.000 A 
BRANCH   7  10
ATOM     10  O   UNL     1     -15.700  51.045  12.993  0.00  0.00    +0.000 OA
ATOM     11  H   UNL     1     -16.310  51.012  13.750  0.00  0.00    +0.000 HD
ENDBRANCH   7  10
ENDBRANCH   1   4
BRANCH   1  12
ATOM     12  C   UNL     1     -18.980  52.024   7.566  0.00  0.00    +0.000 A 
ATOM     13  C   UNL     1     -19.425  50.792   8.079  0.00  0.00    +0.000 A 
ATOM     14  C   UNL     1     -19.796  49.746   7.238  0.00  0.00    +0.000 A 
ATOM     15  C   UNL     1     -19.721  49.922   5.861  0.00  0.00    +0.000 A 
ATOM     16  C   UNL     1     -19.280  51.123   5.320  0.00  0.00    +0.000 A 
ATOM     17  C   UNL     1     -18.908  52.161   6.172  0.00  0.00    +0.000 A 
BRANCH  15  18
ATOM     18  O   UNL     1     -20.083  48.921   5.009  0.00  0.00    +0.000 OA
ATOM     19  H   UNL     1     -21.004  49.068   4.731  0.00  0.00    +0.000 HD
ENDBRANCH  15  18
ENDBRANCH   1  12
TORSDOF 4
ENDMDL
MODEL 9
REMARK VINA RESULT:      -4.8     21.963     24.265
REMARK  Name = Bisphenol_A.pdbqt.pdb
REMARK  4 active torsions:
REMARK  status: ('A' for Active; 'I' for Inactive)
REMARK    1  A    between atoms: C_1  and  C_4
REMARK    2  A    between atoms: C_1  and  C_12
REMARK    3  A    between atoms: C_7  and  O_10
REMARK    4  A    between atoms: C_15  and  O_18
REMARK                            x       y       z     vdW  Elec       q    Type
REMARK                         _______ _______ _______ _____ _____    ______ ____
ROOT
ATOM      1  C   UNL     1     -27.026  36.555  20.789  0.00  0.00    +0.000 C 
ATOM      2  C   UNL     1     -27.812  37.882  20.498  0.00  0.00    +0.000 C 
ATOM      3  C   UNL     1     -27.810  35.368  20.124  0.00  0.00    +0.000 C 
ENDROOT
BRANCH   1   4
ATOM      4  C   UNL     1     -25.626  36.725  20.180  0.00  0.00    +0.000 A 
ATOM      5  C   UNL     1     -25.028  37.997  20.138  0.00  0.00    +0.000 A 
ATOM      6  C   UNL     1     -23.768  38.190  19.577  0.00  0.00    +0.000 A 
ATOM      7  C   UNL     1     -23.089  37.103  19.041  0.00  0.00    +0.000 A 
ATOM      8  C   UNL     1     -23.653  35.833  19.058  0.00  0.00    +0.000 A 
ATOM      9  C   UNL     1     -24.915  35.653  19.620  0.00  0.00    +0.000 A 
BRANCH   7  10
ATOM     10  O   UNL     1     -21.852  37.255  18.488  0.00  0.00    +0.000 OA
ATOM     11  H   UNL     1     -21.590  38.189  18.567  0.00  0.00    +0.000 HD
ENDBRANCH   7  10
ENDBRANCH   1   4
BRANCH   1  12
ATOM     12  C   UNL     1     -26.954  36.252  22.293  0.00  0.00    +0.000 A 
ATOM     13  C   UNL     1     -26.640  37.278  23.202  0.00  0.00    +0.000 A 
ATOM     14  C   UNL     1     -26.549  37.034  24.570  0.00  0.00    +0.000 A 
ATOM     15  C   UNL     1     -26.770  35.748  25.047  0.00  0.00    +0.000 A 
ATOM     16  C   UNL     1     -27.077  34.709  24.177  0.00  0.00    +0.000 A 
ATOM     17  C   UNL     1     -27.161  34.965  22.810  0.00  0.00    +0.000 A 
BRANCH  15  18
ATOM     18  O   UNL     1     -26.696  35.476  26.381  0.00  0.00    +0.000 OA
ATOM     19  H   UNL     1     -27.271  36.099  26.858  0.00  0.00    +0.000 HD
ENDBRANCH  15  18
ENDBRANCH   1  12
TORSDOF 4
ENDMDL
