MODEL 1
REMARK VINA RESULT:      -6.0      0.000      0.000
REMARK  Name = BX795.pdbqt.pdb
REMARK  7 active torsions:
REMARK  status: ('A' for Active; 'I' for Inactive)
REMARK    1  A    between atoms: C_4  and  N_25
REMARK    2  A    between atoms: N_8  and  C_10
REMARK    3  A    between atoms: C_12  and  N_16
REMARK    4  A    between atoms: N_25  and  C_27
REMARK    5  A    between atoms: C_27  and  C_28
REMARK    6  A    between atoms: C_29  and  N_30
REMARK    7  A    between atoms: C_31  and  C_34
REMARK                            x       y       z     vdW  Elec       q    Type
REMARK                         _______ _______ _______ _____ _____    ______ ____
ROOT
ATOM      1  I   UNL     1      -8.048  50.484  34.990  0.00  0.00    +0.000 I 
ATOM      2  N   UNL     1      -6.989  48.111  31.532  0.00  0.00    +0.000 NA
ATOM      3  N   UNL     1      -7.031  50.359  30.835  0.00  0.00    +0.000 NA
ATOM      4  C   UNL     1      -7.357  48.458  32.784  0.00  0.00    +0.000 A 
ATOM      5  C   UNL     1      -6.840  49.059  30.596  0.00  0.00    +0.000 A 
ATOM      6  C   UNL     1      -7.526  49.787  33.122  0.00  0.00    +0.000 A 
ATOM      7  C   UNL     1      -7.354  50.687  32.099  0.00  0.00    +0.000 A 
ATOM      8  N   UNL     1      -6.513  48.710  29.289  0.00  0.00    +0.000 N 
ATOM      9  H   UNL     1      -6.507  49.516  28.682  0.00  0.00    +0.000 HD
ENDROOT
BRANCH   8  10
ATOM     10  C   UNL     1      -6.026  47.504  28.772  0.00  0.00    +0.000 A 
ATOM     11  C   UNL     1      -4.698  47.100  28.938  0.00  0.00    +0.000 A 
ATOM     12  C   UNL     1      -4.245  45.854  28.506  0.00  0.00    +0.000 A 
ATOM     13  C   UNL     1      -5.145  44.973  27.917  0.00  0.00    +0.000 A 
ATOM     14  C   UNL     1      -6.476  45.346  27.750  0.00  0.00    +0.000 A 
ATOM     15  C   UNL     1      -6.910  46.601  28.177  0.00  0.00    +0.000 A 
BRANCH  12  16
ATOM     16  N   UNL     1      -2.874  45.574  28.653  0.00  0.00    +0.000 N 
ATOM     17  C   UNL     1      -1.853  46.064  27.859  0.00  0.00    +0.000 C 
ATOM     18  O   UNL     1      -2.030  46.705  26.824  0.00  0.00    +0.000 OA
ATOM     19  N   UNL     1      -0.579  45.738  28.323  0.00  0.00    +0.000 N 
ATOM     20  C   UNL     1      -0.147  45.031  29.405  0.00  0.00    +0.000 A 
ATOM     21  C   UNL     1       0.630  46.052  27.780  0.00  0.00    +0.000 A 
ATOM     22  C   UNL     1       1.351  44.818  29.646  0.00  0.00    +0.000 A 
ATOM     23  C   UNL     1       1.929  45.576  28.441  0.00  0.00    +0.000 A 
ATOM     24  H   UNL     1      -2.626  44.895  29.362  0.00  0.00    +0.000 HD
ENDBRANCH  12  16
ENDBRANCH   8  10
BRANCH   4  25
ATOM     25  N   UNL     1      -7.498  47.438  33.759  0.00  0.00    +0.000 N 
ATOM     26  H   UNL     1      -7.212  47.792  34.670  0.00  0.00    +0.000 HD
BRANCH  25  27
ATOM     27  C   UNL     1      -8.775  46.730  33.762  0.00  0.00    +0.000 C 
BRANCH  27  28
ATOM     28  C   UNL     1     -10.075  45.921  33.842  0.00  0.00    +0.000 C 
ATOM     29  C   UNL     1     -11.420  45.194  33.910  0.00  0.00    +0.000 C 
BRANCH  29  30
ATOM     30  N   UNL     1     -12.631  44.592  33.936  0.00  0.00    +0.000 N 
ATOM     31  C   UNL     1     -13.877  45.129  33.649  0.00  0.00    +0.000 C 
ATOM     32  O   UNL     1     -13.996  46.298  33.285  0.00  0.00    +0.000 OA
ATOM     33  H   UNL     1     -12.599  43.637  34.273  0.00  0.00    +0.000 HD
BRANCH  31  34
ATOM     34  C   UNL     1     -14.994  44.217  33.832  0.00  0.00    +0.000 A 
ATOM     35  S   UNL     1     -16.593  44.836  33.980  0.00  0.00    +0.000 S 
ATOM     36  C   UNL     1     -17.236  43.279  34.167  0.00  0.00    +0.000 A 
ATOM     37  C   UNL     1     -16.288  42.296  34.119  0.00  0.00    +0.000 A 
ATOM     38  C   UNL     1     -14.999  42.840  33.925  0.00  0.00    +0.000 A 
ENDBRANCH  31  34
ENDBRANCH  29  30
ENDBRANCH  27  28
ENDBRANCH  25  27
ENDBRANCH   4  25
TORSDOF 7
ENDMDL
MODEL 2
REMARK VINA RESULT:      -5.9      5.073      8.395
REMARK  Name = BX795.pdbqt.pdb
REMARK  7 active torsions:
REMARK  status: ('A' for Active; 'I' for Inactive)
REMARK    1  A    between atoms: C_4  and  N_25
REMARK    2  A    between atoms: N_8  and  C_10
REMARK    3  A    between atoms: C_12  and  N_16
REMARK    4  A    between atoms: N_25  and  C_27
REMARK    5  A    between atoms: C_27  and  C_28
REMARK    6  A    between atoms: C_29  and  N_30
REMARK    7  A    between atoms: C_31  and  C_34
REMARK                            x       y       z     vdW  Elec       q    Type
REMARK                         _______ _______ _______ _____ _____    ______ ____
ROOT
ATOM      1  I   UNL     1     -13.425  49.815  32.641  0.00  0.00    +0.000 I 
ATOM      2  N   UNL     1     -11.380  49.156  28.888  0.00  0.00    +0.000 NA
ATOM      3  N   UNL     1     -13.399  47.951  28.789  0.00  0.00    +0.000 NA
ATOM      4  C   UNL     1     -11.652  49.573  30.143  0.00  0.00    +0.000 A 
ATOM      5  C   UNL     1     -12.249  48.360  28.248  0.00  0.00    +0.000 A 
ATOM      6  C   UNL     1     -12.843  49.232  30.752  0.00  0.00    +0.000 A 
ATOM      7  C   UNL     1     -13.671  48.414  30.023  0.00  0.00    +0.000 A 
ATOM      8  N   UNL     1     -11.957  47.880  26.976  0.00  0.00    +0.000 N 
ATOM      9  H   UNL     1     -12.664  47.237  26.652  0.00  0.00    +0.000 HD
ENDROOT
BRANCH   8  10
ATOM     10  C   UNL     1     -10.984  48.292  26.058  0.00  0.00    +0.000 A 
ATOM     11  C   UNL     1      -9.718  47.702  25.993  0.00  0.00    +0.000 A 
ATOM     12  C   UNL     1      -8.790  48.050  25.012  0.00  0.00    +0.000 A 
ATOM     13  C   UNL     1      -9.141  48.991  24.050  0.00  0.00    +0.000 A 
ATOM     14  C   UNL     1     -10.400  49.585  24.084  0.00  0.00    +0.000 A 
ATOM     15  C   UNL     1     -11.312  49.234  25.080  0.00  0.00    +0.000 A 
BRANCH  12  16
ATOM     16  N   UNL     1      -7.519  47.453  25.080  0.00  0.00    +0.000 N 
ATOM     17  C   UNL     1      -6.396  47.993  25.682  0.00  0.00    +0.000 C 
ATOM     18  O   UNL     1      -6.332  49.141  26.120  0.00  0.00    +0.000 OA
ATOM     19  N   UNL     1      -5.310  47.119  25.726  0.00  0.00    +0.000 N 
ATOM     20  C   UNL     1      -5.141  45.839  25.289  0.00  0.00    +0.000 A 
ATOM     21  C   UNL     1      -4.065  47.333  26.236  0.00  0.00    +0.000 A 
ATOM     22  C   UNL     1      -3.794  45.130  25.463  0.00  0.00    +0.000 A 
ATOM     23  C   UNL     1      -2.995  46.238  26.166  0.00  0.00    +0.000 A 
ATOM     24  H   UNL     1      -7.402  46.581  24.578  0.00  0.00    +0.000 HD
ENDBRANCH  12  16
ENDBRANCH   8  10
BRANCH   4  25
ATOM     25  N   UNL     1     -10.721  50.423  30.794  0.00  0.00    +0.000 N 
ATOM     26  H   UNL     1     -11.062  50.656  31.724  0.00  0.00    +0.000 HD
BRANCH  25  27
ATOM     27  C   UNL     1      -9.326  49.991  30.754  0.00  0.00    +0.000 C 
BRANCH  27  28
ATOM     28  C   UNL     1      -7.857  49.581  30.612  0.00  0.00    +0.000 C 
ATOM     29  C   UNL     1      -6.373  49.209  30.555  0.00  0.00    +0.000 C 
BRANCH  29  30
ATOM     30  N   UNL     1      -5.061  48.879  30.560  0.00  0.00    +0.000 N 
ATOM     31  C   UNL     1      -4.442  47.764  30.012  0.00  0.00    +0.000 C 
ATOM     32  O   UNL     1      -5.088  46.918  29.396  0.00  0.00    +0.000 OA
ATOM     33  H   UNL     1      -4.486  49.519  31.095  0.00  0.00    +0.000 HD
BRANCH  31  34
ATOM     34  C   UNL     1      -3.010  47.683  30.246  0.00  0.00    +0.000 A 
ATOM     35  S   UNL     1      -2.417  47.287  31.813  0.00  0.00    +0.000 S 
ATOM     36  C   UNL     1      -0.809  47.409  31.293  0.00  0.00    +0.000 A 
ATOM     37  C   UNL     1      -0.693  47.736  29.971  0.00  0.00    +0.000 A 
ATOM     38  C   UNL     1      -1.963  47.892  29.372  0.00  0.00    +0.000 A 
ENDBRANCH  31  34
ENDBRANCH  29  30
ENDBRANCH  27  28
ENDBRANCH  25  27
ENDBRANCH   4  25
TORSDOF 7
ENDMDL
MODEL 3
REMARK VINA RESULT:      -5.9     27.987     30.342
REMARK  Name = BX795.pdbqt.pdb
REMARK  7 active torsions:
REMARK  status: ('A' for Active; 'I' for Inactive)
REMARK    1  A    between atoms: C_4  and  N_25
REMARK    2  A    between atoms: N_8  and  C_10
REMARK    3  A    between atoms: C_12  and  N_16
REMARK    4  A    between atoms: N_25  and  C_27
REMARK    5  A    between atoms: C_27  and  C_28
REMARK    6  A    between atoms: C_29  and  N_30
REMARK    7  A    between atoms: C_31  and  C_34
REMARK                            x       y       z     vdW  Elec       q    Type
REMARK                         _______ _______ _______ _____ _____    ______ ____
ROOT
ATOM      1  I   UNL     1     -18.644  44.589  -2.468  0.00  0.00    +0.000 I 
ATOM      2  N   UNL     1     -17.566  42.897   1.363  0.00  0.00    +0.000 NA
ATOM      3  N   UNL     1     -15.625  42.869   0.031  0.00  0.00    +0.000 NA
ATOM      4  C   UNL     1     -18.291  43.425   0.355  0.00  0.00    +0.000 A 
ATOM      5  C   UNL     1     -16.264  42.631   1.179  0.00  0.00    +0.000 A 
ATOM      6  C   UNL     1     -17.691  43.745  -0.847  0.00  0.00    +0.000 A 
ATOM      7  C   UNL     1     -16.356  43.437  -0.946  0.00  0.00    +0.000 A 
ATOM      8  N   UNL     1     -15.518  42.037   2.192  0.00  0.00    +0.000 N 
ATOM      9  H   UNL     1     -14.579  41.830   1.886  0.00  0.00    +0.000 HD
ENDROOT
BRANCH   8  10
ATOM     10  C   UNL     1     -15.808  41.880   3.553  0.00  0.00    +0.000 A 
ATOM     11  C   UNL     1     -16.454  40.747   4.055  0.00  0.00    +0.000 A 
ATOM     12  C   UNL     1     -16.650  40.554   5.422  0.00  0.00    +0.000 A 
ATOM     13  C   UNL     1     -16.166  41.501   6.317  0.00  0.00    +0.000 A 
ATOM     14  C   UNL     1     -15.509  42.634   5.844  0.00  0.00    +0.000 A 
ATOM     15  C   UNL     1     -15.331  42.818   4.473  0.00  0.00    +0.000 A 
BRANCH  12  16
ATOM     16  N   UNL     1     -17.376  39.416   5.819  0.00  0.00    +0.000 N 
ATOM     17  C   UNL     1     -16.844  38.251   6.342  0.00  0.00    +0.000 C 
ATOM     18  O   UNL     1     -15.639  38.006   6.397  0.00  0.00    +0.000 OA
ATOM     19  N   UNL     1     -17.808  37.345   6.783  0.00  0.00    +0.000 N 
ATOM     20  C   UNL     1     -19.170  37.385   6.797  0.00  0.00    +0.000 A 
ATOM     21  C   UNL     1     -17.628  36.113   7.336  0.00  0.00    +0.000 A 
ATOM     22  C   UNL     1     -19.976  36.200   7.338  0.00  0.00    +0.000 A 
ATOM     23  C   UNL     1     -18.833  35.255   7.738  0.00  0.00    +0.000 A 
ATOM     24  H   UNL     1     -18.372  39.430   5.637  0.00  0.00    +0.000 HD
ENDBRANCH  12  16
ENDBRANCH   8  10
BRANCH   4  25
ATOM     25  N   UNL     1     -19.663  43.707   0.579  0.00  0.00    +0.000 N 
ATOM     26  H   UNL     1     -20.177  42.837   0.696  0.00  0.00    +0.000 HD
BRANCH  25  27
ATOM     27  C   UNL     1     -19.949  44.718   1.592  0.00  0.00    +0.000 C 
BRANCH  27  28
ATOM     28  C   UNL     1     -20.146  45.811   2.648  0.00  0.00    +0.000 C 
ATOM     29  C   UNL     1     -20.401  46.947   3.643  0.00  0.00    +0.000 C 
BRANCH  29  30
ATOM     30  N   UNL     1     -20.676  47.958   4.498  0.00  0.00    +0.000 N 
ATOM     31  C   UNL     1     -21.377  47.919   5.695  0.00  0.00    +0.000 C 
ATOM     32  O   UNL     1     -21.827  46.861   6.133  0.00  0.00    +0.000 OA
ATOM     33  H   UNL     1     -20.368  48.864   4.164  0.00  0.00    +0.000 HD
BRANCH  31  34
ATOM     34  C   UNL     1     -21.544  49.206   6.348  0.00  0.00    +0.000 A 
ATOM     35  S   UNL     1     -20.290  49.833   7.347  0.00  0.00    +0.000 S 
ATOM     36  C   UNL     1     -21.195  51.219   7.707  0.00  0.00    +0.000 A 
ATOM     37  C   UNL     1     -22.419  51.237   7.098  0.00  0.00    +0.000 A 
ATOM     38  C   UNL     1     -22.616  50.076   6.316  0.00  0.00    +0.000 A 
ENDBRANCH  31  34
ENDBRANCH  29  30
ENDBRANCH  27  28
ENDBRANCH  25  27
ENDBRANCH   4  25
TORSDOF 7
ENDMDL
MODEL 4
REMARK VINA RESULT:      -5.7      6.519      9.773
REMARK  Name = BX795.pdbqt.pdb
REMARK  7 active torsions:
REMARK  status: ('A' for Active; 'I' for Inactive)
REMARK    1  A    between atoms: C_4  and  N_25
REMARK    2  A    between atoms: N_8  and  C_10
REMARK    3  A    between atoms: C_12  and  N_16
REMARK    4  A    between atoms: N_25  and  C_27
REMARK    5  A    between atoms: C_27  and  C_28
REMARK    6  A    between atoms: C_29  and  N_30
REMARK    7  A    between atoms: C_31  and  C_34
REMARK                            x       y       z     vdW  Elec       q    Type
REMARK                         _______ _______ _______ _____ _____    ______ ____
ROOT
ATOM      1  I   UNL     1     -13.411  49.873  32.665  0.00  0.00    +0.000 I 
ATOM      2  N   UNL     1     -11.366  49.086  28.937  0.00  0.00    +0.000 NA
ATOM      3  N   UNL     1     -13.272  47.706  28.977  0.00  0.00    +0.000 NA
ATOM      4  C   UNL     1     -11.656  49.580  30.159  0.00  0.00    +0.000 A 
ATOM      5  C   UNL     1     -12.170  48.168  28.381  0.00  0.00    +0.000 A 
ATOM      6  C   UNL     1     -12.805  49.188  30.818  0.00  0.00    +0.000 A 
ATOM      7  C   UNL     1     -13.567  48.244  30.175  0.00  0.00    +0.000 A 
ATOM      8  N   UNL     1     -11.853  47.612  27.146  0.00  0.00    +0.000 N 
ATOM      9  H   UNL     1     -12.505  46.886  26.890  0.00  0.00    +0.000 HD
ENDROOT
BRANCH   8  10
ATOM     10  C   UNL     1     -10.933  48.029  26.178  0.00  0.00    +0.000 A 
ATOM     11  C   UNL     1      -9.641  47.500  26.094  0.00  0.00    +0.000 A 
ATOM     12  C   UNL     1      -8.765  47.849  25.068  0.00  0.00    +0.000 A 
ATOM     13  C   UNL     1      -9.194  48.729  24.079  0.00  0.00    +0.000 A 
ATOM     14  C   UNL     1     -10.479  49.261  24.132  0.00  0.00    +0.000 A 
ATOM     15  C   UNL     1     -11.340  48.910  25.173  0.00  0.00    +0.000 A 
BRANCH  12  16
ATOM     16  N   UNL     1      -7.463  47.318  25.117  0.00  0.00    +0.000 N 
ATOM     17  C   UNL     1      -6.383  47.870  25.781  0.00  0.00    +0.000 C 
ATOM     18  O   UNL     1      -6.390  48.983  26.307  0.00  0.00    +0.000 OA
ATOM     19  N   UNL     1      -5.251  47.055  25.781  0.00  0.00    +0.000 N 
ATOM     20  C   UNL     1      -5.004  45.824  25.252  0.00  0.00    +0.000 A 
ATOM     21  C   UNL     1      -4.028  47.296  26.332  0.00  0.00    +0.000 A 
ATOM     22  C   UNL     1      -3.623  45.177  25.400  0.00  0.00    +0.000 A 
ATOM     23  C   UNL     1      -2.898  46.269  26.201  0.00  0.00    +0.000 A 
ATOM     24  H   UNL     1      -7.290  46.495  24.553  0.00  0.00    +0.000 HD
ENDBRANCH  12  16
ENDBRANCH   8  10
BRANCH   4  25
ATOM     25  N   UNL     1     -10.795  50.558  30.720  0.00  0.00    +0.000 N 
ATOM     26  H   UNL     1     -10.122  50.109  31.337  0.00  0.00    +0.000 HD
BRANCH  25  27
ATOM     27  C   UNL     1     -10.210  51.508  29.778  0.00  0.00    +0.000 C 
BRANCH  27  28
ATOM     28  C   UNL     1      -9.684  52.568  28.804  0.00  0.00    +0.000 C 
ATOM     29  C   UNL     1      -9.074  53.619  27.873  0.00  0.00    +0.000 C 
BRANCH  29  30
ATOM     30  N   UNL     1      -8.485  54.522  27.057  0.00  0.00    +0.000 N 
ATOM     31  C   UNL     1      -8.817  54.864  25.753  0.00  0.00    +0.000 C 
ATOM     32  O   UNL     1      -9.778  54.346  25.186  0.00  0.00    +0.000 OA
ATOM     33  H   UNL     1      -7.657  54.948  27.457  0.00  0.00    +0.000 HD
BRANCH  31  34
ATOM     34  C   UNL     1      -7.938  55.841  25.134  0.00  0.00    +0.000 A 
ATOM     35  S   UNL     1      -7.905  56.004  23.421  0.00  0.00    +0.000 S 
ATOM     36  C   UNL     1      -6.725  57.218  23.505  0.00  0.00    +0.000 A 
ATOM     37  C   UNL     1      -6.349  57.515  24.785  0.00  0.00    +0.000 A 
ATOM     38  C   UNL     1      -7.050  56.721  25.719  0.00  0.00    +0.000 A 
ENDBRANCH  31  34
ENDBRANCH  29  30
ENDBRANCH  27  28
ENDBRANCH  25  27
ENDBRANCH   4  25
TORSDOF 7
ENDMDL
MODEL 5
REMARK VINA RESULT:      -5.5     28.457     30.687
REMARK  Name = BX795.pdbqt.pdb
REMARK  7 active torsions:
REMARK  status: ('A' for Active; 'I' for Inactive)
REMARK    1  A    between atoms: C_4  and  N_25
REMARK    2  A    between atoms: N_8  and  C_10
REMARK    3  A    between atoms: C_12  and  N_16
REMARK    4  A    between atoms: N_25  and  C_27
REMARK    5  A    between atoms: C_27  and  C_28
REMARK    6  A    between atoms: C_29  and  N_30
REMARK    7  A    between atoms: C_31  and  C_34
REMARK                            x       y       z     vdW  Elec       q    Type
REMARK                         _______ _______ _______ _____ _____    ______ ____
ROOT
ATOM      1  I   UNL     1     -17.596  45.309  -2.354  0.00  0.00    +0.000 I 
ATOM      2  N   UNL     1     -17.052  43.305   1.439  0.00  0.00    +0.000 NA
ATOM      3  N   UNL     1     -15.106  42.917   0.174  0.00  0.00    +0.000 NA
ATOM      4  C   UNL     1     -17.609  44.005   0.429  0.00  0.00    +0.000 A 
ATOM      5  C   UNL     1     -15.827  42.779   1.289  0.00  0.00    +0.000 A 
ATOM      6  C   UNL     1     -16.906  44.233  -0.737  0.00  0.00    +0.000 A 
ATOM      7  C   UNL     1     -15.662  43.656  -0.804  0.00  0.00    +0.000 A 
ATOM      8  N   UNL     1     -15.263  42.011   2.302  0.00  0.00    +0.000 N 
ATOM      9  H   UNL     1     -14.376  41.622   2.019  0.00  0.00    +0.000 HD
ENDROOT
BRANCH   8  10
ATOM     10  C   UNL     1     -15.635  41.873   3.644  0.00  0.00    +0.000 A 
ATOM     11  C   UNL     1     -16.317  40.749   4.121  0.00  0.00    +0.000 A 
ATOM     12  C   UNL     1     -16.596  40.575   5.476  0.00  0.00    +0.000 A 
ATOM     13  C   UNL     1     -16.162  41.533   6.387  0.00  0.00    +0.000 A 
ATOM     14  C   UNL     1     -15.472  42.656   5.939  0.00  0.00    +0.000 A 
ATOM     15  C   UNL     1     -15.210  42.820   4.579  0.00  0.00    +0.000 A 
BRANCH  12  16
ATOM     16  N   UNL     1     -17.351  39.447   5.843  0.00  0.00    +0.000 N 
ATOM     17  C   UNL     1     -16.852  38.270   6.372  0.00  0.00    +0.000 C 
ATOM     18  O   UNL     1     -15.654  38.006   6.461  0.00  0.00    +0.000 OA
ATOM     19  N   UNL     1     -17.843  37.375   6.778  0.00  0.00    +0.000 N 
ATOM     20  C   UNL     1     -19.204  37.437   6.753  0.00  0.00    +0.000 A 
ATOM     21  C   UNL     1     -17.698  36.137   7.326  0.00  0.00    +0.000 A 
ATOM     22  C   UNL     1     -20.044  36.260   7.262  0.00  0.00    +0.000 A 
ATOM     23  C   UNL     1     -18.927  35.295   7.687  0.00  0.00    +0.000 A 
ATOM     24  H   UNL     1     -18.341  39.478   5.632  0.00  0.00    +0.000 HD
ENDBRANCH  12  16
ENDBRANCH   8  10
BRANCH   4  25
ATOM     25  N   UNL     1     -18.901  44.560   0.617  0.00  0.00    +0.000 N 
ATOM     26  H   UNL     1     -19.218  44.994  -0.247  0.00  0.00    +0.000 HD
BRANCH  25  27
ATOM     27  C   UNL     1     -19.886  43.685   1.248  0.00  0.00    +0.000 C 
BRANCH  27  28
ATOM     28  C   UNL     1     -20.838  42.724   1.968  0.00  0.00    +0.000 C 
ATOM     29  C   UNL     1     -21.714  41.726   2.730  0.00  0.00    +0.000 C 
BRANCH  29  30
ATOM     30  N   UNL     1     -22.450  40.844   3.444  0.00  0.00    +0.000 N 
ATOM     31  C   UNL     1     -22.038  39.979   4.448  0.00  0.00    +0.000 C 
ATOM     32  O   UNL     1     -20.868  39.957   4.828  0.00  0.00    +0.000 OA
ATOM     33  H   UNL     1     -23.415  40.787   3.142  0.00  0.00    +0.000 HD
BRANCH  31  34
ATOM     34  C   UNL     1     -23.080  39.115   4.976  0.00  0.00    +0.000 A 
ATOM     35  S   UNL     1     -24.720  39.640   4.966  0.00  0.00    +0.000 S 
ATOM     36  C   UNL     1     -25.240  38.204   5.700  0.00  0.00    +0.000 A 
ATOM     37  C   UNL     1     -24.222  37.329   5.954  0.00  0.00    +0.000 A 
ATOM     38  C   UNL     1     -22.980  37.857   5.536  0.00  0.00    +0.000 A 
ENDBRANCH  31  34
ENDBRANCH  29  30
ENDBRANCH  27  28
ENDBRANCH  25  27
ENDBRANCH   4  25
TORSDOF 7
ENDMDL
MODEL 6
REMARK VINA RESULT:      -5.2      5.023      7.487
REMARK  Name = BX795.pdbqt.pdb
REMARK  7 active torsions:
REMARK  status: ('A' for Active; 'I' for Inactive)
REMARK    1  A    between atoms: C_4  and  N_25
REMARK    2  A    between atoms: N_8  and  C_10
REMARK    3  A    between atoms: C_12  and  N_16
REMARK    4  A    between atoms: N_25  and  C_27
REMARK    5  A    between atoms: C_27  and  C_28
REMARK    6  A    between atoms: C_29  and  N_30
REMARK    7  A    between atoms: C_31  and  C_34
REMARK                            x       y       z     vdW  Elec       q    Type
REMARK                         _______ _______ _______ _____ _____    ______ ____
ROOT
ATOM      1  I   UNL     1     -13.348  49.966  32.719  0.00  0.00    +0.000 I 
ATOM      2  N   UNL     1     -11.376  49.170  28.954  0.00  0.00    +0.000 NA
ATOM      3  N   UNL     1     -13.350  47.889  28.978  0.00  0.00    +0.000 NA
ATOM      4  C   UNL     1     -11.631  49.647  30.190  0.00  0.00    +0.000 A 
ATOM      5  C   UNL     1     -12.231  48.308  28.383  0.00  0.00    +0.000 A 
ATOM      6  C   UNL     1     -12.793  49.299  30.850  0.00  0.00    +0.000 A 
ATOM      7  C   UNL     1     -13.607  48.410  30.191  0.00  0.00    +0.000 A 
ATOM      8  N   UNL     1     -11.953  47.768  27.132  0.00  0.00    +0.000 N 
ATOM      9  H   UNL     1     -12.643  47.083  26.864  0.00  0.00    +0.000 HD
ENDROOT
BRANCH   8  10
ATOM     10  C   UNL     1     -11.020  48.162  26.166  0.00  0.00    +0.000 A 
ATOM     11  C   UNL     1      -9.738  47.608  26.092  0.00  0.00    +0.000 A 
ATOM     12  C   UNL     1      -8.851  47.934  25.067  0.00  0.00    +0.000 A 
ATOM     13  C   UNL     1      -9.258  48.815  24.071  0.00  0.00    +0.000 A 
ATOM     14  C   UNL     1     -10.534  49.373  24.115  0.00  0.00    +0.000 A 
ATOM     15  C   UNL     1     -11.406  49.044  25.153  0.00  0.00    +0.000 A 
BRANCH  12  16
ATOM     16  N   UNL     1      -7.559  47.379  25.126  0.00  0.00    +0.000 N 
ATOM     17  C   UNL     1      -6.473  47.913  25.795  0.00  0.00    +0.000 C 
ATOM     18  O   UNL     1      -6.462  49.027  26.317  0.00  0.00    +0.000 OA
ATOM     19  N   UNL     1      -5.356  47.077  25.804  0.00  0.00    +0.000 N 
ATOM     20  C   UNL     1      -5.129  45.839  25.281  0.00  0.00    +0.000 A 
ATOM     21  C   UNL     1      -4.133  47.297  26.362  0.00  0.00    +0.000 A 
ATOM     22  C   UNL     1      -3.761  45.168  25.439  0.00  0.00    +0.000 A 
ATOM     23  C   UNL     1      -3.021  46.249  26.242  0.00  0.00    +0.000 A 
ATOM     24  H   UNL     1      -7.398  46.551  24.565  0.00  0.00    +0.000 HD
ENDBRANCH  12  16
ENDBRANCH   8  10
BRANCH   4  25
ATOM     25  N   UNL     1     -10.717  50.566  30.767  0.00  0.00    +0.000 N 
ATOM     26  H   UNL     1     -11.228  51.291  31.267  0.00  0.00    +0.000 HD
BRANCH  25  27
ATOM     27  C   UNL     1      -9.612  49.980  31.520  0.00  0.00    +0.000 C 
BRANCH  27  28
ATOM     28  C   UNL     1      -8.388  49.387  32.227  0.00  0.00    +0.000 C 
ATOM     29  C   UNL     1      -7.206  48.816  33.015  0.00  0.00    +0.000 C 
BRANCH  29  30
ATOM     30  N   UNL     1      -6.197  48.300  33.753  0.00  0.00    +0.000 N 
ATOM     31  C   UNL     1      -6.221  47.849  35.065  0.00  0.00    +0.000 C 
ATOM     32  O   UNL     1      -7.262  47.856  35.720  0.00  0.00    +0.000 OA
ATOM     33  H   UNL     1      -5.303  48.312  33.277  0.00  0.00    +0.000 HD
BRANCH  31  34
ATOM     34  C   UNL     1      -4.938  47.403  35.582  0.00  0.00    +0.000 A 
ATOM     35  S   UNL     1      -3.494  47.744  34.709  0.00  0.00    +0.000 S 
ATOM     36  C   UNL     1      -2.545  46.943  35.862  0.00  0.00    +0.000 A 
ATOM     37  C   UNL     1      -3.275  46.424  36.895  0.00  0.00    +0.000 A 
ATOM     38  C   UNL     1      -4.652  46.691  36.729  0.00  0.00    +0.000 A 
ENDBRANCH  31  34
ENDBRANCH  29  30
ENDBRANCH  27  28
ENDBRANCH  25  27
ENDBRANCH   4  25
TORSDOF 7
ENDMDL
MODEL 7
REMARK VINA RESULT:      -5.2      5.114      8.696
REMARK  Name = BX795.pdbqt.pdb
REMARK  7 active torsions:
REMARK  status: ('A' for Active; 'I' for Inactive)
REMARK    1  A    between atoms: C_4  and  N_25
REMARK    2  A    between atoms: N_8  and  C_10
REMARK    3  A    between atoms: C_12  and  N_16
REMARK    4  A    between atoms: N_25  and  C_27
REMARK    5  A    between atoms: C_27  and  C_28
REMARK    6  A    between atoms: C_29  and  N_30
REMARK    7  A    between atoms: C_31  and  C_34
REMARK                            x       y       z     vdW  Elec       q    Type
REMARK                         _______ _______ _______ _____ _____    ______ ____
ROOT
ATOM      1  I   UNL     1      -7.824  49.999  36.705  0.00  0.00    +0.000 I 
ATOM      2  N   UNL     1      -7.941  49.626  32.398  0.00  0.00    +0.000 NA
ATOM      3  N   UNL     1     -10.097  49.113  33.189  0.00  0.00    +0.000 NA
ATOM      4  C   UNL     1      -7.488  49.814  33.656  0.00  0.00    +0.000 A 
ATOM      5  C   UNL     1      -9.221  49.280  32.196  0.00  0.00    +0.000 A 
ATOM      6  C   UNL     1      -8.346  49.708  34.732  0.00  0.00    +0.000 A 
ATOM      7  C   UNL     1      -9.637  49.348  34.431  0.00  0.00    +0.000 A 
ATOM      8  N   UNL     1      -9.686  49.032  30.909  0.00  0.00    +0.000 N 
ATOM      9  H   UNL     1     -10.643  48.711  30.918  0.00  0.00    +0.000 HD
ENDROOT
BRANCH   8  10
ATOM     10  C   UNL     1      -9.115  49.337  29.668  0.00  0.00    +0.000 A 
ATOM     11  C   UNL     1      -8.068  48.589  29.121  0.00  0.00    +0.000 A 
ATOM     12  C   UNL     1      -7.571  48.838  27.842  0.00  0.00    +0.000 A 
ATOM     13  C   UNL     1      -8.150  49.843  27.074  0.00  0.00    +0.000 A 
ATOM     14  C   UNL     1      -9.202  50.595  27.590  0.00  0.00    +0.000 A 
ATOM     15  C   UNL     1      -9.680  50.340  28.876  0.00  0.00    +0.000 A 
BRANCH  12  16
ATOM     16  N   UNL     1      -6.468  48.078  27.415  0.00  0.00    +0.000 N 
ATOM     17  C   UNL     1      -6.503  47.023  26.520  0.00  0.00    +0.000 C 
ATOM     18  O   UNL     1      -7.538  46.521  26.085  0.00  0.00    +0.000 OA
ATOM     19  N   UNL     1      -5.240  46.547  26.168  0.00  0.00    +0.000 N 
ATOM     20  C   UNL     1      -3.981  46.918  26.536  0.00  0.00    +0.000 A 
ATOM     21  C   UNL     1      -4.920  45.525  25.327  0.00  0.00    +0.000 A 
ATOM     22  C   UNL     1      -2.760  46.175  25.984  0.00  0.00    +0.000 A 
ATOM     23  C   UNL     1      -3.456  45.141  25.087  0.00  0.00    +0.000 A 
ATOM     24  H   UNL     1      -5.581  48.280  27.860  0.00  0.00    +0.000 HD
ENDBRANCH  12  16
ENDBRANCH   8  10
BRANCH   4  25
ATOM     25  N   UNL     1      -6.133  50.190  33.842  0.00  0.00    +0.000 N 
ATOM     26  H   UNL     1      -5.947  50.321  34.834  0.00  0.00    +0.000 HD
BRANCH  25  27
ATOM     27  C   UNL     1      -5.142  49.373  33.146  0.00  0.00    +0.000 C 
BRANCH  27  28
ATOM     28  C   UNL     1      -4.145  48.552  32.322  0.00  0.00    +0.000 C 
ATOM     29  C   UNL     1      -3.081  47.788  31.530  0.00  0.00    +0.000 C 
BRANCH  29  30
ATOM     30  N   UNL     1      -2.103  47.128  30.869  0.00  0.00    +0.000 N 
ATOM     31  C   UNL     1      -1.575  47.386  29.612  0.00  0.00    +0.000 C 
ATOM     32  O   UNL     1      -1.967  48.339  28.941  0.00  0.00    +0.000 OA
ATOM     33  H   UNL     1      -1.772  46.303  31.357  0.00  0.00    +0.000 HD
BRANCH  31  34
ATOM     34  C   UNL     1      -0.563  46.442  29.168  0.00  0.00    +0.000 A 
ATOM     35  S   UNL     1      -0.341  44.959  30.014  0.00  0.00    +0.000 S 
ATOM     36  C   UNL     1       0.915  44.493  28.976  0.00  0.00    +0.000 A 
ATOM     37  C   UNL     1       1.179  45.415  28.002  0.00  0.00    +0.000 A 
ATOM     38  C   UNL     1       0.326  46.535  28.116  0.00  0.00    +0.000 A 
ENDBRANCH  31  34
ENDBRANCH  29  30
ENDBRANCH  27  28
ENDBRANCH  25  27
ENDBRANCH   4  25
TORSDOF 7
ENDMDL
MODEL 8
REMARK VINA RESULT:      -5.2     28.613     31.583
REMARK  Name = BX795.pdbqt.pdb
REMARK  7 active torsions:
REMARK  status: ('A' for Active; 'I' for Inactive)
REMARK    1  A    between atoms: C_4  and  N_25
REMARK    2  A    between atoms: N_8  and  C_10
REMARK    3  A    between atoms: C_12  and  N_16
REMARK    4  A    between atoms: N_25  and  C_27
REMARK    5  A    between atoms: C_27  and  C_28
REMARK    6  A    between atoms: C_29  and  N_30
REMARK    7  A    between atoms: C_31  and  C_34
REMARK                            x       y       z     vdW  Elec       q    Type
REMARK                         _______ _______ _______ _____ _____    ______ ____
ROOT
ATOM      1  I   UNL     1     -13.132  35.514  -3.610  0.00  0.00    +0.000 I 
ATOM      2  N   UNL     1     -12.427  34.476   0.529  0.00  0.00    +0.000 NA
ATOM      3  N   UNL     1     -10.329  34.505  -0.537  0.00  0.00    +0.000 NA
ATOM      4  C   UNL     1     -13.056  34.778  -0.627  0.00  0.00    +0.000 A 
ATOM      5  C   UNL     1     -11.092  34.344   0.546  0.00  0.00    +0.000 A 
ATOM      6  C   UNL     1     -12.331  35.008  -1.779  0.00  0.00    +0.000 A 
ATOM      7  C   UNL     1     -10.971  34.849  -1.669  0.00  0.00    +0.000 A 
ATOM      8  N   UNL     1     -10.438  33.981   1.718  0.00  0.00    +0.000 N 
ATOM      9  H   UNL     1      -9.449  33.848   1.563  0.00  0.00    +0.000 HD
ENDROOT
BRANCH   8  10
ATOM     10  C   UNL     1     -10.895  33.969   3.041  0.00  0.00    +0.000 A 
ATOM     11  C   UNL     1     -11.943  34.784   3.479  0.00  0.00    +0.000 A 
ATOM     12  C   UNL     1     -12.457  34.696   4.772  0.00  0.00    +0.000 A 
ATOM     13  C   UNL     1     -11.932  33.751   5.647  0.00  0.00    +0.000 A 
ATOM     14  C   UNL     1     -10.895  32.919   5.233  0.00  0.00    +0.000 A 
ATOM     15  C   UNL     1     -10.385  33.028   3.939  0.00  0.00    +0.000 A 
BRANCH  12  16
ATOM     16  N   UNL     1     -13.461  35.612   5.135  0.00  0.00    +0.000 N 
ATOM     17  C   UNL     1     -14.825  35.415   5.013  0.00  0.00    +0.000 C 
ATOM     18  O   UNL     1     -15.336  34.456   4.436  0.00  0.00    +0.000 OA
ATOM     19  N   UNL     1     -15.589  36.432   5.586  0.00  0.00    +0.000 N 
ATOM     20  C   UNL     1     -15.252  37.579   6.240  0.00  0.00    +0.000 A 
ATOM     21  C   UNL     1     -16.945  36.552   5.636  0.00  0.00    +0.000 A 
ATOM     22  C   UNL     1     -16.339  38.531   6.749  0.00  0.00    +0.000 A 
ATOM     23  C   UNL     1     -17.596  37.770   6.301  0.00  0.00    +0.000 A 
ATOM     24  H   UNL     1     -13.149  36.524   5.446  0.00  0.00    +0.000 HD
ENDBRANCH  12  16
ENDBRANCH   8  10
BRANCH   4  25
ATOM     25  N   UNL     1     -14.467  34.922  -0.616  0.00  0.00    +0.000 N 
ATOM     26  H   UNL     1     -14.904  34.012  -0.482  0.00  0.00    +0.000 HD
BRANCH  25  27
ATOM     27  C   UNL     1     -14.994  35.976   0.246  0.00  0.00    +0.000 C 
BRANCH  27  28
ATOM     28  C   UNL     1     -15.450  37.086   1.199  0.00  0.00    +0.000 C 
ATOM     29  C   UNL     1     -15.859  38.150   2.221  0.00  0.00    +0.000 C 
BRANCH  29  30
ATOM     30  N   UNL     1     -16.173  39.080   3.151  0.00  0.00    +0.000 N 
ATOM     31  C   UNL     1     -16.588  40.391   2.966  0.00  0.00    +0.000 C 
ATOM     32  O   UNL     1     -16.747  40.854   1.837  0.00  0.00    +0.000 OA
ATOM     33  H   UNL     1     -16.017  38.768   4.102  0.00  0.00    +0.000 HD
BRANCH  31  34
ATOM     34  C   UNL     1     -16.790  41.148   4.190  0.00  0.00    +0.000 A 
ATOM     35  S   UNL     1     -18.385  41.548   4.700  0.00  0.00    +0.000 S 
ATOM     36  C   UNL     1     -17.802  42.368   6.063  0.00  0.00    +0.000 A 
ATOM     37  C   UNL     1     -16.438  42.353   6.158  0.00  0.00    +0.000 A 
ATOM     38  C   UNL     1     -15.860  41.649   5.078  0.00  0.00    +0.000 A 
ENDBRANCH  31  34
ENDBRANCH  29  30
ENDBRANCH  27  28
ENDBRANCH  25  27
ENDBRANCH   4  25
TORSDOF 7
ENDMDL
MODEL 9
REMARK VINA RESULT:      -5.2     28.719     31.717
REMARK  Name = BX795.pdbqt.pdb
REMARK  7 active torsions:
REMARK  status: ('A' for Active; 'I' for Inactive)
REMARK    1  A    between atoms: C_4  and  N_25
REMARK    2  A    between atoms: N_8  and  C_10
REMARK    3  A    between atoms: C_12  and  N_16
REMARK    4  A    between atoms: N_25  and  C_27
REMARK    5  A    between atoms: C_27  and  C_28
REMARK    6  A    between atoms: C_29  and  N_30
REMARK    7  A    between atoms: C_31  and  C_34
REMARK                            x       y       z     vdW  Elec       q    Type
REMARK                         _______ _______ _______ _____ _____    ______ ____
ROOT
ATOM      1  I   UNL     1     -17.307  30.772  -1.364  0.00  0.00    +0.000 I 
ATOM      2  N   UNL     1     -15.983  33.101   2.030  0.00  0.00    +0.000 NA
ATOM      3  N   UNL     1     -14.752  31.096   2.054  0.00  0.00    +0.000 NA
ATOM      4  C   UNL     1     -16.669  32.706   0.937  0.00  0.00    +0.000 A 
ATOM      5  C   UNL     1     -15.052  32.294   2.560  0.00  0.00    +0.000 A 
ATOM      6  C   UNL     1     -16.381  31.502   0.327  0.00  0.00    +0.000 A 
ATOM      7  C   UNL     1     -15.416  30.740   0.938  0.00  0.00    +0.000 A 
ATOM      8  N   UNL     1     -14.376  32.666   3.717  0.00  0.00    +0.000 N 
ATOM      9  H   UNL     1     -13.763  31.932   4.038  0.00  0.00    +0.000 HD
ENDROOT
BRANCH   8  10
ATOM     10  C   UNL     1     -14.281  33.913   4.345  0.00  0.00    +0.000 A 
ATOM     11  C   UNL     1     -15.405  34.622   4.779  0.00  0.00    +0.000 A 
ATOM     12  C   UNL     1     -15.298  35.815   5.491  0.00  0.00    +0.000 A 
ATOM     13  C   UNL     1     -14.035  36.305   5.806  0.00  0.00    +0.000 A 
ATOM     14  C   UNL     1     -12.898  35.613   5.397  0.00  0.00    +0.000 A 
ATOM     15  C   UNL     1     -13.023  34.426   4.675  0.00  0.00    +0.000 A 
BRANCH  12  16
ATOM     16  N   UNL     1     -16.490  36.487   5.816  0.00  0.00    +0.000 N 
ATOM     17  C   UNL     1     -17.525  35.985   6.585  0.00  0.00    +0.000 C 
ATOM     18  O   UNL     1     -17.594  34.819   6.972  0.00  0.00    +0.000 OA
ATOM     19  N   UNL     1     -18.518  36.922   6.865  0.00  0.00    +0.000 N 
ATOM     20  C   UNL     1     -18.667  38.234   6.527  0.00  0.00    +0.000 A 
ATOM     21  C   UNL     1     -19.666  36.758   7.581  0.00  0.00    +0.000 A 
ATOM     22  C   UNL     1     -19.907  39.016   6.975  0.00  0.00    +0.000 A 
ATOM     23  C   UNL     1     -20.648  37.921   7.757  0.00  0.00    +0.000 A 
ATOM     24  H   UNL     1     -16.629  37.393   5.385  0.00  0.00    +0.000 HD
ENDBRANCH  12  16
ENDBRANCH   8  10
BRANCH   4  25
ATOM     25  N   UNL     1     -17.641  33.584   0.390  0.00  0.00    +0.000 N 
ATOM     26  H   UNL     1     -18.536  33.104   0.320  0.00  0.00    +0.000 HD
BRANCH  25  27
ATOM     27  C   UNL     1     -17.715  34.911   0.994  0.00  0.00    +0.000 C 
BRANCH  27  28
ATOM     28  C   UNL     1     -17.738  36.264   1.714  0.00  0.00    +0.000 C 
ATOM     29  C   UNL     1     -17.681  37.591   2.474  0.00  0.00    +0.000 C 
BRANCH  29  30
ATOM     30  N   UNL     1     -17.574  38.760   3.146  0.00  0.00    +0.000 N 
ATOM     31  C   UNL     1     -16.467  39.299   3.786  0.00  0.00    +0.000 C 
ATOM     32  O   UNL     1     -15.382  38.719   3.774  0.00  0.00    +0.000 OA
ATOM     33  H   UNL     1     -18.452  39.260   3.227  0.00  0.00    +0.000 HD
BRANCH  31  34
ATOM     34  C   UNL     1     -16.707  40.559   4.468  0.00  0.00    +0.000 A 
ATOM     35  S   UNL     1     -18.193  41.395   4.230  0.00  0.00    +0.000 S 
ATOM     36  C   UNL     1     -17.712  42.653   5.260  0.00  0.00    +0.000 A 
ATOM     37  C   UNL     1     -16.464  42.469   5.788  0.00  0.00    +0.000 A 
ATOM     38  C   UNL     1     -15.890  41.263   5.329  0.00  0.00    +0.000 A 
ENDBRANCH  31  34
ENDBRANCH  29  30
ENDBRANCH  27  28
ENDBRANCH  25  27
ENDBRANCH   4  25
TORSDOF 7
ENDMDL
