MODEL 1
REMARK VINA RESULT:      -2.9      0.000      0.000
REMARK  Name = CadmiumAcetate.pdbqt.pdb
REMARK  1 active torsions:
REMARK  status: ('A' for Active; 'I' for Inactive)
REMARK    1  A    between atoms: C_3  and  O_4
REMARK                            x       y       z     vdW  Elec       q    Type
REMARK                         _______ _______ _______ _____ _____    ______ ____
ROOT
ATOM      1  O   UNL     1     -19.794  43.820  27.080  0.00  0.00    +0.000 OA
ATOM      2  C   UNL     1     -21.103  44.131  28.944  0.00  0.00    +0.000 C 
ATOM      3  C   UNL     1     -20.382  43.270  27.987  0.00  0.00    +0.000 C 
ENDROOT
BRANCH   3   4
ATOM      4  O   UNL     1     -20.446  41.959  28.214  0.00  0.00    +0.000 OA
ATOM      5  H   UNL     1     -20.491  41.914  29.187  0.00  0.00    +0.000 HD
ENDBRANCH   3   4
TORSDOF 1
ENDMDL
MODEL 2
REMARK VINA RESULT:      -2.8     19.439     19.996
REMARK  Name = CadmiumAcetate.pdbqt.pdb
REMARK  1 active torsions:
REMARK  status: ('A' for Active; 'I' for Inactive)
REMARK    1  A    between atoms: C_3  and  O_4
REMARK                            x       y       z     vdW  Elec       q    Type
REMARK                         _______ _______ _______ _____ _____    ______ ____
ROOT
ATOM      1  O   UNL     1     -15.675  51.219  11.552  0.00  0.00    +0.000 OA
ATOM      2  C   UNL     1     -14.960  51.955   9.494  0.00  0.00    +0.000 C 
ATOM      3  C   UNL     1     -15.190  50.890  10.489  0.00  0.00    +0.000 C 
ENDROOT
BRANCH   3   4
ATOM      4  O   UNL     1     -14.840  49.659  10.122  0.00  0.00    +0.000 OA
ATOM      5  H   UNL     1     -14.611  49.240  10.972  0.00  0.00    +0.000 HD
ENDBRANCH   3   4
TORSDOF 1
ENDMDL
MODEL 3
REMARK VINA RESULT:      -2.5     18.138     18.787
REMARK  Name = CadmiumAcetate.pdbqt.pdb
REMARK  1 active torsions:
REMARK  status: ('A' for Active; 'I' for Inactive)
REMARK    1  A    between atoms: C_3  and  O_4
REMARK                            x       y       z     vdW  Elec       q    Type
REMARK                         _______ _______ _______ _____ _____    ______ ____
ROOT
ATOM      1  O   UNL     1     -16.904  52.472  11.829  0.00  0.00    +0.000 OA
ATOM      2  C   UNL     1     -15.423  51.159  10.659  0.00  0.00    +0.000 C 
ATOM      3  C   UNL     1     -16.085  51.580  11.908  0.00  0.00    +0.000 C 
ENDROOT
BRANCH   3   4
ATOM      4  O   UNL     1     -15.718  50.933  13.013  0.00  0.00    +0.000 OA
ATOM      5  H   UNL     1     -15.980  51.553  13.719  0.00  0.00    +0.000 HD
ENDBRANCH   3   4
TORSDOF 1
ENDMDL
MODEL 4
REMARK VINA RESULT:      -2.5     22.911     23.369
REMARK  Name = CadmiumAcetate.pdbqt.pdb
REMARK  1 active torsions:
REMARK  status: ('A' for Active; 'I' for Inactive)
REMARK    1  A    between atoms: C_3  and  O_4
REMARK                            x       y       z     vdW  Elec       q    Type
REMARK                         _______ _______ _______ _____ _____    ______ ____
ROOT
ATOM      1  O   UNL     1     -14.412  42.030   4.659  0.00  0.00    +0.000 OA
ATOM      2  C   UNL     1     -16.000  41.838   6.311  0.00  0.00    +0.000 C 
ATOM      3  C   UNL     1     -15.308  42.595   5.250  0.00  0.00    +0.000 C 
ENDROOT
BRANCH   3   4
ATOM      4  O   UNL     1     -15.739  43.838   5.040  0.00  0.00    +0.000 OA
ATOM      5  H   UNL     1     -15.507  43.988   4.105  0.00  0.00    +0.000 HD
ENDBRANCH   3   4
TORSDOF 1
ENDMDL
MODEL 5
REMARK VINA RESULT:      -2.3     26.869     27.228
REMARK  Name = CadmiumAcetate.pdbqt.pdb
REMARK  1 active torsions:
REMARK  status: ('A' for Active; 'I' for Inactive)
REMARK    1  A    between atoms: C_3  and  O_4
REMARK                            x       y       z     vdW  Elec       q    Type
REMARK                         _______ _______ _______ _____ _____    ______ ____
ROOT
ATOM      1  O   UNL     1      -1.177  29.231  17.378  0.00  0.00    +0.000 OA
ATOM      2  C   UNL     1       0.916  29.632  18.241  0.00  0.00    +0.000 C 
ATOM      3  C   UNL     1       0.016  29.100  17.200  0.00  0.00    +0.000 C 
ENDROOT
BRANCH   3   4
ATOM      4  O   UNL     1       0.605  28.523  16.154  0.00  0.00    +0.000 OA
ATOM      5  H   UNL     1       0.629  29.244  15.498  0.00  0.00    +0.000 HD
ENDBRANCH   3   4
TORSDOF 1
ENDMDL
MODEL 6
REMARK VINA RESULT:      -2.3      7.546      7.808
REMARK  Name = CadmiumAcetate.pdbqt.pdb
REMARK  1 active torsions:
REMARK  status: ('A' for Active; 'I' for Inactive)
REMARK    1  A    between atoms: C_3  and  O_4
REMARK                            x       y       z     vdW  Elec       q    Type
REMARK                         _______ _______ _______ _____ _____    ______ ____
ROOT
ATOM      1  O   UNL     1     -16.448  41.355  34.111  0.00  0.00    +0.000 OA
ATOM      2  C   UNL     1     -16.085  43.625  34.042  0.00  0.00    +0.000 C 
ATOM      3  C   UNL     1     -15.625  42.227  33.929  0.00  0.00    +0.000 C 
ENDROOT
BRANCH   3   4
ATOM      4  O   UNL     1     -14.337  42.056  33.634  0.00  0.00    +0.000 OA
ATOM      5  H   UNL     1     -14.356  41.917  32.669  0.00  0.00    +0.000 HD
ENDBRANCH   3   4
TORSDOF 1
ENDMDL
MODEL 7
REMARK VINA RESULT:      -2.2     31.037     31.683
REMARK  Name = CadmiumAcetate.pdbqt.pdb
REMARK  1 active torsions:
REMARK  status: ('A' for Active; 'I' for Inactive)
REMARK    1  A    between atoms: C_3  and  O_4
REMARK                            x       y       z     vdW  Elec       q    Type
REMARK                         _______ _______ _______ _____ _____    ______ ____
ROOT
ATOM      1  O   UNL     1      -7.142  49.598  -0.763  0.00  0.00    +0.000 OA
ATOM      2  C   UNL     1      -8.147  47.651  -1.460  0.00  0.00    +0.000 C 
ATOM      3  C   UNL     1      -7.663  48.562  -0.406  0.00  0.00    +0.000 C 
ENDROOT
BRANCH   3   4
ATOM      4  O   UNL     1      -7.847  48.157   0.850  0.00  0.00    +0.000 OA
ATOM      5  H   UNL     1      -8.400  48.867   1.224  0.00  0.00    +0.000 HD
ENDBRANCH   3   4
TORSDOF 1
ENDMDL
MODEL 8
REMARK VINA RESULT:      -2.2     15.283     15.721
REMARK  Name = CadmiumAcetate.pdbqt.pdb
REMARK  1 active torsions:
REMARK  status: ('A' for Active; 'I' for Inactive)
REMARK    1  A    between atoms: C_3  and  O_4
REMARK                            x       y       z     vdW  Elec       q    Type
REMARK                         _______ _______ _______ _____ _____    ______ ____
ROOT
ATOM      1  O   UNL     1      -6.128  45.441  26.174  0.00  0.00    +0.000 OA
ATOM      2  C   UNL     1      -4.160  44.809  25.165  0.00  0.00    +0.000 C 
ATOM      3  C   UNL     1      -5.064  44.878  26.329  0.00  0.00    +0.000 C 
ENDROOT
BRANCH   3   4
ATOM      4  O   UNL     1      -4.621  44.309  27.449  0.00  0.00    +0.000 OA
ATOM      5  H   UNL     1      -4.011  44.983  27.803  0.00  0.00    +0.000 HD
ENDBRANCH   3   4
TORSDOF 1
ENDMDL
MODEL 9
REMARK VINA RESULT:      -2.2     26.479     26.873
REMARK  Name = CadmiumAcetate.pdbqt.pdb
REMARK  1 active torsions:
REMARK  status: ('A' for Active; 'I' for Inactive)
REMARK    1  A    between atoms: C_3  and  O_4
REMARK                            x       y       z     vdW  Elec       q    Type
REMARK                         _______ _______ _______ _____ _____    ______ ____
ROOT
ATOM      1  O   UNL     1       1.166  28.592  20.301  0.00  0.00    +0.000 OA
ATOM      2  C   UNL     1       1.220  29.709  18.293  0.00  0.00    +0.000 C 
ATOM      3  C   UNL     1       0.504  29.000  19.370  0.00  0.00    +0.000 C 
ENDROOT
BRANCH   3   4
ATOM      4  O   UNL     1      -0.813  28.877  19.216  0.00  0.00    +0.000 OA
ATOM      5  H   UNL     1      -0.894  28.019  18.758  0.00  0.00    +0.000 HD
ENDBRANCH   3   4
TORSDOF 1
ENDMDL
