MODEL 1
REMARK VINA RESULT:      -7.6      0.000      0.000
REMARK  Name = Calcitriol.pdbqt.pdb
REMARK  9 active torsions:
REMARK  status: ('A' for Active; 'I' for Inactive)
REMARK    1  A    between atoms: C_2  and  C_24
REMARK    2  A    between atoms: C_7  and  C_11
REMARK    3  A    between atoms: C_12  and  C_13
REMARK    4  A    between atoms: C_16  and  O_20
REMARK    5  A    between atoms: C_18  and  O_22
REMARK    6  A    between atoms: C_24  and  C_26
REMARK    7  A    between atoms: C_27  and  C_28
REMARK    8  A    between atoms: C_28  and  C_29
REMARK    9  A    between atoms: C_29  and  O_32
REMARK                            x       y       z     vdW  Elec       q    Type
REMARK                         _______ _______ _______ _____ _____    ______ ____
ROOT
ATOM      1  C   UNL     1      -6.692  48.280  25.287  0.00  0.00    +0.000 C 
ATOM      2  C   UNL     1      -7.584  47.045  25.369  0.00  0.00    +0.000 C 
ATOM      3  C   UNL     1      -5.264  47.734  25.834  0.00  0.00    +0.000 C 
ATOM      4  C   UNL     1      -6.801  45.911  25.737  0.00  0.00    +0.000 C 
ATOM      5  C   UNL     1      -5.376  46.317  25.996  0.00  0.00    +0.000 C 
ATOM      6  C   UNL     1      -7.091  49.379  26.181  0.00  0.00    +0.000 C 
ATOM      7  C   UNL     1      -4.454  48.538  26.758  0.00  0.00    +0.000 C 
ATOM      8  C   UNL     1      -6.470  48.710  23.810  0.00  0.00    +0.000 C 
ATOM      9  C   UNL     1      -6.505  50.263  27.268  0.00  0.00    +0.000 C 
ATOM     10  C   UNL     1      -5.129  49.636  27.355  0.00  0.00    +0.000 C 
ENDROOT
BRANCH   7  11
ATOM     11  C   UNL     1      -3.257  48.227  27.144  0.00  0.00    +0.000 C 
ATOM     12  C   UNL     1      -1.837  47.853  27.587  0.00  0.00    +0.000 C 
BRANCH  12  13
ATOM     13  C   UNL     1      -0.632  47.537  27.953  0.00  0.00    +0.000 A 
ATOM     14  C   UNL     1      -0.119  46.234  27.653  0.00  0.00    +0.000 A 
ATOM     15  C   UNL     1       0.317  48.388  28.739  0.00  0.00    +0.000 A 
ATOM     16  C   UNL     1       1.112  45.580  27.949  0.00  0.00    +0.000 A 
ATOM     17  C   UNL     1       1.906  46.493  28.699  0.00  0.00    +0.000 A 
ATOM     18  C   UNL     1       1.649  47.827  29.128  0.00  0.00    +0.000 A 
ATOM     19  C   UNL     1       0.016  49.648  29.102  0.00  0.00    +0.000 C 
BRANCH  16  20
ATOM     20  O   UNL     1       1.663  44.683  27.081  0.00  0.00    +0.000 OA
ATOM     21  H   UNL     1       0.981  44.130  26.665  0.00  0.00    +0.000 HD
ENDBRANCH  16  20
BRANCH  18  22
ATOM     22  O   UNL     1       2.565  48.562  29.842  0.00  0.00    +0.000 OA
ATOM     23  H   UNL     1       3.329  48.790  29.278  0.00  0.00    +0.000 HD
ENDBRANCH  18  22
ENDBRANCH  12  13
ENDBRANCH   7  11
BRANCH   2  24
ATOM     24  C   UNL     1      -8.956  46.992  24.974  0.00  0.00    +0.000 C 
ATOM     25  C   UNL     1      -9.397  46.970  23.533  0.00  0.00    +0.000 C 
BRANCH  24  26
ATOM     26  C   UNL     1     -10.000  47.145  25.927  0.00  0.00    +0.000 C 
ATOM     27  C   UNL     1     -11.138  47.304  26.943  0.00  0.00    +0.000 C 
BRANCH  27  28
ATOM     28  C   UNL     1     -12.285  47.459  27.950  0.00  0.00    +0.000 C 
BRANCH  28  29
ATOM     29  C   UNL     1     -13.378  47.602  28.911  0.00  0.00    +0.000 C 
ATOM     30  C   UNL     1     -12.942  48.290  30.210  0.00  0.00    +0.000 C 
ATOM     31  C   UNL     1     -14.613  48.292  28.322  0.00  0.00    +0.000 C 
BRANCH  29  32
ATOM     32  O   UNL     1     -13.820  46.320  29.297  0.00  0.00    +0.000 OA
ATOM     33  H   UNL     1     -14.400  46.136  28.543  0.00  0.00    +0.000 HD
ENDBRANCH  29  32
ENDBRANCH  28  29
ENDBRANCH  27  28
ENDBRANCH  24  26
ENDBRANCH   2  24
TORSDOF 9
ENDMDL
MODEL 2
REMARK VINA RESULT:      -7.4      1.894      3.296
REMARK  Name = Calcitriol.pdbqt.pdb
REMARK  9 active torsions:
REMARK  status: ('A' for Active; 'I' for Inactive)
REMARK    1  A    between atoms: C_2  and  C_24
REMARK    2  A    between atoms: C_7  and  C_11
REMARK    3  A    between atoms: C_12  and  C_13
REMARK    4  A    between atoms: C_16  and  O_20
REMARK    5  A    between atoms: C_18  and  O_22
REMARK    6  A    between atoms: C_24  and  C_26
REMARK    7  A    between atoms: C_27  and  C_28
REMARK    8  A    between atoms: C_28  and  C_29
REMARK    9  A    between atoms: C_29  and  O_32
REMARK                            x       y       z     vdW  Elec       q    Type
REMARK                         _______ _______ _______ _____ _____    ______ ____
ROOT
ATOM      1  C   UNL     1      -6.581  46.797  26.533  0.00  0.00    +0.000 C 
ATOM      2  C   UNL     1      -7.611  47.616  25.760  0.00  0.00    +0.000 C 
ATOM      3  C   UNL     1      -5.375  47.860  26.766  0.00  0.00    +0.000 C 
ATOM      4  C   UNL     1      -7.186  48.975  25.684  0.00  0.00    +0.000 C 
ATOM      5  C   UNL     1      -5.833  49.139  26.321  0.00  0.00    +0.000 C 
ATOM      6  C   UNL     1      -6.007  45.671  25.778  0.00  0.00    +0.000 C 
ATOM      7  C   UNL     1      -3.974  47.458  26.594  0.00  0.00    +0.000 C 
ATOM      8  C   UNL     1      -7.117  46.413  27.941  0.00  0.00    +0.000 C 
ATOM      9  C   UNL     1      -4.654  45.119  25.365  0.00  0.00    +0.000 C 
ATOM     10  C   UNL     1      -3.777  46.217  25.932  0.00  0.00    +0.000 C 
ENDROOT
BRANCH   7  11
ATOM     11  C   UNL     1      -2.956  48.209  26.876  0.00  0.00    +0.000 C 
ATOM     12  C   UNL     1      -1.756  49.108  27.200  0.00  0.00    +0.000 C 
BRANCH  12  13
ATOM     13  C   UNL     1      -0.745  49.876  27.470  0.00  0.00    +0.000 A 
ATOM     14  C   UNL     1      -0.672  51.182  26.887  0.00  0.00    +0.000 A 
ATOM     15  C   UNL     1       0.442  49.530  28.315  0.00  0.00    +0.000 A 
ATOM     16  C   UNL     1       0.301  52.222  26.946  0.00  0.00    +0.000 A 
ATOM     17  C   UNL     1       1.367  51.758  27.767  0.00  0.00    +0.000 A 
ATOM     18  C   UNL     1       1.548  50.527  28.462  0.00  0.00    +0.000 A 
ATOM     19  C   UNL     1       0.545  48.351  28.955  0.00  0.00    +0.000 C 
BRANCH  16  20
ATOM     20  O   UNL     1      -0.065  53.536  26.907  0.00  0.00    +0.000 OA
ATOM     21  H   UNL     1      -0.867  53.695  27.431  0.00  0.00    +0.000 HD
ENDBRANCH  16  20
BRANCH  18  22
ATOM     22  O   UNL     1       2.659  50.270  29.229  0.00  0.00    +0.000 OA
ATOM     23  H   UNL     1       2.393  50.039  30.140  0.00  0.00    +0.000 HD
ENDBRANCH  18  22
ENDBRANCH  12  13
ENDBRANCH   7  11
BRANCH   2  24
ATOM     24  C   UNL     1      -8.885  47.137  25.325  0.00  0.00    +0.000 C 
ATOM     25  C   UNL     1      -9.125  46.574  23.948  0.00  0.00    +0.000 C 
BRANCH  24  26
ATOM     26  C   UNL     1     -10.053  47.338  26.111  0.00  0.00    +0.000 C 
ATOM     27  C   UNL     1     -11.319  47.563  26.947  0.00  0.00    +0.000 C 
BRANCH  27  28
ATOM     28  C   UNL     1     -12.591  47.796  27.772  0.00  0.00    +0.000 C 
BRANCH  28  29
ATOM     29  C   UNL     1     -13.802  48.021  28.562  0.00  0.00    +0.000 C 
ATOM     30  C   UNL     1     -13.862  47.149  29.821  0.00  0.00    +0.000 C 
ATOM     31  C   UNL     1     -14.026  49.496  28.914  0.00  0.00    +0.000 C 
BRANCH  29  32
ATOM     32  O   UNL     1     -14.925  47.649  27.794  0.00  0.00    +0.000 OA
ATOM     33  H   UNL     1     -15.260  48.536  27.593  0.00  0.00    +0.000 HD
ENDBRANCH  29  32
ENDBRANCH  28  29
ENDBRANCH  27  28
ENDBRANCH  24  26
ENDBRANCH   2  24
TORSDOF 9
ENDMDL
MODEL 3
REMARK VINA RESULT:      -7.3      2.209      2.580
REMARK  Name = Calcitriol.pdbqt.pdb
REMARK  9 active torsions:
REMARK  status: ('A' for Active; 'I' for Inactive)
REMARK    1  A    between atoms: C_2  and  C_24
REMARK    2  A    between atoms: C_7  and  C_11
REMARK    3  A    between atoms: C_12  and  C_13
REMARK    4  A    between atoms: C_16  and  O_20
REMARK    5  A    between atoms: C_18  and  O_22
REMARK    6  A    between atoms: C_24  and  C_26
REMARK    7  A    between atoms: C_27  and  C_28
REMARK    8  A    between atoms: C_28  and  C_29
REMARK    9  A    between atoms: C_29  and  O_32
REMARK                            x       y       z     vdW  Elec       q    Type
REMARK                         _______ _______ _______ _____ _____    ______ ____
ROOT
ATOM      1  C   UNL     1      -6.821  47.868  26.872  0.00  0.00    +0.000 C 
ATOM      2  C   UNL     1      -7.553  46.985  25.865  0.00  0.00    +0.000 C 
ATOM      3  C   UNL     1      -5.447  47.045  27.145  0.00  0.00    +0.000 C 
ATOM      4  C   UNL     1      -6.708  45.907  25.468  0.00  0.00    +0.000 C 
ATOM      5  C   UNL     1      -5.409  45.951  26.224  0.00  0.00    +0.000 C 
ATOM      6  C   UNL     1      -7.497  47.998  28.173  0.00  0.00    +0.000 C 
ATOM      7  C   UNL     1      -4.909  46.907  28.503  0.00  0.00    +0.000 C 
ATOM      8  C   UNL     1      -6.409  49.222  26.228  0.00  0.00    +0.000 C 
ATOM      9  C   UNL     1      -7.214  47.807  29.652  0.00  0.00    +0.000 C 
ATOM     10  C   UNL     1      -5.805  47.261  29.547  0.00  0.00    +0.000 C 
ENDROOT
BRANCH   7  11
ATOM     11  C   UNL     1      -3.764  46.371  28.787  0.00  0.00    +0.000 C 
ATOM     12  C   UNL     1      -2.415  45.728  29.134  0.00  0.00    +0.000 C 
BRANCH  12  13
ATOM     13  C   UNL     1      -1.278  45.177  29.431  0.00  0.00    +0.000 A 
ATOM     14  C   UNL     1      -1.177  44.341  30.589  0.00  0.00    +0.000 A 
ATOM     15  C   UNL     1       0.021  45.360  28.709  0.00  0.00    +0.000 A 
ATOM     16  C   UNL     1      -0.092  43.645  31.197  0.00  0.00    +0.000 A 
ATOM     17  C   UNL     1       1.070  43.912  30.418  0.00  0.00    +0.000 A 
ATOM     18  C   UNL     1       1.251  44.691  29.240  0.00  0.00    +0.000 A 
ATOM     19  C   UNL     1       0.120  46.101  27.590  0.00  0.00    +0.000 C 
BRANCH  16  20
ATOM     20  O   UNL     1      -0.282  42.451  31.829  0.00  0.00    +0.000 OA
ATOM     21  H   UNL     1      -0.249  42.555  32.795  0.00  0.00    +0.000 HD
ENDBRANCH  16  20
BRANCH  18  22
ATOM     22  O   UNL     1       2.469  44.815  28.616  0.00  0.00    +0.000 OA
ATOM     23  H   UNL     1       2.432  45.516  27.937  0.00  0.00    +0.000 HD
ENDBRANCH  18  22
ENDBRANCH  12  13
ENDBRANCH   7  11
BRANCH   2  24
ATOM     24  C   UNL     1      -8.823  47.281  25.281  0.00  0.00    +0.000 C 
ATOM     25  C   UNL     1      -8.993  47.652  23.830  0.00  0.00    +0.000 C 
BRANCH  24  26
ATOM     26  C   UNL     1      -9.986  47.425  26.086  0.00  0.00    +0.000 C 
ATOM     27  C   UNL     1     -11.241  47.596  26.951  0.00  0.00    +0.000 C 
BRANCH  27  28
ATOM     28  C   UNL     1     -12.494  47.782  27.816  0.00  0.00    +0.000 C 
BRANCH  28  29
ATOM     29  C   UNL     1     -13.687  47.956  28.644  0.00  0.00    +0.000 C 
ATOM     30  C   UNL     1     -13.707  47.027  29.863  0.00  0.00    +0.000 C 
ATOM     31  C   UNL     1     -13.920  49.410  29.069  0.00  0.00    +0.000 C 
BRANCH  29  32
ATOM     32  O   UNL     1     -14.825  47.606  27.887  0.00  0.00    +0.000 OA
ATOM     33  H   UNL     1     -15.504  47.971  28.474  0.00  0.00    +0.000 HD
ENDBRANCH  29  32
ENDBRANCH  28  29
ENDBRANCH  27  28
ENDBRANCH  24  26
ENDBRANCH   2  24
TORSDOF 9
ENDMDL
MODEL 4
REMARK VINA RESULT:      -7.3      3.656     10.123
REMARK  Name = Calcitriol.pdbqt.pdb
REMARK  9 active torsions:
REMARK  status: ('A' for Active; 'I' for Inactive)
REMARK    1  A    between atoms: C_2  and  C_24
REMARK    2  A    between atoms: C_7  and  C_11
REMARK    3  A    between atoms: C_12  and  C_13
REMARK    4  A    between atoms: C_16  and  O_20
REMARK    5  A    between atoms: C_18  and  O_22
REMARK    6  A    between atoms: C_24  and  C_26
REMARK    7  A    between atoms: C_27  and  C_28
REMARK    8  A    between atoms: C_28  and  C_29
REMARK    9  A    between atoms: C_29  and  O_32
REMARK                            x       y       z     vdW  Elec       q    Type
REMARK                         _______ _______ _______ _____ _____    ______ ____
ROOT
ATOM      1  C   UNL     1      -2.326  47.794  28.508  0.00  0.00    +0.000 C 
ATOM      2  C   UNL     1      -1.803  46.384  28.252  0.00  0.00    +0.000 C 
ATOM      3  C   UNL     1      -3.797  47.767  27.819  0.00  0.00    +0.000 C 
ATOM      4  C   UNL     1      -2.832  45.590  27.664  0.00  0.00    +0.000 C 
ATOM      5  C   UNL     1      -4.063  46.419  27.421  0.00  0.00    +0.000 C 
ATOM      6  C   UNL     1      -1.566  48.858  27.832  0.00  0.00    +0.000 C 
ATOM      7  C   UNL     1      -4.272  48.900  27.015  0.00  0.00    +0.000 C 
ATOM      8  C   UNL     1      -2.550  48.038  30.028  0.00  0.00    +0.000 C 
ATOM      9  C   UNL     1      -1.792  50.028  26.891  0.00  0.00    +0.000 C 
ATOM     10  C   UNL     1      -3.274  49.839  26.642  0.00  0.00    +0.000 C 
ENDROOT
BRANCH   7  11
ATOM     11  C   UNL     1      -5.471  49.004  26.534  0.00  0.00    +0.000 C 
ATOM     12  C   UNL     1      -6.885  49.124  25.951  0.00  0.00    +0.000 C 
BRANCH  12  13
ATOM     13  C   UNL     1      -8.079  49.219  25.452  0.00  0.00    +0.000 A 
ATOM     14  C   UNL     1      -8.650  48.101  24.762  0.00  0.00    +0.000 A 
ATOM     15  C   UNL     1      -8.959  50.431  25.458  0.00  0.00    +0.000 A 
ATOM     16  C   UNL     1      -9.884  47.905  24.079  0.00  0.00    +0.000 A 
ATOM     17  C   UNL     1     -10.609  49.128  24.156  0.00  0.00    +0.000 A 
ATOM     18  C   UNL     1     -10.287  50.372  24.771  0.00  0.00    +0.000 A 
ATOM     19  C   UNL     1      -8.598  51.573  26.071  0.00  0.00    +0.000 C 
BRANCH  16  20
ATOM     20  O   UNL     1     -10.509  46.691  24.079  0.00  0.00    +0.000 OA
ATOM     21  H   UNL     1     -11.354  46.730  24.556  0.00  0.00    +0.000 HD
ENDBRANCH  16  20
BRANCH  18  22
ATOM     22  O   UNL     1     -11.141  51.448  24.751  0.00  0.00    +0.000 OA
ATOM     23  H   UNL     1     -10.854  52.094  24.076  0.00  0.00    +0.000 HD
ENDBRANCH  18  22
ENDBRANCH  12  13
ENDBRANCH   7  11
BRANCH   2  24
ATOM     24  C   UNL     1      -0.538  45.883  28.686  0.00  0.00    +0.000 C 
ATOM     25  C   UNL     1       0.751  46.164  27.957  0.00  0.00    +0.000 C 
BRANCH  24  26
ATOM     26  C   UNL     1      -0.446  44.929  29.736  0.00  0.00    +0.000 C 
ATOM     27  C   UNL     1      -0.337  43.890  30.859  0.00  0.00    +0.000 C 
BRANCH  27  28
ATOM     28  C   UNL     1      -0.222  42.842  31.973  0.00  0.00    +0.000 C 
BRANCH  28  29
ATOM     29  C   UNL     1      -0.111  41.840  33.033  0.00  0.00    +0.000 C 
ATOM     30  C   UNL     1       1.330  41.642  33.516  0.00  0.00    +0.000 C 
ATOM     31  C   UNL     1      -1.046  42.109  34.218  0.00  0.00    +0.000 C 
BRANCH  29  32
ATOM     32  O   UNL     1      -0.511  40.587  32.524  0.00  0.00    +0.000 OA
ATOM     33  H   UNL     1      -1.451  40.633  32.755  0.00  0.00    +0.000 HD
ENDBRANCH  29  32
ENDBRANCH  28  29
ENDBRANCH  27  28
ENDBRANCH  24  26
ENDBRANCH   2  24
TORSDOF 9
ENDMDL
MODEL 5
REMARK VINA RESULT:      -7.0      2.866     11.035
REMARK  Name = Calcitriol.pdbqt.pdb
REMARK  9 active torsions:
REMARK  status: ('A' for Active; 'I' for Inactive)
REMARK    1  A    between atoms: C_2  and  C_24
REMARK    2  A    between atoms: C_7  and  C_11
REMARK    3  A    between atoms: C_12  and  C_13
REMARK    4  A    between atoms: C_16  and  O_20
REMARK    5  A    between atoms: C_18  and  O_22
REMARK    6  A    between atoms: C_24  and  C_26
REMARK    7  A    between atoms: C_27  and  C_28
REMARK    8  A    between atoms: C_28  and  C_29
REMARK    9  A    between atoms: C_29  and  O_32
REMARK                            x       y       z     vdW  Elec       q    Type
REMARK                         _______ _______ _______ _____ _____    ______ ____
ROOT
ATOM      1  C   UNL     1      -4.980  46.871  26.425  0.00  0.00    +0.000 C 
ATOM      2  C   UNL     1      -4.060  48.073  26.618  0.00  0.00    +0.000 C 
ATOM      3  C   UNL     1      -6.441  47.556  26.248  0.00  0.00    +0.000 C 
ATOM      4  C   UNL     1      -4.799  49.278  26.424  0.00  0.00    +0.000 C 
ATOM      5  C   UNL     1      -6.249  48.971  26.170  0.00  0.00    +0.000 C 
ATOM      6  C   UNL     1      -5.073  45.981  27.595  0.00  0.00    +0.000 C 
ATOM      7  C   UNL     1      -7.624  46.989  26.908  0.00  0.00    +0.000 C 
ATOM      8  C   UNL     1      -4.665  46.137  25.091  0.00  0.00    +0.000 C 
ATOM      9  C   UNL     1      -6.121  45.367  28.505  0.00  0.00    +0.000 C 
ATOM     10  C   UNL     1      -7.350  46.031  27.920  0.00  0.00    +0.000 C 
ENDROOT
BRANCH   7  11
ATOM     11  C   UNL     1      -8.837  47.405  26.721  0.00  0.00    +0.000 C 
ATOM     12  C   UNL     1     -10.274  47.898  26.515  0.00  0.00    +0.000 C 
BRANCH  12  13
ATOM     13  C   UNL     1     -11.491  48.319  26.349  0.00  0.00    +0.000 A 
ATOM     14  C   UNL     1     -11.836  49.039  25.159  0.00  0.00    +0.000 A 
ATOM     15  C   UNL     1     -12.625  48.189  27.318  0.00  0.00    +0.000 A 
ATOM     16  C   UNL     1     -13.037  49.657  24.708  0.00  0.00    +0.000 A 
ATOM     17  C   UNL     1     -14.018  49.465  25.722  0.00  0.00    +0.000 A 
ATOM     18  C   UNL     1     -13.949  48.798  26.979  0.00  0.00    +0.000 A 
ATOM     19  C   UNL     1     -12.495  47.533  28.486  0.00  0.00    +0.000 C 
BRANCH  16  20
ATOM     20  O   UNL     1     -13.362  49.691  23.383  0.00  0.00    +0.000 OA
ATOM     21  H   UNL     1     -12.878  50.395  22.919  0.00  0.00    +0.000 HD
ENDBRANCH  16  20
BRANCH  18  22
ATOM     22  O   UNL     1     -15.028  48.704  27.825  0.00  0.00    +0.000 OA
ATOM     23  H   UNL     1     -15.439  47.821  27.752  0.00  0.00    +0.000 HD
ENDBRANCH  18  22
ENDBRANCH  12  13
ENDBRANCH   7  11
BRANCH   2  24
ATOM     24  C   UNL     1      -2.645  48.007  26.798  0.00  0.00    +0.000 C 
ATOM     25  C   UNL     1      -1.930  46.756  27.239  0.00  0.00    +0.000 C 
BRANCH  24  26
ATOM     26  C   UNL     1      -1.843  49.180  26.749  0.00  0.00    +0.000 C 
ATOM     27  C   UNL     1      -0.990  50.453  26.689  0.00  0.00    +0.000 C 
BRANCH  27  28
ATOM     28  C   UNL     1      -0.147  51.733  26.621  0.00  0.00    +0.000 C 
BRANCH  28  29
ATOM     29  C   UNL     1       0.661  52.951  26.557  0.00  0.00    +0.000 C 
ATOM     30  C   UNL     1      -0.080  54.185  27.085  0.00  0.00    +0.000 C 
ATOM     31  C   UNL     1       2.026  52.807  27.239  0.00  0.00    +0.000 C 
BRANCH  29  32
ATOM     32  O   UNL     1       0.951  53.238  25.207  0.00  0.00    +0.000 OA
ATOM     33  H   UNL     1       0.217  52.756  24.798  0.00  0.00    +0.000 HD
ENDBRANCH  29  32
ENDBRANCH  28  29
ENDBRANCH  27  28
ENDBRANCH  24  26
ENDBRANCH   2  24
TORSDOF 9
ENDMDL
MODEL 6
REMARK VINA RESULT:      -6.9     24.994     27.627
REMARK  Name = Calcitriol.pdbqt.pdb
REMARK  9 active torsions:
REMARK  status: ('A' for Active; 'I' for Inactive)
REMARK    1  A    between atoms: C_2  and  C_24
REMARK    2  A    between atoms: C_7  and  C_11
REMARK    3  A    between atoms: C_12  and  C_13
REMARK    4  A    between atoms: C_16  and  O_20
REMARK    5  A    between atoms: C_18  and  O_22
REMARK    6  A    between atoms: C_24  and  C_26
REMARK    7  A    between atoms: C_27  and  C_28
REMARK    8  A    between atoms: C_28  and  C_29
REMARK    9  A    between atoms: C_29  and  O_32
REMARK                            x       y       z     vdW  Elec       q    Type
REMARK                         _______ _______ _______ _____ _____    ______ ____
ROOT
ATOM      1  C   UNL     1     -13.160  33.875   4.396  0.00  0.00    +0.000 C 
ATOM      2  C   UNL     1     -12.084  33.542   5.425  0.00  0.00    +0.000 C 
ATOM      3  C   UNL     1     -13.557  35.406   4.768  0.00  0.00    +0.000 C 
ATOM      4  C   UNL     1     -11.763  34.710   6.179  0.00  0.00    +0.000 C 
ATOM      5  C   UNL     1     -12.638  35.861   5.765  0.00  0.00    +0.000 C 
ATOM      6  C   UNL     1     -14.392  33.080   4.523  0.00  0.00    +0.000 C 
ATOM      7  C   UNL     1     -14.960  35.838   4.780  0.00  0.00    +0.000 C 
ATOM      8  C   UNL     1     -12.566  33.905   2.959  0.00  0.00    +0.000 C 
ATOM      9  C   UNL     1     -15.890  33.276   4.668  0.00  0.00    +0.000 C 
ATOM     10  C   UNL     1     -15.916  34.788   4.753  0.00  0.00    +0.000 C 
ENDROOT
BRANCH   7  11
ATOM     11  C   UNL     1     -15.348  37.062   4.949  0.00  0.00    +0.000 C 
ATOM     12  C   UNL     1     -15.819  38.507   5.157  0.00  0.00    +0.000 C 
BRANCH  12  13
ATOM     13  C   UNL     1     -16.222  39.727   5.340  0.00  0.00    +0.000 A 
ATOM     14  C   UNL     1     -15.268  40.795   5.351  0.00  0.00    +0.000 A 
ATOM     15  C   UNL     1     -17.625  40.176   5.611  0.00  0.00    +0.000 A 
ATOM     16  C   UNL     1     -15.379  42.199   5.566  0.00  0.00    +0.000 A 
ATOM     17  C   UNL     1     -16.752  42.481   5.817  0.00  0.00    +0.000 A 
ATOM     18  C   UNL     1     -17.891  41.627   5.863  0.00  0.00    +0.000 A 
ATOM     19  C   UNL     1     -18.661  39.317   5.627  0.00  0.00    +0.000 C 
BRANCH  16  20
ATOM     20  O   UNL     1     -14.565  43.082   4.917  0.00  0.00    +0.000 OA
ATOM     21  H   UNL     1     -13.915  43.474   5.524  0.00  0.00    +0.000 HD
ENDBRANCH  16  20
BRANCH  18  22
ATOM     22  O   UNL     1     -19.158  42.099   6.109  0.00  0.00    +0.000 OA
ATOM     23  H   UNL     1     -19.466  41.799   6.986  0.00  0.00    +0.000 HD
ENDBRANCH  18  22
ENDBRANCH  12  13
ENDBRANCH   7  11
BRANCH   2  24
ATOM     24  C   UNL     1     -11.384  32.300   5.512  0.00  0.00    +0.000 C 
ATOM     25  C   UNL     1     -10.306  31.894   4.540  0.00  0.00    +0.000 C 
BRANCH  24  26
ATOM     26  C   UNL     1     -11.797  31.286   6.419  0.00  0.00    +0.000 C 
ATOM     27  C   UNL     1     -12.258  30.198   7.397  0.00  0.00    +0.000 C 
BRANCH  27  28
ATOM     28  C   UNL     1     -12.732  29.115   8.375  0.00  0.00    +0.000 C 
BRANCH  28  29
ATOM     29  C   UNL     1     -13.183  28.080   9.305  0.00  0.00    +0.000 C 
ATOM     30  C   UNL     1     -14.041  27.005   8.628  0.00  0.00    +0.000 C 
ATOM     31  C   UNL     1     -12.038  27.438  10.096  0.00  0.00    +0.000 C 
BRANCH  29  32
ATOM     32  O   UNL     1     -14.018  28.669  10.277  0.00  0.00    +0.000 OA
ATOM     33  H   UNL     1     -13.330  29.018  10.864  0.00  0.00    +0.000 HD
ENDBRANCH  29  32
ENDBRANCH  28  29
ENDBRANCH  27  28
ENDBRANCH  24  26
ENDBRANCH   2  24
TORSDOF 9
ENDMDL
MODEL 7
REMARK VINA RESULT:      -6.8     24.784     26.776
REMARK  Name = Calcitriol.pdbqt.pdb
REMARK  9 active torsions:
REMARK  status: ('A' for Active; 'I' for Inactive)
REMARK    1  A    between atoms: C_2  and  C_24
REMARK    2  A    between atoms: C_7  and  C_11
REMARK    3  A    between atoms: C_12  and  C_13
REMARK    4  A    between atoms: C_16  and  O_20
REMARK    5  A    between atoms: C_18  and  O_22
REMARK    6  A    between atoms: C_24  and  C_26
REMARK    7  A    between atoms: C_27  and  C_28
REMARK    8  A    between atoms: C_28  and  C_29
REMARK    9  A    between atoms: C_29  and  O_32
REMARK                            x       y       z     vdW  Elec       q    Type
REMARK                         _______ _______ _______ _____ _____    ______ ____
ROOT
ATOM      1  C   UNL     1     -11.826  31.798   5.312  0.00  0.00    +0.000 C 
ATOM      2  C   UNL     1     -11.713  33.283   5.644  0.00  0.00    +0.000 C 
ATOM      3  C   UNL     1     -11.423  31.080   6.712  0.00  0.00    +0.000 C 
ATOM      4  C   UNL     1     -11.454  33.445   7.038  0.00  0.00    +0.000 C 
ATOM      5  C   UNL     1     -11.303  32.104   7.704  0.00  0.00    +0.000 C 
ATOM      6  C   UNL     1     -10.863  31.324   4.305  0.00  0.00    +0.000 C 
ATOM      7  C   UNL     1     -10.544  29.905   6.730  0.00  0.00    +0.000 C 
ATOM      8  C   UNL     1     -13.301  31.404   5.017  0.00  0.00    +0.000 C 
ATOM      9  C   UNL     1      -9.800  30.254   4.129  0.00  0.00    +0.000 C 
ATOM     10  C   UNL     1      -9.853  29.648   5.517  0.00  0.00    +0.000 C 
ENDROOT
BRANCH   7  11
ATOM     11  C   UNL     1     -10.273  29.208   7.789  0.00  0.00    +0.000 C 
ATOM     12  C   UNL     1      -9.957  28.396   9.051  0.00  0.00    +0.000 C 
BRANCH  12  13
ATOM     13  C   UNL     1      -9.695  27.713  10.123  0.00  0.00    +0.000 A 
ATOM     14  C   UNL     1     -10.628  26.728  10.582  0.00  0.00    +0.000 A 
ATOM     15  C   UNL     1      -8.504  27.873  11.018  0.00  0.00    +0.000 A 
ATOM     16  C   UNL     1     -10.657  25.868  11.717  0.00  0.00    +0.000 A 
ATOM     17  C   UNL     1      -9.481  26.130  12.476  0.00  0.00    +0.000 A 
ATOM     18  C   UNL     1      -8.404  27.035  12.254  0.00  0.00    +0.000 A 
ATOM     19  C   UNL     1      -7.514  28.740  10.743  0.00  0.00    +0.000 C 
BRANCH  16  20
ATOM     20  O   UNL     1     -11.212  24.623  11.648  0.00  0.00    +0.000 OA
ATOM     21  H   UNL     1     -11.903  24.583  10.966  0.00  0.00    +0.000 HD
ENDBRANCH  16  20
BRANCH  18  22
ATOM     22  O   UNL     1      -7.332  27.131  13.109  0.00  0.00    +0.000 OA
ATOM     23  H   UNL     1      -7.492  26.600  13.913  0.00  0.00    +0.000 HD
ENDBRANCH  18  22
ENDBRANCH  12  13
ENDBRANCH   7  11
BRANCH   2  24
ATOM     24  C   UNL     1     -11.990  34.353   4.739  0.00  0.00    +0.000 C 
ATOM     25  C   UNL     1     -11.109  34.682   3.561  0.00  0.00    +0.000 C 
BRANCH  24  26
ATOM     26  C   UNL     1     -13.022  35.294   5.008  0.00  0.00    +0.000 C 
ATOM     27  C   UNL     1     -14.130  36.309   5.314  0.00  0.00    +0.000 C 
BRANCH  27  28
ATOM     28  C   UNL     1     -15.234  37.325   5.633  0.00  0.00    +0.000 C 
BRANCH  28  29
ATOM     29  C   UNL     1     -16.286  38.293   5.942  0.00  0.00    +0.000 C 
ATOM     30  C   UNL     1     -15.792  39.744   5.892  0.00  0.00    +0.000 C 
ATOM     31  C   UNL     1     -17.539  38.120   5.076  0.00  0.00    +0.000 C 
BRANCH  29  32
ATOM     32  O   UNL     1     -16.721  38.091   7.268  0.00  0.00    +0.000 OA
ATOM     33  H   UNL     1     -17.005  37.168   7.185  0.00  0.00    +0.000 HD
ENDBRANCH  29  32
ENDBRANCH  28  29
ENDBRANCH  27  28
ENDBRANCH  24  26
ENDBRANCH   2  24
TORSDOF 9
ENDMDL
MODEL 8
REMARK VINA RESULT:      -6.5      3.521     10.344
REMARK  Name = Calcitriol.pdbqt.pdb
REMARK  9 active torsions:
REMARK  status: ('A' for Active; 'I' for Inactive)
REMARK    1  A    between atoms: C_2  and  C_24
REMARK    2  A    between atoms: C_7  and  C_11
REMARK    3  A    between atoms: C_12  and  C_13
REMARK    4  A    between atoms: C_16  and  O_20
REMARK    5  A    between atoms: C_18  and  O_22
REMARK    6  A    between atoms: C_24  and  C_26
REMARK    7  A    between atoms: C_27  and  C_28
REMARK    8  A    between atoms: C_28  and  C_29
REMARK    9  A    between atoms: C_29  and  O_32
REMARK                            x       y       z     vdW  Elec       q    Type
REMARK                         _______ _______ _______ _____ _____    ______ ____
ROOT
ATOM      1  C   UNL     1      -2.467  46.881  27.339  0.00  0.00    +0.000 C 
ATOM      2  C   UNL     1      -1.735  47.794  28.318  0.00  0.00    +0.000 C 
ATOM      3  C   UNL     1      -3.784  47.746  26.949  0.00  0.00    +0.000 C 
ATOM      4  C   UNL     1      -2.397  49.056  28.383  0.00  0.00    +0.000 C 
ATOM      5  C   UNL     1      -3.635  49.046  27.529  0.00  0.00    +0.000 C 
ATOM      6  C   UNL     1      -2.951  45.622  27.928  0.00  0.00    +0.000 C 
ATOM      7  C   UNL     1      -5.103  47.109  26.855  0.00  0.00    +0.000 C 
ATOM      8  C   UNL     1      -1.649  46.698  26.029  0.00  0.00    +0.000 C 
ATOM      9  C   UNL     1      -4.237  44.826  28.071  0.00  0.00    +0.000 C 
ATOM     10  C   UNL     1      -5.187  45.806  27.412  0.00  0.00    +0.000 C 
ENDROOT
BRANCH   7  11
ATOM     11  C   UNL     1      -6.176  47.704  26.436  0.00  0.00    +0.000 C 
ATOM     12  C   UNL     1      -7.453  48.395  25.942  0.00  0.00    +0.000 C 
BRANCH  12  13
ATOM     13  C   UNL     1      -8.539  48.973  25.528  0.00  0.00    +0.000 A 
ATOM     14  C   UNL     1      -8.762  50.357  25.825  0.00  0.00    +0.000 A 
ATOM     15  C   UNL     1      -9.672  48.329  24.790  0.00  0.00    +0.000 A 
ATOM     16  C   UNL     1      -9.842  51.248  25.561  0.00  0.00    +0.000 A 
ATOM     17  C   UNL     1     -10.841  50.507  24.869  0.00  0.00    +0.000 A 
ATOM     18  C   UNL     1     -10.879  49.146  24.451  0.00  0.00    +0.000 A 
ATOM     19  C   UNL     1      -9.638  47.038  24.413  0.00  0.00    +0.000 C 
BRANCH  16  20
ATOM     20  O   UNL     1      -9.623  52.573  25.318  0.00  0.00    +0.000 OA
ATOM     21  H   UNL     1      -8.749  52.851  25.640  0.00  0.00    +0.000 HD
ENDBRANCH  16  20
BRANCH  18  22
ATOM     22  O   UNL     1     -11.946  48.613  23.768  0.00  0.00    +0.000 OA
ATOM     23  H   UNL     1     -11.717  48.490  22.826  0.00  0.00    +0.000 HD
ENDBRANCH  18  22
ENDBRANCH  12  13
ENDBRANCH   7  11
BRANCH   2  24
ATOM     24  C   UNL     1      -0.486  47.498  28.945  0.00  0.00    +0.000 C 
ATOM     25  C   UNL     1       0.811  48.152  28.543  0.00  0.00    +0.000 C 
BRANCH  24  26
ATOM     26  C   UNL     1      -0.364  46.423  29.867  0.00  0.00    +0.000 C 
ATOM     27  C   UNL     1      -0.248  45.266  30.867  0.00  0.00    +0.000 C 
BRANCH  27  28
ATOM     28  C   UNL     1      -0.144  44.112  31.873  0.00  0.00    +0.000 C 
BRANCH  28  29
ATOM     29  C   UNL     1      -0.040  43.012  32.831  0.00  0.00    +0.000 C 
ATOM     30  C   UNL     1       1.398  42.764  33.300  0.00  0.00    +0.000 C 
ATOM     31  C   UNL     1      -0.980  43.167  34.032  0.00  0.00    +0.000 C 
BRANCH  29  32
ATOM     32  O   UNL     1      -0.440  41.816  32.201  0.00  0.00    +0.000 OA
ATOM     33  H   UNL     1      -0.988  42.200  31.501  0.00  0.00    +0.000 HD
ENDBRANCH  29  32
ENDBRANCH  28  29
ENDBRANCH  27  28
ENDBRANCH  24  26
ENDBRANCH   2  24
TORSDOF 9
ENDMDL
MODEL 9
REMARK VINA RESULT:      -6.4     25.055     26.890
REMARK  Name = Calcitriol.pdbqt.pdb
REMARK  9 active torsions:
REMARK  status: ('A' for Active; 'I' for Inactive)
REMARK    1  A    between atoms: C_2  and  C_24
REMARK    2  A    between atoms: C_7  and  C_11
REMARK    3  A    between atoms: C_12  and  C_13
REMARK    4  A    between atoms: C_16  and  O_20
REMARK    5  A    between atoms: C_18  and  O_22
REMARK    6  A    between atoms: C_24  and  C_26
REMARK    7  A    between atoms: C_27  and  C_28
REMARK    8  A    between atoms: C_28  and  C_29
REMARK    9  A    between atoms: C_29  and  O_32
REMARK                            x       y       z     vdW  Elec       q    Type
REMARK                         _______ _______ _______ _____ _____    ______ ____
ROOT
ATOM      1  C   UNL     1     -11.569  31.181   5.637  0.00  0.00    +0.000 C 
ATOM      2  C   UNL     1     -11.499  32.682   5.904  0.00  0.00    +0.000 C 
ATOM      3  C   UNL     1     -11.305  30.538   7.105  0.00  0.00    +0.000 C 
ATOM      4  C   UNL     1     -11.383  32.915   7.306  0.00  0.00    +0.000 C 
ATOM      5  C   UNL     1     -11.292  31.611   8.050  0.00  0.00    +0.000 C 
ATOM      6  C   UNL     1     -10.506  30.668   4.758  0.00  0.00    +0.000 C 
ATOM      7  C   UNL     1     -10.426  29.375   7.270  0.00  0.00    +0.000 C 
ATOM      8  C   UNL     1     -13.004  30.757   5.215  0.00  0.00    +0.000 C 
ATOM      9  C   UNL     1      -9.425  29.603   4.743  0.00  0.00    +0.000 C 
ATOM     10  C   UNL     1      -9.614  29.066   6.147  0.00  0.00    +0.000 C 
ENDROOT
BRANCH   7  11
ATOM     11  C   UNL     1     -10.260  28.735   8.385  0.00  0.00    +0.000 C 
ATOM     12  C   UNL     1     -10.062  27.990   9.711  0.00  0.00    +0.000 C 
BRANCH  12  13
ATOM     13  C   UNL     1      -9.898  27.367  10.838  0.00  0.00    +0.000 A 
ATOM     14  C   UNL     1      -8.599  27.321  11.439  0.00  0.00    +0.000 A 
ATOM     15  C   UNL     1     -10.938  26.604  11.599  0.00  0.00    +0.000 A 
ATOM     16  C   UNL     1      -8.092  26.697  12.616  0.00  0.00    +0.000 A 
ATOM     17  C   UNL     1      -9.176  26.007  13.229  0.00  0.00    +0.000 A 
ATOM     18  C   UNL     1     -10.545  25.891  12.855  0.00  0.00    +0.000 A 
ATOM     19  C   UNL     1     -12.220  26.544  11.196  0.00  0.00    +0.000 C 
BRANCH  16  20
ATOM     20  O   UNL     1      -7.091  27.270  13.346  0.00  0.00    +0.000 OA
ATOM     21  H   UNL     1      -6.877  28.158  13.015  0.00  0.00    +0.000 HD
ENDBRANCH  16  20
BRANCH  18  22
ATOM     22  O   UNL     1     -11.456  25.181  13.601  0.00  0.00    +0.000 OA
ATOM     23  H   UNL     1     -11.115  25.039  14.505  0.00  0.00    +0.000 HD
ENDBRANCH  18  22
ENDBRANCH  12  13
ENDBRANCH   7  11
BRANCH   2  24
ATOM     24  C   UNL     1     -11.689  33.703   4.923  0.00  0.00    +0.000 C 
ATOM     25  C   UNL     1     -10.762  33.899   3.750  0.00  0.00    +0.000 C 
BRANCH  24  26
ATOM     26  C   UNL     1     -12.668  34.718   5.100  0.00  0.00    +0.000 C 
ATOM     27  C   UNL     1     -13.729  35.812   5.275  0.00  0.00    +0.000 C 
BRANCH  27  28
ATOM     28  C   UNL     1     -14.793  36.905   5.437  0.00  0.00    +0.000 C 
BRANCH  28  29
ATOM     29  C   UNL     1     -15.807  37.948   5.595  0.00  0.00    +0.000 C 
ATOM     30  C   UNL     1     -16.741  37.694   6.784  0.00  0.00    +0.000 C 
ATOM     31  C   UNL     1     -15.215  39.360   5.666  0.00  0.00    +0.000 C 
BRANCH  29  32
ATOM     32  O   UNL     1     -16.641  37.953   4.458  0.00  0.00    +0.000 OA
ATOM     33  H   UNL     1     -16.349  37.118   4.063  0.00  0.00    +0.000 HD
ENDBRANCH  29  32
ENDBRANCH  28  29
ENDBRANCH  27  28
ENDBRANCH  24  26
ENDBRANCH   2  24
TORSDOF 9
ENDMDL
