MODEL 1
REMARK VINA RESULT:      -7.1      0.000      0.000
REMARK  Name = Cdk12_Inhibitor.pdbqt.pdb
REMARK  6 active torsions:
REMARK  status: ('A' for Active; 'I' for Inactive)
REMARK    1  A    between atoms: N_1  and  C_23
REMARK    2  A    between atoms: N_9  and  C_11
REMARK    3  A    between atoms: C_14  and  S_17
REMARK    4  A    between atoms: S_17  and  N_20
REMARK    5  A    between atoms: C_23  and  N_25
REMARK    6  A    between atoms: N_25  and  C_27
REMARK                            x       y       z     vdW  Elec       q    Type
REMARK                         _______ _______ _______ _____ _____    ______ ____
ROOT
ATOM      1  N   UNL     1       1.119  27.492  12.746  0.00  0.00    +0.000 N 
ATOM      2  N   UNL     1       0.924  27.512  14.091  0.00  0.00    +0.000 NA
ATOM      3  N   UNL     1      -0.045  29.332  13.146  0.00  0.00    +0.000 NA
ATOM      4  N   UNL     1       0.655  29.038  10.907  0.00  0.00    +0.000 N 
ATOM      5  C   UNL     1       0.196  28.609  14.277  0.00  0.00    +0.000 A 
ATOM      6  C   UNL     1       0.567  28.658  12.207  0.00  0.00    +0.000 A 
ATOM      7  H   UNL     1       1.583  28.994  10.483  0.00  0.00    +0.000 HD
ATOM      8  H   UNL     1       0.264  29.967  10.746  0.00  0.00    +0.000 HD
ATOM      9  N   UNL     1      -0.313  29.100  15.420  0.00  0.00    +0.000 N 
ATOM     10  H   UNL     1      -0.843  29.957  15.327  0.00  0.00    +0.000 HD
ENDROOT
BRANCH   9  11
ATOM     11  C   UNL     1      -0.253  28.597  16.731  0.00  0.00    +0.000 A 
ATOM     12  C   UNL     1       0.487  29.296  17.695  0.00  0.00    +0.000 A 
ATOM     13  C   UNL     1       0.590  28.832  19.003  0.00  0.00    +0.000 A 
ATOM     14  C   UNL     1      -0.041  27.644  19.348  0.00  0.00    +0.000 A 
ATOM     15  C   UNL     1      -0.799  26.935  18.424  0.00  0.00    +0.000 A 
ATOM     16  C   UNL     1      -0.890  27.412  17.120  0.00  0.00    +0.000 A 
BRANCH  14  17
ATOM     17  S   UNL     1       0.027  27.084  21.002  0.00  0.00    +0.000 S 
ATOM     18  O   UNL     1      -1.184  26.358  21.310  0.00  0.00    +0.000 OA
ATOM     19  O   UNL     1       1.337  26.542  21.271  0.00  0.00    +0.000 OA
BRANCH  17  20
ATOM     20  N   UNL     1      -0.072  28.518  21.870  0.00  0.00    +0.000 NA
ATOM     21  H   UNL     1      -0.872  29.062  21.546  0.00  0.00    +0.000 HD
ATOM     22  H   UNL     1      -0.091  28.313  22.870  0.00  0.00    +0.000 HD
ENDBRANCH  17  20
ENDBRANCH  14  17
ENDBRANCH   9  11
BRANCH   1  23
ATOM     23  C   UNL     1       1.774  26.391  12.121  0.00  0.00    +0.000 C 
ATOM     24  S   UNL     1       0.993  25.030  11.503  0.00  0.00    +0.000 S 
BRANCH  23  25
ATOM     25  N   UNL     1       3.138  26.676  11.983  0.00  0.00    +0.000 N 
ATOM     26  H   UNL     1       3.746  26.330  12.733  0.00  0.00    +0.000 HD
BRANCH  25  27
ATOM     27  C   UNL     1       3.790  27.580  11.102  0.00  0.00    +0.000 A 
ATOM     28  C   UNL     1       4.400  28.702  11.675  0.00  0.00    +0.000 A 
ATOM     29  F   UNL     1       4.331  28.879  13.004  0.00  0.00    +0.000 F 
ATOM     30  C   UNL     1       5.072  29.647  10.905  0.00  0.00    +0.000 A 
ATOM     31  C   UNL     1       5.164  29.466   9.529  0.00  0.00    +0.000 A 
ATOM     32  C   UNL     1       4.624  28.326   8.943  0.00  0.00    +0.000 A 
ATOM     33  C   UNL     1       3.950  27.389   9.728  0.00  0.00    +0.000 A 
ATOM     34  F   UNL     1       3.609  26.229   9.149  0.00  0.00    +0.000 F 
ENDBRANCH  25  27
ENDBRANCH  23  25
ENDBRANCH   1  23
TORSDOF 6
ENDMDL
MODEL 2
REMARK VINA RESULT:      -6.9     24.019     25.686
REMARK  Name = Cdk12_Inhibitor.pdbqt.pdb
REMARK  6 active torsions:
REMARK  status: ('A' for Active; 'I' for Inactive)
REMARK    1  A    between atoms: N_1  and  C_23
REMARK    2  A    between atoms: N_9  and  C_11
REMARK    3  A    between atoms: C_14  and  S_17
REMARK    4  A    between atoms: S_17  and  N_20
REMARK    5  A    between atoms: C_23  and  N_25
REMARK    6  A    between atoms: N_25  and  C_27
REMARK                            x       y       z     vdW  Elec       q    Type
REMARK                         _______ _______ _______ _____ _____    ______ ____
ROOT
ATOM      1  N   UNL     1      -3.098  47.544  28.353  0.00  0.00    +0.000 N 
ATOM      2  N   UNL     1      -4.209  47.758  27.601  0.00  0.00    +0.000 NA
ATOM      3  N   UNL     1      -2.905  46.187  26.615  0.00  0.00    +0.000 NA
ATOM      4  N   UNL     1      -1.049  46.235  28.078  0.00  0.00    +0.000 N 
ATOM      5  C   UNL     1      -4.066  46.902  26.594  0.00  0.00    +0.000 A 
ATOM      6  C   UNL     1      -2.289  46.621  27.684  0.00  0.00    +0.000 A 
ATOM      7  H   UNL     1      -0.401  46.981  28.334  0.00  0.00    +0.000 HD
ATOM      8  H   UNL     1      -0.597  45.625  27.397  0.00  0.00    +0.000 HD
ATOM      9  N   UNL     1      -4.896  46.663  25.565  0.00  0.00    +0.000 N 
ATOM     10  H   UNL     1      -4.584  45.960  24.908  0.00  0.00    +0.000 HD
ENDROOT
BRANCH   9  11
ATOM     11  C   UNL     1      -6.153  47.218  25.263  0.00  0.00    +0.000 A 
ATOM     12  C   UNL     1      -7.311  46.509  25.611  0.00  0.00    +0.000 A 
ATOM     13  C   UNL     1      -8.578  47.009  25.321  0.00  0.00    +0.000 A 
ATOM     14  C   UNL     1      -8.687  48.225  24.660  0.00  0.00    +0.000 A 
ATOM     15  C   UNL     1      -7.562  48.964  24.318  0.00  0.00    +0.000 A 
ATOM     16  C   UNL     1      -6.303  48.449  24.613  0.00  0.00    +0.000 A 
BRANCH  14  17
ATOM     17  S   UNL     1     -10.271  48.892  24.348  0.00  0.00    +0.000 S 
ATOM     18  O   UNL     1     -10.131  50.131  23.618  0.00  0.00    +0.000 OA
ATOM     19  O   UNL     1     -11.158  47.841  23.912  0.00  0.00    +0.000 OA
BRANCH  17  20
ATOM     20  N   UNL     1     -10.786  49.329  25.886  0.00  0.00    +0.000 NA
ATOM     21  H   UNL     1     -10.635  50.328  26.029  0.00  0.00    +0.000 HD
ATOM     22  H   UNL     1     -11.754  49.036  26.020  0.00  0.00    +0.000 HD
ENDBRANCH  17  20
ENDBRANCH  14  17
ENDBRANCH   9  11
BRANCH   1  23
ATOM     23  C   UNL     1      -2.928  48.203  29.606  0.00  0.00    +0.000 C 
ATOM     24  S   UNL     1      -2.898  47.429  31.104  0.00  0.00    +0.000 S 
BRANCH  23  25
ATOM     25  N   UNL     1      -2.657  49.559  29.387  0.00  0.00    +0.000 N 
ATOM     26  H   UNL     1      -3.416  50.209  29.616  0.00  0.00    +0.000 HD
BRANCH  25  27
ATOM     27  C   UNL     1      -1.594  50.166  28.667  0.00  0.00    +0.000 A 
ATOM     28  C   UNL     1      -0.324  50.135  29.256  0.00  0.00    +0.000 A 
ATOM     29  F   UNL     1      -0.173  49.557  30.459  0.00  0.00    +0.000 F 
ATOM     30  C   UNL     1       0.789  50.694  28.634  0.00  0.00    +0.000 A 
ATOM     31  C   UNL     1       0.647  51.280  27.381  0.00  0.00    +0.000 A 
ATOM     32  C   UNL     1      -0.590  51.266  26.745  0.00  0.00    +0.000 A 
ATOM     33  C   UNL     1      -1.697  50.705  27.382  0.00  0.00    +0.000 A 
ATOM     34  F   UNL     1      -2.816  50.554  26.660  0.00  0.00    +0.000 F 
ENDBRANCH  25  27
ENDBRANCH  23  25
ENDBRANCH   1  23
TORSDOF 6
ENDMDL
MODEL 3
REMARK VINA RESULT:      -6.8     25.458     28.068
REMARK  Name = Cdk12_Inhibitor.pdbqt.pdb
REMARK  6 active torsions:
REMARK  status: ('A' for Active; 'I' for Inactive)
REMARK    1  A    between atoms: N_1  and  C_23
REMARK    2  A    between atoms: N_9  and  C_11
REMARK    3  A    between atoms: C_14  and  S_17
REMARK    4  A    between atoms: S_17  and  N_20
REMARK    5  A    between atoms: C_23  and  N_25
REMARK    6  A    between atoms: N_25  and  C_27
REMARK                            x       y       z     vdW  Elec       q    Type
REMARK                         _______ _______ _______ _____ _____    ______ ____
ROOT
ATOM      1  N   UNL     1     -11.612  49.732  25.091  0.00  0.00    +0.000 N 
ATOM      2  N   UNL     1     -12.833  49.731  24.495  0.00  0.00    +0.000 NA
ATOM      3  N   UNL     1     -11.801  51.719  24.134  0.00  0.00    +0.000 NA
ATOM      4  N   UNL     1      -9.860  51.403  25.444  0.00  0.00    +0.000 N 
ATOM      5  C   UNL     1     -12.886  50.924  23.908  0.00  0.00    +0.000 A 
ATOM      6  C   UNL     1     -11.035  50.992  24.905  0.00  0.00    +0.000 A 
ATOM      7  H   UNL     1      -9.731  51.225  26.441  0.00  0.00    +0.000 HD
ATOM      8  H   UNL     1      -9.669  52.388  25.257  0.00  0.00    +0.000 HD
ATOM      9  N   UNL     1     -13.861  51.445  23.144  0.00  0.00    +0.000 N 
ATOM     10  H   UNL     1     -13.688  52.380  22.797  0.00  0.00    +0.000 HD
ENDROOT
BRANCH   9  11
ATOM     11  C   UNL     1     -15.082  50.889  22.724  0.00  0.00    +0.000 A 
ATOM     12  C   UNL     1     -15.309  50.701  21.354  0.00  0.00    +0.000 A 
ATOM     13  C   UNL     1     -16.508  50.168  20.887  0.00  0.00    +0.000 A 
ATOM     14  C   UNL     1     -17.498  49.834  21.801  0.00  0.00    +0.000 A 
ATOM     15  C   UNL     1     -17.300  49.988  23.168  0.00  0.00    +0.000 A 
ATOM     16  C   UNL     1     -16.097  50.525  23.618  0.00  0.00    +0.000 A 
BRANCH  14  17
ATOM     17  S   UNL     1     -18.980  49.105  21.233  0.00  0.00    +0.000 S 
ATOM     18  O   UNL     1     -19.631  48.427  22.331  0.00  0.00    +0.000 OA
ATOM     19  O   UNL     1     -19.681  50.039  20.385  0.00  0.00    +0.000 OA
BRANCH  17  20
ATOM     20  N   UNL     1     -18.417  47.888  20.221  0.00  0.00    +0.000 NA
ATOM     21  H   UNL     1     -17.565  47.484  20.611  0.00  0.00    +0.000 HD
ATOM     22  H   UNL     1     -19.159  47.207  20.057  0.00  0.00    +0.000 HD
ENDBRANCH  17  20
ENDBRANCH  14  17
ENDBRANCH   9  11
BRANCH   1  23
ATOM     23  C   UNL     1     -11.120  48.565  25.746  0.00  0.00    +0.000 C 
ATOM     24  S   UNL     1     -11.643  48.013  27.252  0.00  0.00    +0.000 S 
BRANCH  23  25
ATOM     25  N   UNL     1     -10.244  47.884  24.891  0.00  0.00    +0.000 N 
ATOM     26  H   UNL     1     -10.677  47.205  24.256  0.00  0.00    +0.000 HD
BRANCH  25  27
ATOM     27  C   UNL     1      -8.827  47.797  24.929  0.00  0.00    +0.000 A 
ATOM     28  C   UNL     1      -8.114  48.612  24.042  0.00  0.00    +0.000 A 
ATOM     29  F   UNL     1      -8.787  49.413  23.201  0.00  0.00    +0.000 F 
ATOM     30  C   UNL     1      -6.722  48.611  24.001  0.00  0.00    +0.000 A 
ATOM     31  C   UNL     1      -6.014  47.798  24.879  0.00  0.00    +0.000 A 
ATOM     32  C   UNL     1      -6.697  47.028  25.815  0.00  0.00    +0.000 A 
ATOM     33  C   UNL     1      -8.092  47.037  25.842  0.00  0.00    +0.000 A 
ATOM     34  F   UNL     1      -8.695  46.425  26.872  0.00  0.00    +0.000 F 
ENDBRANCH  25  27
ENDBRANCH  23  25
ENDBRANCH   1  23
TORSDOF 6
ENDMDL
MODEL 4
REMARK VINA RESULT:      -6.5     23.473     25.235
REMARK  Name = Cdk12_Inhibitor.pdbqt.pdb
REMARK  6 active torsions:
REMARK  status: ('A' for Active; 'I' for Inactive)
REMARK    1  A    between atoms: N_1  and  C_23
REMARK    2  A    between atoms: N_9  and  C_11
REMARK    3  A    between atoms: C_14  and  S_17
REMARK    4  A    between atoms: S_17  and  N_20
REMARK    5  A    between atoms: C_23  and  N_25
REMARK    6  A    between atoms: N_25  and  C_27
REMARK                            x       y       z     vdW  Elec       q    Type
REMARK                         _______ _______ _______ _____ _____    ______ ____
ROOT
ATOM      1  N   UNL     1     -16.643  41.354   4.578  0.00  0.00    +0.000 N 
ATOM      2  N   UNL     1     -16.921  40.092   4.999  0.00  0.00    +0.000 NA
ATOM      3  N   UNL     1     -14.767  40.611   5.487  0.00  0.00    +0.000 NA
ATOM      4  N   UNL     1     -14.628  42.736   4.463  0.00  0.00    +0.000 N 
ATOM      5  C   UNL     1     -15.782  39.703   5.564  0.00  0.00    +0.000 A 
ATOM      6  C   UNL     1     -15.294  41.614   4.835  0.00  0.00    +0.000 A 
ATOM      7  H   UNL     1     -14.749  43.036   3.495  0.00  0.00    +0.000 HD
ATOM      8  H   UNL     1     -13.630  42.682   4.668  0.00  0.00    +0.000 HD
ATOM      9  N   UNL     1     -15.500  38.542   6.181  0.00  0.00    +0.000 N 
ATOM     10  H   UNL     1     -14.559  38.460   6.544  0.00  0.00    +0.000 HD
ENDROOT
BRANCH   9  11
ATOM     11  C   UNL     1     -16.316  37.424   6.430  0.00  0.00    +0.000 A 
ATOM     12  C   UNL     1     -17.358  37.535   7.361  0.00  0.00    +0.000 A 
ATOM     13  C   UNL     1     -18.183  36.453   7.653  0.00  0.00    +0.000 A 
ATOM     14  C   UNL     1     -17.953  35.239   7.018  0.00  0.00    +0.000 A 
ATOM     15  C   UNL     1     -16.942  35.098   6.076  0.00  0.00    +0.000 A 
ATOM     16  C   UNL     1     -16.124  36.190   5.797  0.00  0.00    +0.000 A 
BRANCH  14  17
ATOM     17  S   UNL     1     -19.021  33.892   7.329  0.00  0.00    +0.000 S 
ATOM     18  O   UNL     1     -20.364  34.385   7.533  0.00  0.00    +0.000 OA
ATOM     19  O   UNL     1     -18.728  32.824   6.404  0.00  0.00    +0.000 OA
BRANCH  17  20
ATOM     20  N   UNL     1     -18.501  33.361   8.835  0.00  0.00    +0.000 NA
ATOM     21  H   UNL     1     -18.251  34.163   9.415  0.00  0.00    +0.000 HD
ATOM     22  H   UNL     1     -19.212  32.758   9.250  0.00  0.00    +0.000 HD
ENDBRANCH  17  20
ENDBRANCH  14  17
ENDBRANCH   9  11
BRANCH   1  23
ATOM     23  C   UNL     1     -17.662  42.172   4.007  0.00  0.00    +0.000 C 
ATOM     24  S   UNL     1     -17.748  42.606   2.379  0.00  0.00    +0.000 S 
BRANCH  23  25
ATOM     25  N   UNL     1     -18.640  42.443   4.971  0.00  0.00    +0.000 N 
ATOM     26  H   UNL     1     -18.293  42.745   5.888  0.00  0.00    +0.000 HD
BRANCH  25  27
ATOM     27  C   UNL     1     -20.026  42.131   4.968  0.00  0.00    +0.000 A 
ATOM     28  C   UNL     1     -20.443  41.072   5.784  0.00  0.00    +0.000 A 
ATOM     29  F   UNL     1     -19.532  40.403   6.508  0.00  0.00    +0.000 F 
ATOM     30  C   UNL     1     -21.779  40.687   5.862  0.00  0.00    +0.000 A 
ATOM     31  C   UNL     1     -22.734  41.384   5.130  0.00  0.00    +0.000 A 
ATOM     32  C   UNL     1     -22.355  42.481   4.363  0.00  0.00    +0.000 A 
ATOM     33  C   UNL     1     -21.012  42.853   4.292  0.00  0.00    +0.000 A 
ATOM     34  F   UNL     1     -20.723  44.016   3.691  0.00  0.00    +0.000 F 
ENDBRANCH  25  27
ENDBRANCH  23  25
ENDBRANCH   1  23
TORSDOF 6
ENDMDL
MODEL 5
REMARK VINA RESULT:      -6.2      2.648      3.958
REMARK  Name = Cdk12_Inhibitor.pdbqt.pdb
REMARK  6 active torsions:
REMARK  status: ('A' for Active; 'I' for Inactive)
REMARK    1  A    between atoms: N_1  and  C_23
REMARK    2  A    between atoms: N_9  and  C_11
REMARK    3  A    between atoms: C_14  and  S_17
REMARK    4  A    between atoms: S_17  and  N_20
REMARK    5  A    between atoms: C_23  and  N_25
REMARK    6  A    between atoms: N_25  and  C_27
REMARK                            x       y       z     vdW  Elec       q    Type
REMARK                         _______ _______ _______ _____ _____    ______ ____
ROOT
ATOM      1  N   UNL     1       0.823  27.541  12.928  0.00  0.00    +0.000 N 
ATOM      2  N   UNL     1       0.584  27.644  14.261  0.00  0.00    +0.000 NA
ATOM      3  N   UNL     1      -0.033  29.562  13.218  0.00  0.00    +0.000 NA
ATOM      4  N   UNL     1       0.691  29.071  11.023  0.00  0.00    +0.000 N 
ATOM      5  C   UNL     1       0.043  28.853  14.381  0.00  0.00    +0.000 A 
ATOM      6  C   UNL     1       0.493  28.761  12.329  0.00  0.00    +0.000 A 
ATOM      7  H   UNL     1       1.614  28.858  10.640  0.00  0.00    +0.000 HD
ATOM      8  H   UNL     1       0.466  30.044  10.816  0.00  0.00    +0.000 HD
ATOM      9  N   UNL     1      -0.421  29.464  15.485  0.00  0.00    +0.000 N 
ATOM     10  H   UNL     1      -0.796  30.393  15.342  0.00  0.00    +0.000 HD
ENDROOT
BRANCH   9  11
ATOM     11  C   UNL     1      -0.493  29.009  16.813  0.00  0.00    +0.000 A 
ATOM     12  C   UNL     1      -1.659  28.365  17.250  0.00  0.00    +0.000 A 
ATOM     13  C   UNL     1      -1.785  27.910  18.560  0.00  0.00    +0.000 A 
ATOM     14  C   UNL     1      -0.737  28.115  19.448  0.00  0.00    +0.000 A 
ATOM     15  C   UNL     1       0.441  28.731  19.045  0.00  0.00    +0.000 A 
ATOM     16  C   UNL     1       0.549  29.183  17.732  0.00  0.00    +0.000 A 
BRANCH  14  17
ATOM     17  S   UNL     1      -0.858  27.492  21.076  0.00  0.00    +0.000 S 
ATOM     18  O   UNL     1      -2.182  27.753  21.590  0.00  0.00    +0.000 OA
ATOM     19  O   UNL     1      -0.258  26.181  21.133  0.00  0.00    +0.000 OA
BRANCH  17  20
ATOM     20  N   UNL     1       0.168  28.513  21.928  0.00  0.00    +0.000 NA
ATOM     21  H   UNL     1      -0.107  28.535  22.910  0.00  0.00    +0.000 HD
ATOM     22  H   UNL     1       1.137  28.229  21.777  0.00  0.00    +0.000 HD
ENDBRANCH  17  20
ENDBRANCH  14  17
ENDBRANCH   9  11
BRANCH   1  23
ATOM     23  C   UNL     1       1.309  26.324  12.367  0.00  0.00    +0.000 C 
ATOM     24  S   UNL     1       2.939  25.915  12.221  0.00  0.00    +0.000 S 
BRANCH  23  25
ATOM     25  N   UNL     1       0.232  25.476  12.083  0.00  0.00    +0.000 N 
ATOM     26  H   UNL     1       0.407  24.473  12.207  0.00  0.00    +0.000 HD
BRANCH  25  27
ATOM     27  C   UNL     1      -0.989  25.756  11.413  0.00  0.00    +0.000 A 
ATOM     28  C   UNL     1      -2.139  25.869  12.203  0.00  0.00    +0.000 A 
ATOM     29  F   UNL     1      -2.042  25.697  13.531  0.00  0.00    +0.000 F 
ATOM     30  C   UNL     1      -3.386  26.149  11.651  0.00  0.00    +0.000 A 
ATOM     31  C   UNL     1      -3.496  26.346  10.279  0.00  0.00    +0.000 A 
ATOM     32  C   UNL     1      -2.358  26.305   9.480  0.00  0.00    +0.000 A 
ATOM     33  C   UNL     1      -1.115  26.020  10.047  0.00  0.00    +0.000 A 
ATOM     34  F   UNL     1      -0.032  26.170   9.272  0.00  0.00    +0.000 F 
ENDBRANCH  25  27
ENDBRANCH  23  25
ENDBRANCH   1  23
TORSDOF 6
ENDMDL
MODEL 6
REMARK VINA RESULT:      -6.1     22.932     24.028
REMARK  Name = Cdk12_Inhibitor.pdbqt.pdb
REMARK  6 active torsions:
REMARK  status: ('A' for Active; 'I' for Inactive)
REMARK    1  A    between atoms: N_1  and  C_23
REMARK    2  A    between atoms: N_9  and  C_11
REMARK    3  A    between atoms: C_14  and  S_17
REMARK    4  A    between atoms: S_17  and  N_20
REMARK    5  A    between atoms: C_23  and  N_25
REMARK    6  A    between atoms: N_25  and  C_27
REMARK                            x       y       z     vdW  Elec       q    Type
REMARK                         _______ _______ _______ _____ _____    ______ ____
ROOT
ATOM      1  N   UNL     1      -2.643  46.869  27.475  0.00  0.00    +0.000 N 
ATOM      2  N   UNL     1      -2.225  46.107  28.520  0.00  0.00    +0.000 NA
ATOM      3  N   UNL     1      -1.106  48.080  28.509  0.00  0.00    +0.000 NA
ATOM      4  N   UNL     1      -1.950  49.005  26.505  0.00  0.00    +0.000 N 
ATOM      5  C   UNL     1      -1.334  46.886  29.127  0.00  0.00    +0.000 A 
ATOM      6  C   UNL     1      -1.887  48.045  27.462  0.00  0.00    +0.000 A 
ATOM      7  H   UNL     1      -1.912  48.684  25.536  0.00  0.00    +0.000 HD
ATOM      8  H   UNL     1      -1.248  49.734  26.639  0.00  0.00    +0.000 HD
ATOM      9  N   UNL     1      -0.628  46.646  30.246  0.00  0.00    +0.000 N 
ATOM     10  H   UNL     1      -0.001  47.388  30.531  0.00  0.00    +0.000 HD
ENDROOT
BRANCH   9  11
ATOM     11  C   UNL     1      -0.638  45.535  31.106  0.00  0.00    +0.000 A 
ATOM     12  C   UNL     1      -0.053  44.336  30.677  0.00  0.00    +0.000 A 
ATOM     13  C   UNL     1      -0.051  43.203  31.487  0.00  0.00    +0.000 A 
ATOM     14  C   UNL     1      -0.656  43.266  32.735  0.00  0.00    +0.000 A 
ATOM     15  C   UNL     1      -1.228  44.443  33.201  0.00  0.00    +0.000 A 
ATOM     16  C   UNL     1      -1.224  45.566  32.378  0.00  0.00    +0.000 A 
BRANCH  14  17
ATOM     17  S   UNL     1      -0.603  41.871  33.785  0.00  0.00    +0.000 S 
ATOM     18  O   UNL     1       0.552  41.967  34.648  0.00  0.00    +0.000 OA
ATOM     19  O   UNL     1      -1.925  41.606  34.299  0.00  0.00    +0.000 OA
BRANCH  17  20
ATOM     20  N   UNL     1      -0.262  40.625  32.711  0.00  0.00    +0.000 NA
ATOM     21  H   UNL     1      -0.188  39.744  33.218  0.00  0.00    +0.000 HD
ATOM     22  H   UNL     1      -0.959  40.615  31.965  0.00  0.00    +0.000 HD
ENDBRANCH  17  20
ENDBRANCH  14  17
ENDBRANCH   9  11
BRANCH   1  23
ATOM     23  C   UNL     1      -3.700  46.426  26.628  0.00  0.00    +0.000 C 
ATOM     24  S   UNL     1      -3.558  45.211  25.466  0.00  0.00    +0.000 S 
BRANCH  23  25
ATOM     25  N   UNL     1      -4.894  47.056  27.000  0.00  0.00    +0.000 N 
ATOM     26  H   UNL     1      -5.050  47.158  28.009  0.00  0.00    +0.000 HD
BRANCH  25  27
ATOM     27  C   UNL     1      -6.042  47.355  26.220  0.00  0.00    +0.000 A 
ATOM     28  C   UNL     1      -6.094  48.619  25.620  0.00  0.00    +0.000 A 
ATOM     29  F   UNL     1      -5.084  49.481  25.817  0.00  0.00    +0.000 F 
ATOM     30  C   UNL     1      -7.169  49.013  24.829  0.00  0.00    +0.000 A 
ATOM     31  C   UNL     1      -8.214  48.123  24.604  0.00  0.00    +0.000 A 
ATOM     32  C   UNL     1      -8.156  46.838  25.134  0.00  0.00    +0.000 A 
ATOM     33  C   UNL     1      -7.073  46.458  25.928  0.00  0.00    +0.000 A 
ATOM     34  F   UNL     1      -6.975  45.164  26.263  0.00  0.00    +0.000 F 
ENDBRANCH  25  27
ENDBRANCH  23  25
ENDBRANCH   1  23
TORSDOF 6
ENDMDL
MODEL 7
REMARK VINA RESULT:      -6.1     20.590     22.340
REMARK  Name = Cdk12_Inhibitor.pdbqt.pdb
REMARK  6 active torsions:
REMARK  status: ('A' for Active; 'I' for Inactive)
REMARK    1  A    between atoms: N_1  and  C_23
REMARK    2  A    between atoms: N_9  and  C_11
REMARK    3  A    between atoms: C_14  and  S_17
REMARK    4  A    between atoms: S_17  and  N_20
REMARK    5  A    between atoms: C_23  and  N_25
REMARK    6  A    between atoms: N_25  and  C_27
REMARK                            x       y       z     vdW  Elec       q    Type
REMARK                         _______ _______ _______ _____ _____    ______ ____
ROOT
ATOM      1  N   UNL     1     -17.200  34.541   5.784  0.00  0.00    +0.000 N 
ATOM      2  N   UNL     1     -17.050  35.877   5.585  0.00  0.00    +0.000 NA
ATOM      3  N   UNL     1     -18.108  35.506   7.557  0.00  0.00    +0.000 NA
ATOM      4  N   UNL     1     -18.338  33.157   7.449  0.00  0.00    +0.000 N 
ATOM      5  C   UNL     1     -17.576  36.410   6.684  0.00  0.00    +0.000 A 
ATOM      6  C   UNL     1     -17.911  34.353   6.972  0.00  0.00    +0.000 A 
ATOM      7  H   UNL     1     -18.818  32.548   6.784  0.00  0.00    +0.000 HD
ATOM      8  H   UNL     1     -18.919  33.255   8.283  0.00  0.00    +0.000 HD
ATOM      9  N   UNL     1     -17.663  37.704   7.036  0.00  0.00    +0.000 N 
ATOM     10  H   UNL     1     -18.106  37.883   7.928  0.00  0.00    +0.000 HD
ENDROOT
BRANCH   9  11
ATOM     11  C   UNL     1     -17.212  38.858   6.373  0.00  0.00    +0.000 A 
ATOM     12  C   UNL     1     -18.150  39.713   5.779  0.00  0.00    +0.000 A 
ATOM     13  C   UNL     1     -17.752  40.861   5.099  0.00  0.00    +0.000 A 
ATOM     14  C   UNL     1     -16.398  41.148   4.996  0.00  0.00    +0.000 A 
ATOM     15  C   UNL     1     -15.441  40.333   5.588  0.00  0.00    +0.000 A 
ATOM     16  C   UNL     1     -15.855  39.189   6.263  0.00  0.00    +0.000 A 
BRANCH  14  17
ATOM     17  S   UNL     1     -15.890  42.618   4.199  0.00  0.00    +0.000 S 
ATOM     18  O   UNL     1     -16.272  43.754   5.006  0.00  0.00    +0.000 OA
ATOM     19  O   UNL     1     -14.549  42.451   3.694  0.00  0.00    +0.000 OA
BRANCH  17  20
ATOM     20  N   UNL     1     -16.893  42.662   2.853  0.00  0.00    +0.000 NA
ATOM     21  H   UNL     1     -17.119  43.630   2.624  0.00  0.00    +0.000 HD
ATOM     22  H   UNL     1     -16.460  42.147   2.086  0.00  0.00    +0.000 HD
ENDBRANCH  17  20
ENDBRANCH  14  17
ENDBRANCH   9  11
BRANCH   1  23
ATOM     23  C   UNL     1     -16.652  33.602   4.862  0.00  0.00    +0.000 C 
ATOM     24  S   UNL     1     -17.381  32.145   4.425  0.00  0.00    +0.000 S 
BRANCH  23  25
ATOM     25  N   UNL     1     -15.494  34.135   4.282  0.00  0.00    +0.000 N 
ATOM     26  H   UNL     1     -15.612  34.555   3.354  0.00  0.00    +0.000 HD
BRANCH  25  27
ATOM     27  C   UNL     1     -14.135  33.970   4.658  0.00  0.00    +0.000 A 
ATOM     28  C   UNL     1     -13.442  35.116   5.067  0.00  0.00    +0.000 A 
ATOM     29  F   UNL     1     -14.076  36.299   5.072  0.00  0.00    +0.000 F 
ATOM     30  C   UNL     1     -12.108  35.066   5.463  0.00  0.00    +0.000 A 
ATOM     31  C   UNL     1     -11.446  33.844   5.478  0.00  0.00    +0.000 A 
ATOM     32  C   UNL     1     -12.130  32.680   5.140  0.00  0.00    +0.000 A 
ATOM     33  C   UNL     1     -13.466  32.746   4.742  0.00  0.00    +0.000 A 
ATOM     34  F   UNL     1     -14.128  31.589   4.602  0.00  0.00    +0.000 F 
ENDBRANCH  25  27
ENDBRANCH  23  25
ENDBRANCH   1  23
TORSDOF 6
ENDMDL
MODEL 8
REMARK VINA RESULT:      -6.0     23.890     25.808
REMARK  Name = Cdk12_Inhibitor.pdbqt.pdb
REMARK  6 active torsions:
REMARK  status: ('A' for Active; 'I' for Inactive)
REMARK    1  A    between atoms: N_1  and  C_23
REMARK    2  A    between atoms: N_9  and  C_11
REMARK    3  A    between atoms: C_14  and  S_17
REMARK    4  A    between atoms: S_17  and  N_20
REMARK    5  A    between atoms: C_23  and  N_25
REMARK    6  A    between atoms: N_25  and  C_27
REMARK                            x       y       z     vdW  Elec       q    Type
REMARK                         _______ _______ _______ _____ _____    ______ ____
ROOT
ATOM      1  N   UNL     1     -16.303  37.711   5.887  0.00  0.00    +0.000 N 
ATOM      2  N   UNL     1     -17.014  38.843   5.642  0.00  0.00    +0.000 NA
ATOM      3  N   UNL     1     -14.796  39.320   5.683  0.00  0.00    +0.000 NA
ATOM      4  N   UNL     1     -13.947  37.204   6.304  0.00  0.00    +0.000 N 
ATOM      5  C   UNL     1     -16.071  39.769   5.493  0.00  0.00    +0.000 A 
ATOM      6  C   UNL     1     -14.951  38.054   5.971  0.00  0.00    +0.000 A 
ATOM      7  H   UNL     1     -14.098  36.623   7.130  0.00  0.00    +0.000 HD
ATOM      8  H   UNL     1     -13.049  37.680   6.396  0.00  0.00    +0.000 HD
ATOM      9  N   UNL     1     -16.207  41.073   5.198  0.00  0.00    +0.000 N 
ATOM     10  H   UNL     1     -15.344  41.596   5.132  0.00  0.00    +0.000 HD
ENDROOT
BRANCH   9  11
ATOM     11  C   UNL     1     -17.364  41.830   4.939  0.00  0.00    +0.000 A 
ATOM     12  C   UNL     1     -18.601  41.363   5.404  0.00  0.00    +0.000 A 
ATOM     13  C   UNL     1     -19.776  42.069   5.161  0.00  0.00    +0.000 A 
ATOM     14  C   UNL     1     -19.715  43.247   4.429  0.00  0.00    +0.000 A 
ATOM     15  C   UNL     1     -18.504  43.749   3.970  0.00  0.00    +0.000 A 
ATOM     16  C   UNL     1     -17.339  43.031   4.220  0.00  0.00    +0.000 A 
BRANCH  14  17
ATOM     17  S   UNL     1     -21.174  44.174   4.172  0.00  0.00    +0.000 S 
ATOM     18  O   UNL     1     -21.125  44.788   2.865  0.00  0.00    +0.000 OA
ATOM     19  O   UNL     1     -22.313  43.410   4.619  0.00  0.00    +0.000 OA
BRANCH  17  20
ATOM     20  N   UNL     1     -20.996  45.433   5.270  0.00  0.00    +0.000 NA
ATOM     21  H   UNL     1     -20.411  45.131   6.048  0.00  0.00    +0.000 HD
ATOM     22  H   UNL     1     -20.645  46.262   4.787  0.00  0.00    +0.000 HD
ENDBRANCH  17  20
ENDBRANCH  14  17
ENDBRANCH   9  11
BRANCH   1  23
ATOM     23  C   UNL     1     -16.958  36.450   5.997  0.00  0.00    +0.000 C 
ATOM     24  S   UNL     1     -16.610  35.098   5.049  0.00  0.00    +0.000 S 
BRANCH  23  25
ATOM     25  N   UNL     1     -17.831  36.469   7.092  0.00  0.00    +0.000 N 
ATOM     26  H   UNL     1     -17.397  36.341   8.012  0.00  0.00    +0.000 HD
BRANCH  25  27
ATOM     27  C   UNL     1     -19.248  36.390   7.122  0.00  0.00    +0.000 A 
ATOM     28  C   UNL     1     -19.815  35.111   7.175  0.00  0.00    +0.000 A 
ATOM     29  F   UNL     1     -19.010  34.036   7.181  0.00  0.00    +0.000 F 
ATOM     30  C   UNL     1     -21.193  34.918   7.215  0.00  0.00    +0.000 A 
ATOM     31  C   UNL     1     -22.036  36.024   7.227  0.00  0.00    +0.000 A 
ATOM     32  C   UNL     1     -21.498  37.306   7.242  0.00  0.00    +0.000 A 
ATOM     33  C   UNL     1     -20.114  37.484   7.198  0.00  0.00    +0.000 A 
ATOM     34  F   UNL     1     -19.643  38.723   7.396  0.00  0.00    +0.000 F 
ENDBRANCH  25  27
ENDBRANCH  23  25
ENDBRANCH   1  23
TORSDOF 6
ENDMDL
MODEL 9
REMARK VINA RESULT:      -6.0      2.235      3.258
REMARK  Name = Cdk12_Inhibitor.pdbqt.pdb
REMARK  6 active torsions:
REMARK  status: ('A' for Active; 'I' for Inactive)
REMARK    1  A    between atoms: N_1  and  C_23
REMARK    2  A    between atoms: N_9  and  C_11
REMARK    3  A    between atoms: C_14  and  S_17
REMARK    4  A    between atoms: S_17  and  N_20
REMARK    5  A    between atoms: C_23  and  N_25
REMARK    6  A    between atoms: N_25  and  C_27
REMARK                            x       y       z     vdW  Elec       q    Type
REMARK                         _______ _______ _______ _____ _____    ______ ____
ROOT
ATOM      1  N   UNL     1       1.640  27.700  12.662  0.00  0.00    +0.000 N 
ATOM      2  N   UNL     1       1.256  27.780  13.963  0.00  0.00    +0.000 NA
ATOM      3  N   UNL     1      -0.011  29.175  12.700  0.00  0.00    +0.000 NA
ATOM      4  N   UNL     1       1.055  28.896  10.609  0.00  0.00    +0.000 N 
ATOM      5  C   UNL     1       0.247  28.646  13.930  0.00  0.00    +0.000 A 
ATOM      6  C   UNL     1       0.885  28.618  11.926  0.00  0.00    +0.000 A 
ATOM      7  H   UNL     1       2.013  29.073  10.303  0.00  0.00    +0.000 HD
ATOM      8  H   UNL     1       0.461  29.663  10.293  0.00  0.00    +0.000 HD
ATOM      9  N   UNL     1      -0.532  29.072  14.939  0.00  0.00    +0.000 N 
ATOM     10  H   UNL     1      -1.249  29.739  14.683  0.00  0.00    +0.000 HD
ENDROOT
BRANCH   9  11
ATOM     11  C   UNL     1      -0.530  28.719  16.300  0.00  0.00    +0.000 A 
ATOM     12  C   UNL     1       0.424  29.294  17.151  0.00  0.00    +0.000 A 
ATOM     13  C   UNL     1       0.476  28.966  18.503  0.00  0.00    +0.000 A 
ATOM     14  C   UNL     1      -0.426  28.039  19.007  0.00  0.00    +0.000 A 
ATOM     15  C   UNL     1      -1.398  27.464  18.197  0.00  0.00    +0.000 A 
ATOM     16  C   UNL     1      -1.435  27.801  16.847  0.00  0.00    +0.000 A 
BRANCH  14  17
ATOM     17  S   UNL     1      -0.412  27.668  20.714  0.00  0.00    +0.000 S 
ATOM     18  O   UNL     1      -0.970  26.351  20.921  0.00  0.00    +0.000 OA
ATOM     19  O   UNL     1       0.855  28.061  21.281  0.00  0.00    +0.000 OA
BRANCH  17  20
ATOM     20  N   UNL     1      -1.550  28.742  21.325  0.00  0.00    +0.000 NA
ATOM     21  H   UNL     1      -1.077  29.539  21.750  0.00  0.00    +0.000 HD
ATOM     22  H   UNL     1      -2.210  28.997  20.589  0.00  0.00    +0.000 HD
ENDBRANCH  17  20
ENDBRANCH  14  17
ENDBRANCH   9  11
BRANCH   1  23
ATOM     23  C   UNL     1       2.644  26.774  12.255  0.00  0.00    +0.000 C 
ATOM     24  S   UNL     1       4.300  27.094  12.241  0.00  0.00    +0.000 S 
BRANCH  23  25
ATOM     25  N   UNL     1       2.056  25.529  11.999  0.00  0.00    +0.000 N 
ATOM     26  H   UNL     1       2.330  24.767  12.628  0.00  0.00    +0.000 HD
BRANCH  25  27
ATOM     27  C   UNL     1       1.332  25.086  10.860  0.00  0.00    +0.000 A 
ATOM     28  C   UNL     1       2.040  24.355   9.899  0.00  0.00    +0.000 A 
ATOM     29  F   UNL     1       3.349  24.122  10.084  0.00  0.00    +0.000 F 
ATOM     30  C   UNL     1       1.427  23.867   8.748  0.00  0.00    +0.000 A 
ATOM     31  C   UNL     1       0.068  24.088   8.553  0.00  0.00    +0.000 A 
ATOM     32  C   UNL     1      -0.673  24.754   9.525  0.00  0.00    +0.000 A 
ATOM     33  C   UNL     1      -0.043  25.240  10.672  0.00  0.00    +0.000 A 
ATOM     34  F   UNL     1      -0.825  25.711  11.654  0.00  0.00    +0.000 F 
ENDBRANCH  25  27
ENDBRANCH  23  25
ENDBRANCH   1  23
TORSDOF 6
ENDMDL
