MODEL 1
REMARK VINA RESULT:      -6.7      0.000      0.000
REMARK  Name = CHEMBL35349.pdbqt.pdb
REMARK  2 active torsions:
REMARK  status: ('A' for Active; 'I' for Inactive)
REMARK    1  A    between atoms: C_2  and  C_11
REMARK    2  A    between atoms: C_5  and  O_21
REMARK                            x       y       z     vdW  Elec       q    Type
REMARK                         _______ _______ _______ _____ _____    ______ ____
ROOT
ATOM      1  N   UNL     1      -2.530  46.194  27.658  0.00  0.00    +0.000 N 
ATOM      2  C   UNL     1      -4.398  47.083  26.820  0.00  0.00    +0.000 A 
ATOM      3  C   UNL     1      -3.410  48.116  26.977  0.00  0.00    +0.000 A 
ATOM      4  C   UNL     1      -2.261  47.529  27.502  0.00  0.00    +0.000 A 
ATOM      5  C   UNL     1      -3.806  45.906  27.255  0.00  0.00    +0.000 A 
ATOM      6  C   UNL     1      -3.391  49.502  26.722  0.00  0.00    +0.000 A 
ATOM      7  C   UNL     1      -1.093  48.246  27.785  0.00  0.00    +0.000 A 
ATOM      8  C   UNL     1      -2.237  50.238  26.996  0.00  0.00    +0.000 A 
ATOM      9  C   UNL     1      -1.109  49.615  27.519  0.00  0.00    +0.000 A 
ATOM     10  H   UNL     1      -1.886  45.505  28.019  0.00  0.00    +0.000 HD
ENDROOT
BRANCH   2  11
ATOM     11  C   UNL     1      -5.741  47.239  26.308  0.00  0.00    +0.000 C 
ATOM     12  N   UNL     1      -5.999  47.874  25.194  0.00  0.00    +0.000 NA
ATOM     13  C   UNL     1      -7.396  47.824  25.020  0.00  0.00    +0.000 A 
ATOM     14  C   UNL     1      -8.068  47.146  26.034  0.00  0.00    +0.000 A 
ATOM     15  C   UNL     1      -8.116  48.367  23.973  0.00  0.00    +0.000 A 
ATOM     16  C   UNL     1      -7.027  46.718  26.945  0.00  0.00    +0.000 C 
ATOM     17  C   UNL     1      -9.434  46.971  26.076  0.00  0.00    +0.000 A 
ATOM     18  O   UNL     1      -7.118  46.095  27.977  0.00  0.00    +0.000 OA
ATOM     19  C   UNL     1     -10.156  47.521  25.018  0.00  0.00    +0.000 A 
ATOM     20  C   UNL     1      -9.507  48.211  23.979  0.00  0.00    +0.000 A 
ENDBRANCH   2  11
BRANCH   5  21
ATOM     21  O   UNL     1      -4.210  44.644  27.350  0.00  0.00    +0.000 OA
ATOM     22  H   UNL     1      -4.535  44.326  26.477  0.00  0.00    +0.000 HD
ENDBRANCH   5  21
TORSDOF 2
ENDMDL
MODEL 2
REMARK VINA RESULT:      -6.4      1.755      2.132
REMARK  Name = CHEMBL35349.pdbqt.pdb
REMARK  2 active torsions:
REMARK  status: ('A' for Active; 'I' for Inactive)
REMARK    1  A    between atoms: C_2  and  C_11
REMARK    2  A    between atoms: C_5  and  O_21
REMARK                            x       y       z     vdW  Elec       q    Type
REMARK                         _______ _______ _______ _____ _____    ______ ____
ROOT
ATOM      1  N   UNL     1      -2.895  46.992  29.700  0.00  0.00    +0.000 N 
ATOM      2  C   UNL     1      -4.111  47.139  27.833  0.00  0.00    +0.000 A 
ATOM      3  C   UNL     1      -2.752  46.817  27.491  0.00  0.00    +0.000 A 
ATOM      4  C   UNL     1      -2.023  46.733  28.675  0.00  0.00    +0.000 A 
ATOM      5  C   UNL     1      -4.152  47.239  29.216  0.00  0.00    +0.000 A 
ATOM      6  C   UNL     1      -2.074  46.589  26.276  0.00  0.00    +0.000 A 
ATOM      7  C   UNL     1      -0.656  46.435  28.716  0.00  0.00    +0.000 A 
ATOM      8  C   UNL     1      -0.711  46.288  26.293  0.00  0.00    +0.000 A 
ATOM      9  C   UNL     1      -0.018  46.214  27.495  0.00  0.00    +0.000 A 
ATOM     10  H   UNL     1      -2.658  47.004  30.681  0.00  0.00    +0.000 HD
ENDROOT
BRANCH   2  11
ATOM     11  C   UNL     1      -5.214  47.323  26.918  0.00  0.00    +0.000 C 
ATOM     12  N   UNL     1      -5.191  48.214  25.960  0.00  0.00    +0.000 NA
ATOM     13  C   UNL     1      -6.422  48.104  25.283  0.00  0.00    +0.000 A 
ATOM     14  C   UNL     1      -7.268  47.127  25.803  0.00  0.00    +0.000 A 
ATOM     15  C   UNL     1      -6.836  48.853  24.197  0.00  0.00    +0.000 A 
ATOM     16  C   UNL     1      -6.531  46.551  26.909  0.00  0.00    +0.000 C 
ATOM     17  C   UNL     1      -8.520  46.841  25.305  0.00  0.00    +0.000 A 
ATOM     18  O   UNL     1      -6.853  45.667  27.668  0.00  0.00    +0.000 OA
ATOM     19  C   UNL     1      -8.933  47.599  24.210  0.00  0.00    +0.000 A 
ATOM     20  C   UNL     1      -8.102  48.592  23.663  0.00  0.00    +0.000 A 
ENDBRANCH   2  11
BRANCH   5  21
ATOM     21  O   UNL     1      -5.107  47.507  30.099  0.00  0.00    +0.000 OA
ATOM     22  H   UNL     1      -5.614  46.689  30.308  0.00  0.00    +0.000 HD
ENDBRANCH   5  21
TORSDOF 2
ENDMDL
MODEL 3
REMARK VINA RESULT:      -6.3      3.018      7.186
REMARK  Name = CHEMBL35349.pdbqt.pdb
REMARK  2 active torsions:
REMARK  status: ('A' for Active; 'I' for Inactive)
REMARK    1  A    between atoms: C_2  and  C_11
REMARK    2  A    between atoms: C_5  and  O_21
REMARK                            x       y       z     vdW  Elec       q    Type
REMARK                         _______ _______ _______ _____ _____    ______ ____
ROOT
ATOM      1  N   UNL     1      -4.070  49.091  26.570  0.00  0.00    +0.000 N 
ATOM      2  C   UNL     1      -2.752  47.395  27.180  0.00  0.00    +0.000 A 
ATOM      3  C   UNL     1      -3.977  46.873  26.634  0.00  0.00    +0.000 A 
ATOM      4  C   UNL     1      -4.773  47.955  26.265  0.00  0.00    +0.000 A 
ATOM      5  C   UNL     1      -2.856  48.777  27.119  0.00  0.00    +0.000 A 
ATOM      6  C   UNL     1      -4.480  45.574  26.422  0.00  0.00    +0.000 A 
ATOM      7  C   UNL     1      -6.044  47.814  25.696  0.00  0.00    +0.000 A 
ATOM      8  C   UNL     1      -5.745  45.409  25.854  0.00  0.00    +0.000 A 
ATOM      9  C   UNL     1      -6.511  46.514  25.499  0.00  0.00    +0.000 A 
ATOM     10  H   UNL     1      -4.390  50.036  26.416  0.00  0.00    +0.000 HD
ENDROOT
BRANCH   2  11
ATOM     11  C   UNL     1      -1.636  46.631  27.690  0.00  0.00    +0.000 C 
ATOM     12  N   UNL     1      -0.561  46.401  26.981  0.00  0.00    +0.000 NA
ATOM     13  C   UNL     1       0.297  45.636  27.795  0.00  0.00    +0.000 A 
ATOM     14  C   UNL     1      -0.220  45.358  29.058  0.00  0.00    +0.000 A 
ATOM     15  C   UNL     1       1.551  45.163  27.456  0.00  0.00    +0.000 A 
ATOM     16  C   UNL     1      -1.522  45.993  29.071  0.00  0.00    +0.000 C 
ATOM     17  C   UNL     1       0.439  44.628  30.022  0.00  0.00    +0.000 A 
ATOM     18  O   UNL     1      -2.350  46.028  29.952  0.00  0.00    +0.000 OA
ATOM     19  C   UNL     1       1.702  44.153  29.675  0.00  0.00    +0.000 A 
ATOM     20  C   UNL     1       2.252  44.416  28.408  0.00  0.00    +0.000 A 
ENDBRANCH   2  11
BRANCH   5  21
ATOM     21  O   UNL     1      -2.061  49.783  27.466  0.00  0.00    +0.000 OA
ATOM     22  H   UNL     1      -1.848  49.732  28.426  0.00  0.00    +0.000 HD
ENDBRANCH   5  21
TORSDOF 2
ENDMDL
MODEL 4
REMARK VINA RESULT:      -6.3     24.404     26.160
REMARK  Name = CHEMBL35349.pdbqt.pdb
REMARK  2 active torsions:
REMARK  status: ('A' for Active; 'I' for Inactive)
REMARK    1  A    between atoms: C_2  and  C_11
REMARK    2  A    between atoms: C_5  and  O_21
REMARK                            x       y       z     vdW  Elec       q    Type
REMARK                         _______ _______ _______ _____ _____    ______ ____
ROOT
ATOM      1  N   UNL     1     -20.623  36.586   7.788  0.00  0.00    +0.000 N 
ATOM      2  C   UNL     1     -18.939  37.678   6.810  0.00  0.00    +0.000 A 
ATOM      3  C   UNL     1     -18.754  36.263   6.632  0.00  0.00    +0.000 A 
ATOM      4  C   UNL     1     -19.819  35.613   7.253  0.00  0.00    +0.000 A 
ATOM      5  C   UNL     1     -20.113  37.831   7.534  0.00  0.00    +0.000 A 
ATOM      6  C   UNL     1     -17.773  35.474   5.998  0.00  0.00    +0.000 A 
ATOM      7  C   UNL     1     -19.961  34.221   7.276  0.00  0.00    +0.000 A 
ATOM      8  C   UNL     1     -17.894  34.083   6.008  0.00  0.00    +0.000 A 
ATOM      9  C   UNL     1     -18.972  33.471   6.638  0.00  0.00    +0.000 A 
ATOM     10  H   UNL     1     -21.477  36.422   8.301  0.00  0.00    +0.000 HD
ENDROOT
BRANCH   2  11
ATOM     11  C   UNL     1     -18.073  38.732   6.330  0.00  0.00    +0.000 C 
ATOM     12  N   UNL     1     -18.534  39.802   5.737  0.00  0.00    +0.000 NA
ATOM     13  C   UNL     1     -17.413  40.593   5.414  0.00  0.00    +0.000 A 
ATOM     14  C   UNL     1     -16.197  40.035   5.801  0.00  0.00    +0.000 A 
ATOM     15  C   UNL     1     -17.425  41.819   4.776  0.00  0.00    +0.000 A 
ATOM     16  C   UNL     1     -16.551  38.778   6.427  0.00  0.00    +0.000 C 
ATOM     17  C   UNL     1     -14.971  40.627   5.591  0.00  0.00    +0.000 A 
ATOM     18  O   UNL     1     -15.835  37.938   6.921  0.00  0.00    +0.000 OA
ATOM     19  C   UNL     1     -14.989  41.862   4.946  0.00  0.00    +0.000 A 
ATOM     20  C   UNL     1     -16.200  42.452   4.543  0.00  0.00    +0.000 A 
ENDBRANCH   2  11
BRANCH   5  21
ATOM     21  O   UNL     1     -20.789  38.876   7.994  0.00  0.00    +0.000 OA
ATOM     22  H   UNL     1     -21.754  38.749   7.843  0.00  0.00    +0.000 HD
ENDBRANCH   5  21
TORSDOF 2
ENDMDL
MODEL 5
REMARK VINA RESULT:      -6.0     24.973     26.142
REMARK  Name = CHEMBL35349.pdbqt.pdb
REMARK  2 active torsions:
REMARK  status: ('A' for Active; 'I' for Inactive)
REMARK    1  A    between atoms: C_2  and  C_11
REMARK    2  A    between atoms: C_5  and  O_21
REMARK                            x       y       z     vdW  Elec       q    Type
REMARK                         _______ _______ _______ _____ _____    ______ ____
ROOT
ATOM      1  N   UNL     1     -20.655  38.918   7.277  0.00  0.00    +0.000 N 
ATOM      2  C   UNL     1     -19.070  39.895   6.044  0.00  0.00    +0.000 A 
ATOM      3  C   UNL     1     -18.629  38.582   6.431  0.00  0.00    +0.000 A 
ATOM      4  C   UNL     1     -19.638  38.002   7.197  0.00  0.00    +0.000 A 
ATOM      5  C   UNL     1     -20.334  40.059   6.593  0.00  0.00    +0.000 A 
ATOM      6  C   UNL     1     -17.458  37.833   6.198  0.00  0.00    +0.000 A 
ATOM      7  C   UNL     1     -19.545  36.718   7.744  0.00  0.00    +0.000 A 
ATOM      8  C   UNL     1     -17.343  36.548   6.733  0.00  0.00    +0.000 A 
ATOM      9  C   UNL     1     -18.372  36.004   7.493  0.00  0.00    +0.000 A 
ATOM     10  H   UNL     1     -21.526  38.783   7.769  0.00  0.00    +0.000 HD
ENDROOT
BRANCH   2  11
ATOM     11  C   UNL     1     -18.342  40.852   5.243  0.00  0.00    +0.000 C 
ATOM     12  N   UNL     1     -18.843  41.385   4.158  0.00  0.00    +0.000 NA
ATOM     13  C   UNL     1     -17.860  42.259   3.652  0.00  0.00    +0.000 A 
ATOM     14  C   UNL     1     -16.695  42.302   4.414  0.00  0.00    +0.000 A 
ATOM     15  C   UNL     1     -17.957  43.039   2.515  0.00  0.00    +0.000 A 
ATOM     16  C   UNL     1     -16.936  41.382   5.507  0.00  0.00    +0.000 C 
ATOM     17  C   UNL     1     -15.600  43.083   4.114  0.00  0.00    +0.000 A 
ATOM     18  O   UNL     1     -16.213  41.080   6.429  0.00  0.00    +0.000 OA
ATOM     19  C   UNL     1     -15.703  43.866   2.967  0.00  0.00    +0.000 A 
ATOM     20  C   UNL     1     -16.865  43.846   2.176  0.00  0.00    +0.000 A 
ENDBRANCH   2  11
BRANCH   5  21
ATOM     21  O   UNL     1     -21.229  41.040   6.582  0.00  0.00    +0.000 OA
ATOM     22  H   UNL     1     -22.100  40.708   6.898  0.00  0.00    +0.000 HD
ENDBRANCH   5  21
TORSDOF 2
ENDMDL
MODEL 6
REMARK VINA RESULT:      -6.0     24.660     26.066
REMARK  Name = CHEMBL35349.pdbqt.pdb
REMARK  2 active torsions:
REMARK  status: ('A' for Active; 'I' for Inactive)
REMARK    1  A    between atoms: C_2  and  C_11
REMARK    2  A    between atoms: C_5  and  O_21
REMARK                            x       y       z     vdW  Elec       q    Type
REMARK                         _______ _______ _______ _____ _____    ______ ____
ROOT
ATOM      1  N   UNL     1     -19.465  42.003   6.044  0.00  0.00    +0.000 N 
ATOM      2  C   UNL     1     -19.111  39.821   6.357  0.00  0.00    +0.000 A 
ATOM      3  C   UNL     1     -17.864  40.464   6.043  0.00  0.00    +0.000 A 
ATOM      4  C   UNL     1     -18.120  41.820   5.854  0.00  0.00    +0.000 A 
ATOM      5  C   UNL     1     -20.077  40.817   6.346  0.00  0.00    +0.000 A 
ATOM      6  C   UNL     1     -16.536  40.012   5.901  0.00  0.00    +0.000 A 
ATOM      7  C   UNL     1     -17.126  42.751   5.531  0.00  0.00    +0.000 A 
ATOM      8  C   UNL     1     -15.528  40.923   5.580  0.00  0.00    +0.000 A 
ATOM      9  C   UNL     1     -15.823  42.270   5.399  0.00  0.00    +0.000 A 
ATOM     10  H   UNL     1     -19.951  42.885   5.974  0.00  0.00    +0.000 HD
ENDROOT
BRANCH   2  11
ATOM     11  C   UNL     1     -19.318  38.417   6.630  0.00  0.00    +0.000 C 
ATOM     12  N   UNL     1     -18.411  37.674   7.211  0.00  0.00    +0.000 NA
ATOM     13  C   UNL     1     -18.959  36.379   7.309  0.00  0.00    +0.000 A 
ATOM     14  C   UNL     1     -20.245  36.268   6.786  0.00  0.00    +0.000 A 
ATOM     15  C   UNL     1     -18.350  35.266   7.857  0.00  0.00    +0.000 A 
ATOM     16  C   UNL     1     -20.564  37.598   6.306  0.00  0.00    +0.000 C 
ATOM     17  C   UNL     1     -20.978  35.102   6.772  0.00  0.00    +0.000 A 
ATOM     18  O   UNL     1     -21.571  37.999   5.771  0.00  0.00    +0.000 OA
ATOM     19  C   UNL     1     -20.360  33.982   7.325  0.00  0.00    +0.000 A 
ATOM     20  C   UNL     1     -19.063  34.062   7.861  0.00  0.00    +0.000 A 
ENDBRANCH   2  11
BRANCH   5  21
ATOM     21  O   UNL     1     -21.388  40.840   6.559  0.00  0.00    +0.000 OA
ATOM     22  H   UNL     1     -21.643  41.674   7.016  0.00  0.00    +0.000 HD
ENDBRANCH   5  21
TORSDOF 2
ENDMDL
MODEL 7
REMARK VINA RESULT:      -6.0     24.385     26.151
REMARK  Name = CHEMBL35349.pdbqt.pdb
REMARK  2 active torsions:
REMARK  status: ('A' for Active; 'I' for Inactive)
REMARK    1  A    between atoms: C_2  and  C_11
REMARK    2  A    between atoms: C_5  and  O_21
REMARK                            x       y       z     vdW  Elec       q    Type
REMARK                         _______ _______ _______ _____ _____    ______ ____
ROOT
ATOM      1  N   UNL     1     -20.727  37.690   7.325  0.00  0.00    +0.000 N 
ATOM      2  C   UNL     1     -18.940  38.691   6.435  0.00  0.00    +0.000 A 
ATOM      3  C   UNL     1     -18.668  37.288   6.596  0.00  0.00    +0.000 A 
ATOM      4  C   UNL     1     -19.799  36.696   7.153  0.00  0.00    +0.000 A 
ATOM      5  C   UNL     1     -20.231  38.894   6.901  0.00  0.00    +0.000 A 
ATOM      6  C   UNL     1     -17.556  36.467   6.319  0.00  0.00    +0.000 A 
ATOM      7  C   UNL     1     -19.884  35.331   7.448  0.00  0.00    +0.000 A 
ATOM      8  C   UNL     1     -17.619  35.102   6.604  0.00  0.00    +0.000 A 
ATOM      9  C   UNL     1     -18.766  34.548   7.160  0.00  0.00    +0.000 A 
ATOM     10  H   UNL     1     -21.652  37.567   7.710  0.00  0.00    +0.000 HD
ENDROOT
BRANCH   2  11
ATOM     11  C   UNL     1     -18.047  39.691   5.894  0.00  0.00    +0.000 C 
ATOM     12  N   UNL     1     -16.774  39.730   6.192  0.00  0.00    +0.000 NA
ATOM     13  C   UNL     1     -16.233  40.824   5.488  0.00  0.00    +0.000 A 
ATOM     14  C   UNL     1     -17.163  41.515   4.716  0.00  0.00    +0.000 A 
ATOM     15  C   UNL     1     -14.916  41.243   5.503  0.00  0.00    +0.000 A 
ATOM     16  C   UNL     1     -18.414  40.817   4.932  0.00  0.00    +0.000 C 
ATOM     17  C   UNL     1     -16.864  42.616   3.944  0.00  0.00    +0.000 A 
ATOM     18  O   UNL     1     -19.509  41.046   4.474  0.00  0.00    +0.000 OA
ATOM     19  C   UNL     1     -15.535  43.036   3.963  0.00  0.00    +0.000 A 
ATOM     20  C   UNL     1     -14.573  42.359   4.732  0.00  0.00    +0.000 A 
ENDBRANCH   2  11
BRANCH   5  21
ATOM     21  O   UNL     1     -21.023  39.955   7.008  0.00  0.00    +0.000 OA
ATOM     22  H   UNL     1     -20.651  40.592   7.659  0.00  0.00    +0.000 HD
ENDBRANCH   5  21
TORSDOF 2
ENDMDL
MODEL 8
REMARK VINA RESULT:      -5.8     24.552     26.147
REMARK  Name = CHEMBL35349.pdbqt.pdb
REMARK  2 active torsions:
REMARK  status: ('A' for Active; 'I' for Inactive)
REMARK    1  A    between atoms: C_2  and  C_11
REMARK    2  A    between atoms: C_5  and  O_21
REMARK                            x       y       z     vdW  Elec       q    Type
REMARK                         _______ _______ _______ _____ _____    ______ ____
ROOT
ATOM      1  N   UNL     1     -15.008  40.184   5.723  0.00  0.00    +0.000 N 
ATOM      2  C   UNL     1     -16.594  41.405   4.734  0.00  0.00    +0.000 A 
ATOM      3  C   UNL     1     -17.203  40.286   5.401  0.00  0.00    +0.000 A 
ATOM      4  C   UNL     1     -16.189  39.547   6.005  0.00  0.00    +0.000 A 
ATOM      5  C   UNL     1     -15.229  41.300   4.962  0.00  0.00    +0.000 A 
ATOM      6  C   UNL     1     -18.530  39.834   5.544  0.00  0.00    +0.000 A 
ATOM      7  C   UNL     1     -16.424  38.383   6.744  0.00  0.00    +0.000 A 
ATOM      8  C   UNL     1     -18.789  38.675   6.278  0.00  0.00    +0.000 A 
ATOM      9  C   UNL     1     -17.749  37.964   6.867  0.00  0.00    +0.000 A 
ATOM     10  H   UNL     1     -14.094  39.883   6.028  0.00  0.00    +0.000 HD
ENDROOT
BRANCH   2  11
ATOM     11  C   UNL     1     -17.269  42.435   3.977  0.00  0.00    +0.000 C 
ATOM     12  N   UNL     1     -16.943  42.728   2.744  0.00  0.00    +0.000 NA
ATOM     13  C   UNL     1     -17.806  43.766   2.339  0.00  0.00    +0.000 A 
ATOM     14  C   UNL     1     -18.712  44.162   3.319  0.00  0.00    +0.000 A 
ATOM     15  C   UNL     1     -17.822  44.391   1.106  0.00  0.00    +0.000 A 
ATOM     16  C   UNL     1     -18.419  43.315   4.457  0.00  0.00    +0.000 C 
ATOM     17  C   UNL     1     -19.651  45.157   3.150  0.00  0.00    +0.000 A 
ATOM     18  O   UNL     1     -18.943  43.285   5.546  0.00  0.00    +0.000 OA
ATOM     19  C   UNL     1     -19.662  45.784   1.906  0.00  0.00    +0.000 A 
ATOM     20  C   UNL     1     -18.760  45.407   0.896  0.00  0.00    +0.000 A 
ENDBRANCH   2  11
BRANCH   5  21
ATOM     21  O   UNL     1     -14.172  42.022   4.610  0.00  0.00    +0.000 OA
ATOM     22  H   UNL     1     -14.443  42.746   4.001  0.00  0.00    +0.000 HD
ENDBRANCH   5  21
TORSDOF 2
ENDMDL
MODEL 9
REMARK VINA RESULT:      -5.8      3.941      6.243
REMARK  Name = CHEMBL35349.pdbqt.pdb
REMARK  2 active torsions:
REMARK  status: ('A' for Active; 'I' for Inactive)
REMARK    1  A    between atoms: C_2  and  C_11
REMARK    2  A    between atoms: C_5  and  O_21
REMARK                            x       y       z     vdW  Elec       q    Type
REMARK                         _______ _______ _______ _____ _____    ______ ____
ROOT
ATOM      1  N   UNL     1      -8.402  49.138  23.832  0.00  0.00    +0.000 N 
ATOM      2  C   UNL     1      -9.776  48.811  25.562  0.00  0.00    +0.000 A 
ATOM      3  C   UNL     1      -8.578  48.039  25.754  0.00  0.00    +0.000 A 
ATOM      4  C   UNL     1      -7.746  48.265  24.659  0.00  0.00    +0.000 A 
ATOM      5  C   UNL     1      -9.621  49.477  24.354  0.00  0.00    +0.000 A 
ATOM      6  C   UNL     1      -8.126  47.164  26.762  0.00  0.00    +0.000 A 
ATOM      7  C   UNL     1      -6.489  47.668  24.515  0.00  0.00    +0.000 A 
ATOM      8  C   UNL     1      -6.874  46.558  26.640  0.00  0.00    +0.000 A 
ATOM      9  C   UNL     1      -6.073  46.809  25.533  0.00  0.00    +0.000 A 
ATOM     10  H   UNL     1      -8.049  49.491  22.954  0.00  0.00    +0.000 HD
ENDROOT
BRANCH   2  11
ATOM     11  C   UNL     1     -10.914  48.880  26.450  0.00  0.00    +0.000 C 
ATOM     12  N   UNL     1     -11.381  50.014  26.906  0.00  0.00    +0.000 NA
ATOM     13  C   UNL     1     -12.478  49.691  27.729  0.00  0.00    +0.000 A 
ATOM     14  C   UNL     1     -12.737  48.326  27.817  0.00  0.00    +0.000 A 
ATOM     15  C   UNL     1     -13.278  50.580  28.423  0.00  0.00    +0.000 A 
ATOM     16  C   UNL     1     -11.728  47.705  26.983  0.00  0.00    +0.000 C 
ATOM     17  C   UNL     1     -13.757  47.776  28.562  0.00  0.00    +0.000 A 
ATOM     18  O   UNL     1     -11.544  46.534  26.744  0.00  0.00    +0.000 OA
ATOM     19  C   UNL     1     -14.560  48.676  29.259  0.00  0.00    +0.000 A 
ATOM     20  C   UNL     1     -14.325  50.061  29.192  0.00  0.00    +0.000 A 
ENDBRANCH   2  11
BRANCH   5  21
ATOM     21  O   UNL     1     -10.374  50.322  23.658  0.00  0.00    +0.000 OA
ATOM     22  H   UNL     1     -10.674  51.062  24.233  0.00  0.00    +0.000 HD
ENDBRANCH   5  21
TORSDOF 2
ENDMDL
