MODEL 1
REMARK VINA RESULT:      -6.5      0.000      0.000
REMARK  Name = Chlortetracycline.pdbqt.pdb
REMARK  7 active torsions:
REMARK  status: ('A' for Active; 'I' for Inactive)
REMARK    1  A    between atoms: C_7  and  O_30
REMARK    2  A    between atoms: C_8  and  N_32
REMARK    3  A    between atoms: C_9  and  O_37
REMARK    4  A    between atoms: C_12  and  O_28
REMARK    5  A    between atoms: C_15  and  O_35
REMARK    6  A    between atoms: C_16  and  C_23
REMARK    7  A    between atoms: C_20  and  O_39
REMARK                            x       y       z     vdW  Elec       q    Type
REMARK                         _______ _______ _______ _____ _____    ______ ____
ROOT
ATOM      1 CL   UNL     1      -6.051  50.260  27.518  0.00  0.00    +0.000 Cl
ATOM      2  O   UNL     1       0.224  45.700  26.453  0.00  0.00    +0.000 OA
ATOM      3  O   UNL     1      -0.869  46.022  32.509  0.00  0.00    +0.000 OA
ATOM      4  C   UNL     1       0.153  47.635  29.643  0.00  0.00    +0.000 C 
ATOM      5  C   UNL     1      -2.006  48.029  28.176  0.00  0.00    +0.000 C 
ATOM      6  C   UNL     1      -1.053  48.216  29.198  0.00  0.00    +0.000 C 
ATOM      7  C   UNL     1       0.633  46.522  28.742  0.00  0.00    +0.000 C 
ATOM      8  C   UNL     1       0.370  47.443  31.066  0.00  0.00    +0.000 C 
ATOM      9  C   UNL     1      -3.168  48.920  27.838  0.00  0.00    +0.000 C 
ATOM     10  C   UNL     1      -1.627  46.955  27.284  0.00  0.00    +0.000 C 
ATOM     11  C   UNL     1      -0.232  46.347  27.406  0.00  0.00    +0.000 C 
ATOM     12  C   UNL     1       0.673  45.158  29.439  0.00  0.00    +0.000 C 
ATOM     13  C   UNL     1      -4.209  48.253  26.952  0.00  0.00    +0.000 A 
ATOM     14  C   UNL     1      -0.098  46.120  31.566  0.00  0.00    +0.000 C 
ATOM     15  C   UNL     1      -2.479  46.519  26.338  0.00  0.00    +0.000 C 
ATOM     16  C   UNL     1       0.318  44.950  30.728  0.00  0.00    +0.000 C 
ATOM     17  C   UNL     1      -3.871  47.058  26.245  0.00  0.00    +0.000 A 
ATOM     18  C   UNL     1      -2.619  50.210  27.195  0.00  0.00    +0.000 C 
ATOM     19  C   UNL     1      -5.511  48.785  26.794  0.00  0.00    +0.000 A 
ATOM     20  C   UNL     1      -4.877  46.425  25.482  0.00  0.00    +0.000 A 
ATOM     21  C   UNL     1      -6.464  48.148  26.004  0.00  0.00    +0.000 A 
ATOM     22  C   UNL     1      -6.155  46.964  25.362  0.00  0.00    +0.000 A 
ENDROOT
BRANCH  16  23
ATOM     23  C   UNL     1       0.419  43.618  31.389  0.00  0.00    +0.000 C 
ATOM     24  O   UNL     1       1.497  43.110  31.666  0.00  0.00    +0.000 OA
ATOM     25  N   UNL     1      -0.748  42.973  31.660  0.00  0.00    +0.000 N 
ATOM     26  H   UNL     1      -1.603  43.248  31.188  0.00  0.00    +0.000 HD
ATOM     27  H   UNL     1      -0.676  42.023  31.997  0.00  0.00    +0.000 HD
ENDBRANCH  16  23
BRANCH   8  28
ATOM     28  N   UNL     1       1.427  48.123  31.765  0.00  0.00    +0.000 NA
ATOM     29  C   UNL     1       2.155  49.084  30.950  0.00  0.00    +0.000 C 
ATOM     30  C   UNL     1       0.993  48.798  32.971  0.00  0.00    +0.000 C 
ENDBRANCH   8  28
BRANCH  12  31
ATOM     31  O   UNL     1       1.186  44.112  28.667  0.00  0.00    +0.000 OA
ATOM     32  H   UNL     1       0.926  43.261  29.087  0.00  0.00    +0.000 HD
ENDBRANCH  12  31
BRANCH   7  33
ATOM     33  O   UNL     1       1.993  46.790  28.394  0.00  0.00    +0.000 OA
ATOM     34  H   UNL     1       2.462  45.937  28.327  0.00  0.00    +0.000 HD
ENDBRANCH   7  33
BRANCH  15  35
ATOM     35  O   UNL     1      -2.133  45.579  25.391  0.00  0.00    +0.000 OA
ATOM     36  H   UNL     1      -2.287  45.929  24.489  0.00  0.00    +0.000 HD
ENDBRANCH  15  35
BRANCH   9  37
ATOM     37  O   UNL     1      -3.740  49.301  29.074  0.00  0.00    +0.000 OA
ATOM     38  H   UNL     1      -3.301  48.681  29.685  0.00  0.00    +0.000 HD
ENDBRANCH   9  37
BRANCH  20  39
ATOM     39  O   UNL     1      -4.656  45.225  24.862  0.00  0.00    +0.000 OA
ATOM     40  H   UNL     1      -4.643  44.515  25.526  0.00  0.00    +0.000 HD
ENDBRANCH  20  39
TORSDOF 7
ENDMDL
MODEL 2
REMARK VINA RESULT:      -6.4     23.501     27.622
REMARK  Name = Chlortetracycline.pdbqt.pdb
REMARK  7 active torsions:
REMARK  status: ('A' for Active; 'I' for Inactive)
REMARK    1  A    between atoms: C_7  and  O_30
REMARK    2  A    between atoms: C_8  and  N_32
REMARK    3  A    between atoms: C_9  and  O_37
REMARK    4  A    between atoms: C_12  and  O_28
REMARK    5  A    between atoms: C_15  and  O_35
REMARK    6  A    between atoms: C_16  and  C_23
REMARK    7  A    between atoms: C_20  and  O_39
REMARK                            x       y       z     vdW  Elec       q    Type
REMARK                         _______ _______ _______ _____ _____    ______ ____
ROOT
ATOM      1 CL   UNL     1     -25.115  49.280   7.714  0.00  0.00    +0.000 Cl
ATOM      2  O   UNL     1     -18.100  52.527   6.467  0.00  0.00    +0.000 OA
ATOM      3  O   UNL     1     -18.544  51.242  12.479  0.00  0.00    +0.000 OA
ATOM      4  C   UNL     1     -19.604  53.161   9.823  0.00  0.00    +0.000 C 
ATOM      5  C   UNL     1     -21.119  51.613   8.317  0.00  0.00    +0.000 C 
ATOM      6  C   UNL     1     -20.738  52.445   9.389  0.00  0.00    +0.000 C 
ATOM      7  C   UNL     1     -18.459  53.099   8.840  0.00  0.00    +0.000 C 
ATOM      8  C   UNL     1     -19.239  53.136  11.229  0.00  0.00    +0.000 C 
ATOM      9  C   UNL     1     -22.492  51.079   8.019  0.00  0.00    +0.000 C 
ATOM     10  C   UNL     1     -20.059  51.481   7.341  0.00  0.00    +0.000 C 
ATOM     11  C   UNL     1     -18.827  52.375   7.459  0.00  0.00    +0.000 C 
ATOM     12  C   UNL     1     -17.219  52.399   9.403  0.00  0.00    +0.000 C 
ATOM     13  C   UNL     1     -22.495  49.922   7.032  0.00  0.00    +0.000 A 
ATOM     14  C   UNL     1     -18.301  52.034  11.580  0.00  0.00    +0.000 C 
ATOM     15  C   UNL     1     -20.170  50.606   6.324  0.00  0.00    +0.000 C 
ATOM     16  C   UNL     1     -17.136  51.882  10.652  0.00  0.00    +0.000 C 
ATOM     17  C   UNL     1     -21.340  49.679   6.228  0.00  0.00    +0.000 A 
ATOM     18  C   UNL     1     -23.370  52.247   7.526  0.00  0.00    +0.000 C 
ATOM     19  C   UNL     1     -23.617  49.074   6.875  0.00  0.00    +0.000 A 
ATOM     20  C   UNL     1     -21.346  48.559   5.368  0.00  0.00    +0.000 A 
ATOM     21  C   UNL     1     -23.596  47.999   5.990  0.00  0.00    +0.000 A 
ATOM     22  C   UNL     1     -22.460  47.732   5.249  0.00  0.00    +0.000 A 
ENDROOT
BRANCH  16  23
ATOM     23  C   UNL     1     -15.895  51.253  11.185  0.00  0.00    +0.000 C 
ATOM     24  O   UNL     1     -15.037  50.782  10.450  0.00  0.00    +0.000 OA
ATOM     25  N   UNL     1     -15.757  51.207  12.538  0.00  0.00    +0.000 N 
ATOM     26  H   UNL     1     -16.567  51.330  13.136  0.00  0.00    +0.000 HD
ATOM     27  H   UNL     1     -14.976  50.676  12.899  0.00  0.00    +0.000 HD
ENDBRANCH  16  23
BRANCH   8  28
ATOM     28  N   UNL     1     -19.251  54.330  12.032  0.00  0.00    +0.000 NA
ATOM     29  C   UNL     1     -17.929  54.788  12.433  0.00  0.00    +0.000 C 
ATOM     30  C   UNL     1     -19.944  55.443  11.416  0.00  0.00    +0.000 C 
ENDBRANCH   8  28
BRANCH  12  31
ATOM     31  O   UNL     1     -16.108  52.387   8.555  0.00  0.00    +0.000 OA
ATOM     32  H   UNL     1     -15.523  51.640   8.821  0.00  0.00    +0.000 HD
ENDBRANCH  12  31
BRANCH   7  33
ATOM     33  O   UNL     1     -18.030  54.435   8.573  0.00  0.00    +0.000 OA
ATOM     34  H   UNL     1     -17.113  54.528   8.890  0.00  0.00    +0.000 HD
ENDBRANCH   7  33
BRANCH  15  35
ATOM     35  O   UNL     1     -19.245  50.517   5.306  0.00  0.00    +0.000 OA
ATOM     36  H   UNL     1     -19.610  50.895   4.478  0.00  0.00    +0.000 HD
ENDBRANCH  15  35
BRANCH   9  37
ATOM     37  O   UNL     1     -23.030  50.672   9.262  0.00  0.00    +0.000 OA
ATOM     38  H   UNL     1     -22.454  49.916   9.479  0.00  0.00    +0.000 HD
ENDBRANCH   9  37
BRANCH  20  39
ATOM     39  O   UNL     1     -20.239  48.205   4.645  0.00  0.00    +0.000 OA
ATOM     40  H   UNL     1     -19.571  47.824   5.240  0.00  0.00    +0.000 HD
ENDBRANCH  20  39
TORSDOF 7
ENDMDL
MODEL 3
REMARK VINA RESULT:      -6.4      9.215     13.074
REMARK  Name = Chlortetracycline.pdbqt.pdb
REMARK  7 active torsions:
REMARK  status: ('A' for Active; 'I' for Inactive)
REMARK    1  A    between atoms: C_7  and  O_30
REMARK    2  A    between atoms: C_8  and  N_32
REMARK    3  A    between atoms: C_9  and  O_37
REMARK    4  A    between atoms: C_12  and  O_28
REMARK    5  A    between atoms: C_15  and  O_35
REMARK    6  A    between atoms: C_16  and  C_23
REMARK    7  A    between atoms: C_20  and  O_39
REMARK                            x       y       z     vdW  Elec       q    Type
REMARK                         _______ _______ _______ _____ _____    ______ ____
ROOT
ATOM      1 CL   UNL     1     -19.173  48.460  25.920  0.00  0.00    +0.000 Cl
ATOM      2  O   UNL     1     -12.456  51.735  23.584  0.00  0.00    +0.000 OA
ATOM      3  O   UNL     1     -11.094  46.388  26.330  0.00  0.00    +0.000 OA
ATOM      4  C   UNL     1     -12.244  49.618  26.650  0.00  0.00    +0.000 C 
ATOM      5  C   UNL     1     -14.676  49.670  25.628  0.00  0.00    +0.000 C 
ATOM      6  C   UNL     1     -13.638  49.435  26.552  0.00  0.00    +0.000 C 
ATOM      7  C   UNL     1     -11.663  50.339  25.457  0.00  0.00    +0.000 C 
ATOM      8  C   UNL     1     -11.424  48.564  27.219  0.00  0.00    +0.000 C 
ATOM      9  C   UNL     1     -16.153  49.500  25.849  0.00  0.00    +0.000 C 
ATOM     10  C   UNL     1     -14.190  50.337  24.438  0.00  0.00    +0.000 C 
ATOM     11  C   UNL     1     -12.762  50.876  24.422  0.00  0.00    +0.000 C 
ATOM     12  C   UNL     1     -10.670  49.485  24.662  0.00  0.00    +0.000 C 
ATOM     13  C   UNL     1     -16.962  49.464  24.562  0.00  0.00    +0.000 A 
ATOM     14  C   UNL     1     -10.919  47.592  26.210  0.00  0.00    +0.000 C 
ATOM     15  C   UNL     1     -14.994  50.508  23.373  0.00  0.00    +0.000 C 
ATOM     16  C   UNL     1     -10.335  48.213  24.979  0.00  0.00    +0.000 C 
ATOM     17  C   UNL     1     -16.374  49.931  23.347  0.00  0.00    +0.000 A 
ATOM     18  C   UNL     1     -16.633  50.623  26.790  0.00  0.00    +0.000 C 
ATOM     19  C   UNL     1     -18.294  48.987  24.528  0.00  0.00    +0.000 A 
ATOM     20  C   UNL     1     -17.125  49.825  22.156  0.00  0.00    +0.000 A 
ATOM     21  C   UNL     1     -19.014  48.931  23.337  0.00  0.00    +0.000 A 
ATOM     22  C   UNL     1     -18.428  49.334  22.152  0.00  0.00    +0.000 A 
ENDROOT
BRANCH  16  23
ATOM     23  C   UNL     1      -9.326  47.428  24.213  0.00  0.00    +0.000 C 
ATOM     24  O   UNL     1      -8.171  47.812  24.076  0.00  0.00    +0.000 OA
ATOM     25  N   UNL     1      -9.746  46.264  23.649  0.00  0.00    +0.000 N 
ATOM     26  H   UNL     1     -10.737  46.090  23.519  0.00  0.00    +0.000 HD
ATOM     27  H   UNL     1      -9.097  45.794  23.033  0.00  0.00    +0.000 HD
ENDBRANCH  16  23
BRANCH   8  28
ATOM     28  N   UNL     1     -10.681  48.760  28.436  0.00  0.00    +0.000 NA
ATOM     29  C   UNL     1      -9.240  48.842  28.245  0.00  0.00    +0.000 C 
ATOM     30  C   UNL     1     -11.098  49.921  29.196  0.00  0.00    +0.000 C 
ENDBRANCH   8  28
BRANCH  12  31
ATOM     31  O   UNL     1     -10.048  50.137  23.594  0.00  0.00    +0.000 OA
ATOM     32  H   UNL     1      -9.092  50.240  23.808  0.00  0.00    +0.000 HD
ENDBRANCH  12  31
BRANCH   7  33
ATOM     33  O   UNL     1     -10.889  51.440  25.937  0.00  0.00    +0.000 OA
ATOM     34  H   UNL     1     -11.447  51.962  26.542  0.00  0.00    +0.000 HD
ENDBRANCH   7  33
BRANCH  15  35
ATOM     35  O   UNL     1     -14.622  51.231  22.260  0.00  0.00    +0.000 OA
ATOM     36  H   UNL     1     -14.881  50.757  21.442  0.00  0.00    +0.000 HD
ENDBRANCH  15  35
BRANCH   9  37
ATOM     37  O   UNL     1     -16.302  48.288  26.563  0.00  0.00    +0.000 OA
ATOM     38  H   UNL     1     -16.090  48.575  27.470  0.00  0.00    +0.000 HD
ENDBRANCH   9  37
BRANCH  20  39
ATOM     39  O   UNL     1     -16.591  50.157  20.941  0.00  0.00    +0.000 OA
ATOM     40  H   UNL     1     -17.295  50.483  20.354  0.00  0.00    +0.000 HD
ENDBRANCH  20  39
TORSDOF 7
ENDMDL
MODEL 4
REMARK VINA RESULT:      -6.0     27.116     29.237
REMARK  Name = Chlortetracycline.pdbqt.pdb
REMARK  7 active torsions:
REMARK  status: ('A' for Active; 'I' for Inactive)
REMARK    1  A    between atoms: C_7  and  O_30
REMARK    2  A    between atoms: C_8  and  N_32
REMARK    3  A    between atoms: C_9  and  O_37
REMARK    4  A    between atoms: C_12  and  O_28
REMARK    5  A    between atoms: C_15  and  O_35
REMARK    6  A    between atoms: C_16  and  C_23
REMARK    7  A    between atoms: C_20  and  O_39
REMARK                            x       y       z     vdW  Elec       q    Type
REMARK                         _______ _______ _______ _____ _____    ______ ____
ROOT
ATOM      1 CL   UNL     1       3.839  39.260  -1.833  0.00  0.00    +0.000 Cl
ATOM      2  O   UNL     1      -1.435  40.883   3.721  0.00  0.00    +0.000 OA
ATOM      3  O   UNL     1      -3.948  36.777  -0.126  0.00  0.00    +0.000 OA
ATOM      4  C   UNL     1      -2.829  39.995   0.376  0.00  0.00    +0.000 C 
ATOM      5  C   UNL     1      -0.193  39.888   0.429  0.00  0.00    +0.000 C 
ATOM      6  C   UNL     1      -1.502  39.910  -0.093  0.00  0.00    +0.000 C 
ATOM      7  C   UNL     1      -2.911  40.187   1.872  0.00  0.00    +0.000 C 
ATOM      8  C   UNL     1      -3.849  39.146  -0.214  0.00  0.00    +0.000 C 
ATOM      9  C   UNL     1       1.098  39.938  -0.339  0.00  0.00    +0.000 C 
ATOM     10  C   UNL     1      -0.190  40.040   1.869  0.00  0.00    +0.000 C 
ATOM     11  C   UNL     1      -1.490  40.412   2.577  0.00  0.00    +0.000 C 
ATOM     12  C   UNL     1      -3.596  39.022   2.592  0.00  0.00    +0.000 C 
ATOM     13  C   UNL     1       2.310  39.515   0.476  0.00  0.00    +0.000 A 
ATOM     14  C   UNL     1      -4.009  37.838   0.478  0.00  0.00    +0.000 C 
ATOM     15  C   UNL     1       0.948  39.889   2.570  0.00  0.00    +0.000 C 
ATOM     16  C   UNL     1      -4.086  37.924   1.971  0.00  0.00    +0.000 C 
ATOM     17  C   UNL     1       2.217  39.463   1.901  0.00  0.00    +0.000 A 
ATOM     18  C   UNL     1       1.267  41.361  -0.909  0.00  0.00    +0.000 C 
ATOM     19  C   UNL     1       3.541  39.175  -0.132  0.00  0.00    +0.000 A 
ATOM     20  C   UNL     1       3.337  39.004   2.629  0.00  0.00    +0.000 A 
ATOM     21  C   UNL     1       4.634  38.760   0.624  0.00  0.00    +0.000 A 
ATOM     22  C   UNL     1       4.529  38.659   1.998  0.00  0.00    +0.000 A 
ENDROOT
BRANCH  16  23
ATOM     23  C   UNL     1      -4.793  36.832   2.698  0.00  0.00    +0.000 C 
ATOM     24  O   UNL     1      -5.778  37.046   3.394  0.00  0.00    +0.000 OA
ATOM     25  N   UNL     1      -4.287  35.576   2.573  0.00  0.00    +0.000 N 
ATOM     26  H   UNL     1      -3.336  35.441   2.244  0.00  0.00    +0.000 HD
ATOM     27  H   UNL     1      -4.693  34.859   3.159  0.00  0.00    +0.000 HD
ENDBRANCH  16  23
BRANCH   8  28
ATOM     28  N   UNL     1      -4.966  39.700  -0.934  0.00  0.00    +0.000 NA
ATOM     29  C   UNL     1      -6.228  39.634  -0.212  0.00  0.00    +0.000 C 
ATOM     30  C   UNL     1      -4.766  41.070  -1.362  0.00  0.00    +0.000 C 
ENDBRANCH   8  28
BRANCH  12  31
ATOM     31  O   UNL     1      -3.764  39.192   3.970  0.00  0.00    +0.000 OA
ATOM     32  H   UNL     1      -4.430  39.903   4.115  0.00  0.00    +0.000 HD
ENDBRANCH  12  31
BRANCH   7  33
ATOM     33  O   UNL     1      -3.749  41.315   2.129  0.00  0.00    +0.000 OA
ATOM     34  H   UNL     1      -3.202  42.014   2.532  0.00  0.00    +0.000 HD
ENDBRANCH   7  33
BRANCH  15  35
ATOM     35  O   UNL     1       1.033  40.130   3.925  0.00  0.00    +0.000 OA
ATOM     36  H   UNL     1       1.393  39.345   4.390  0.00  0.00    +0.000 HD
ENDBRANCH  15  35
BRANCH   9  37
ATOM     37  O   UNL     1       0.923  39.080  -1.450  0.00  0.00    +0.000 OA
ATOM     38  H   UNL     1      -0.044  38.956  -1.443  0.00  0.00    +0.000 HD
ENDBRANCH   9  37
BRANCH  20  39
ATOM     39  O   UNL     1       3.286  38.831   3.985  0.00  0.00    +0.000 OA
ATOM     40  H   UNL     1       2.359  38.751   4.268  0.00  0.00    +0.000 HD
ENDBRANCH  20  39
TORSDOF 7
ENDMDL
MODEL 5
REMARK VINA RESULT:      -5.9     28.282     30.962
REMARK  Name = Chlortetracycline.pdbqt.pdb
REMARK  7 active torsions:
REMARK  status: ('A' for Active; 'I' for Inactive)
REMARK    1  A    between atoms: C_7  and  O_30
REMARK    2  A    between atoms: C_8  and  N_32
REMARK    3  A    between atoms: C_9  and  O_37
REMARK    4  A    between atoms: C_12  and  O_28
REMARK    5  A    between atoms: C_15  and  O_35
REMARK    6  A    between atoms: C_16  and  C_23
REMARK    7  A    between atoms: C_20  and  O_39
REMARK                            x       y       z     vdW  Elec       q    Type
REMARK                         _______ _______ _______ _____ _____    ______ ____
ROOT
ATOM      1 CL   UNL     1     -19.623  43.170  -2.178  0.00  0.00    +0.000 Cl
ATOM      2  O   UNL     1     -16.377  43.963   4.903  0.00  0.00    +0.000 OA
ATOM      3  O   UNL     1     -18.717  38.273   4.525  0.00  0.00    +0.000 OA
ATOM      4  C   UNL     1     -19.308  41.660   4.715  0.00  0.00    +0.000 C 
ATOM      5  C   UNL     1     -18.676  42.681   2.365  0.00  0.00    +0.000 C 
ATOM      6  C   UNL     1     -19.421  42.006   3.352  0.00  0.00    +0.000 C 
ATOM      7  C   UNL     1     -18.062  42.220   5.359  0.00  0.00    +0.000 C 
ATOM      8  C   UNL     1     -19.712  40.335   5.150  0.00  0.00    +0.000 C 
ATOM      9  C   UNL     1     -19.118  43.041   0.974  0.00  0.00    +0.000 C 
ATOM     10  C   UNL     1     -17.447  43.224   2.903  0.00  0.00    +0.000 C 
ATOM     11  C   UNL     1     -17.227  43.206   4.413  0.00  0.00    +0.000 C 
ATOM     12  C   UNL     1     -17.098  41.134   5.848  0.00  0.00    +0.000 C 
ATOM     13  C   UNL     1     -17.971  43.413   0.047  0.00  0.00    +0.000 A 
ATOM     14  C   UNL     1     -18.608  39.336   5.118  0.00  0.00    +0.000 C 
ATOM     15  C   UNL     1     -16.524  43.767   2.087  0.00  0.00    +0.000 C 
ATOM     16  C   UNL     1     -17.321  39.805   5.724  0.00  0.00    +0.000 C 
ATOM     17  C   UNL     1     -16.694  43.736   0.601  0.00  0.00    +0.000 A 
ATOM     18  C   UNL     1     -20.156  44.178   1.076  0.00  0.00    +0.000 C 
ATOM     19  C   UNL     1     -18.128  43.458  -1.359  0.00  0.00    +0.000 A 
ATOM     20  C   UNL     1     -15.631  44.013  -0.286  0.00  0.00    +0.000 A 
ATOM     21  C   UNL     1     -17.062  43.770  -2.198  0.00  0.00    +0.000 A 
ATOM     22  C   UNL     1     -15.813  44.032  -1.666  0.00  0.00    +0.000 A 
ENDROOT
BRANCH  16  23
ATOM     23  C   UNL     1     -16.384  38.775   6.257  0.00  0.00    +0.000 C 
ATOM     24  O   UNL     1     -15.202  38.747   5.942  0.00  0.00    +0.000 OA
ATOM     25  N   UNL     1     -16.904  37.846   7.104  0.00  0.00    +0.000 N 
ATOM     26  H   UNL     1     -17.906  37.695   7.140  0.00  0.00    +0.000 HD
ATOM     27  H   UNL     1     -16.298  37.081   7.369  0.00  0.00    +0.000 HD
ENDBRANCH  16  23
BRANCH   8  28
ATOM     28  N   UNL     1     -20.805  40.143   6.067  0.00  0.00    +0.000 NA
ATOM     29  C   UNL     1     -21.966  39.492   5.477  0.00  0.00    +0.000 C 
ATOM     30  C   UNL     1     -20.444  39.415   7.266  0.00  0.00    +0.000 C 
ENDBRANCH   8  28
BRANCH  12  31
ATOM     31  O   UNL     1     -15.967  41.604   6.521  0.00  0.00    +0.000 OA
ATOM     32  H   UNL     1     -16.246  41.924   7.409  0.00  0.00    +0.000 HD
ENDBRANCH  12  31
BRANCH   7  33
ATOM     33  O   UNL     1     -18.450  42.917   6.544  0.00  0.00    +0.000 OA
ATOM     34  H   UNL     1     -17.786  42.735   7.234  0.00  0.00    +0.000 HD
ENDBRANCH   7  33
BRANCH  15  35
ATOM     35  O   UNL     1     -15.390  44.397   2.551  0.00  0.00    +0.000 OA
ATOM     36  H   UNL     1     -14.630  44.213   1.959  0.00  0.00    +0.000 HD
ENDBRANCH  15  35
BRANCH   9  37
ATOM     37  O   UNL     1     -19.809  41.911   0.480  0.00  0.00    +0.000 OA
ATOM     38  H   UNL     1     -20.398  42.322  -0.179  0.00  0.00    +0.000 HD
ENDBRANCH   9  37
BRANCH  20  39
ATOM     39  O   UNL     1     -14.358  44.230   0.168  0.00  0.00    +0.000 OA
ATOM     40  H   UNL     1     -13.722  44.021  -0.537  0.00  0.00    +0.000 HD
ENDBRANCH  20  39
TORSDOF 7
ENDMDL
MODEL 6
REMARK VINA RESULT:      -5.9     28.824     30.788
REMARK  Name = Chlortetracycline.pdbqt.pdb
REMARK  7 active torsions:
REMARK  status: ('A' for Active; 'I' for Inactive)
REMARK    1  A    between atoms: C_7  and  O_30
REMARK    2  A    between atoms: C_8  and  N_32
REMARK    3  A    between atoms: C_9  and  O_37
REMARK    4  A    between atoms: C_12  and  O_28
REMARK    5  A    between atoms: C_15  and  O_35
REMARK    6  A    between atoms: C_16  and  C_23
REMARK    7  A    between atoms: C_20  and  O_39
REMARK                            x       y       z     vdW  Elec       q    Type
REMARK                         _______ _______ _______ _____ _____    ______ ____
ROOT
ATOM      1 CL   UNL     1     -21.777  32.386   7.269  0.00  0.00    +0.000 Cl
ATOM      2  O   UNL     1     -16.848  38.463   6.976  0.00  0.00    +0.000 OA
ATOM      3  O   UNL     1     -15.878  35.002   1.970  0.00  0.00    +0.000 OA
ATOM      4  C   UNL     1     -15.629  35.313   5.390  0.00  0.00    +0.000 C 
ATOM      5  C   UNL     1     -18.072  35.073   6.360  0.00  0.00    +0.000 C 
ATOM      6  C   UNL     1     -16.825  34.700   5.819  0.00  0.00    +0.000 C 
ATOM      7  C   UNL     1     -15.618  36.804   5.628  0.00  0.00    +0.000 C 
ATOM      8  C   UNL     1     -14.993  34.856   4.167  0.00  0.00    +0.000 C 
ATOM      9  C   UNL     1     -19.152  34.164   6.877  0.00  0.00    +0.000 C 
ATOM     10  C   UNL     1     -18.148  36.499   6.591  0.00  0.00    +0.000 C 
ATOM     11  C   UNL     1     -16.883  37.341   6.450  0.00  0.00    +0.000 C 
ATOM     12  C   UNL     1     -15.538  37.619   4.334  0.00  0.00    +0.000 C 
ATOM     13  C   UNL     1     -20.502  34.847   7.031  0.00  0.00    +0.000 A 
ATOM     14  C   UNL     1     -15.447  35.588   2.952  0.00  0.00    +0.000 C 
ATOM     15  C   UNL     1     -19.310  37.072   6.956  0.00  0.00    +0.000 C 
ATOM     16  C   UNL     1     -15.483  37.078   3.094  0.00  0.00    +0.000 C 
ATOM     17  C   UNL     1     -20.572  36.274   7.037  0.00  0.00    +0.000 A 
ATOM     18  C   UNL     1     -18.671  33.551   8.209  0.00  0.00    +0.000 C 
ATOM     19  C   UNL     1     -21.701  34.111   7.179  0.00  0.00    +0.000 A 
ATOM     20  C   UNL     1     -21.845  36.881   7.115  0.00  0.00    +0.000 A 
ATOM     21  C   UNL     1     -22.934  34.749   7.289  0.00  0.00    +0.000 A 
ATOM     22  C   UNL     1     -23.010  36.128   7.242  0.00  0.00    +0.000 A 
ENDROOT
BRANCH  16  23
ATOM     23  C   UNL     1     -15.354  37.901   1.858  0.00  0.00    +0.000 C 
ATOM     24  O   UNL     1     -15.794  39.041   1.788  0.00  0.00    +0.000 OA
ATOM     25  N   UNL     1     -14.737  37.323   0.792  0.00  0.00    +0.000 N 
ATOM     26  H   UNL     1     -14.631  36.315   0.750  0.00  0.00    +0.000 HD
ATOM     27  H   UNL     1     -14.755  37.836  -0.079  0.00  0.00    +0.000 HD
ENDBRANCH  16  23
BRANCH   8  28
ATOM     28  N   UNL     1     -13.686  34.255   4.177  0.00  0.00    +0.000 NA
ATOM     29  C   UNL     1     -13.676  32.850   3.795  0.00  0.00    +0.000 C 
ATOM     30  C   UNL     1     -12.716  34.949   3.355  0.00  0.00    +0.000 C 
ENDBRANCH   8  28
BRANCH  12  31
ATOM     31  O   UNL     1     -15.446  39.003   4.508  0.00  0.00    +0.000 OA
ATOM     32  H   UNL     1     -14.856  39.365   3.807  0.00  0.00    +0.000 HD
ENDBRANCH  12  31
BRANCH   7  33
ATOM     33  O   UNL     1     -14.420  37.131   6.335  0.00  0.00    +0.000 OA
ATOM     34  H   UNL     1     -14.659  37.335   7.258  0.00  0.00    +0.000 HD
ENDBRANCH   7  33
BRANCH  15  35
ATOM     35  O   UNL     1     -19.416  38.404   7.297  0.00  0.00    +0.000 OA
ATOM     36  H   UNL     1     -20.347  38.631   7.502  0.00  0.00    +0.000 HD
ENDBRANCH  15  35
BRANCH   9  37
ATOM     37  O   UNL     1     -19.238  33.097   5.954  0.00  0.00    +0.000 OA
ATOM     38  H   UNL     1     -19.252  33.579   5.107  0.00  0.00    +0.000 HD
ENDBRANCH   9  37
BRANCH  20  39
ATOM     39  O   UNL     1     -21.998  38.237   7.023  0.00  0.00    +0.000 OA
ATOM     40  H   UNL     1     -22.925  38.446   6.815  0.00  0.00    +0.000 HD
ENDBRANCH  20  39
TORSDOF 7
ENDMDL
MODEL 7
REMARK VINA RESULT:      -5.8      6.639      9.974
REMARK  Name = Chlortetracycline.pdbqt.pdb
REMARK  7 active torsions:
REMARK  status: ('A' for Active; 'I' for Inactive)
REMARK    1  A    between atoms: C_7  and  O_30
REMARK    2  A    between atoms: C_8  and  N_32
REMARK    3  A    between atoms: C_9  and  O_37
REMARK    4  A    between atoms: C_12  and  O_28
REMARK    5  A    between atoms: C_15  and  O_35
REMARK    6  A    between atoms: C_16  and  C_23
REMARK    7  A    between atoms: C_20  and  O_39
REMARK                            x       y       z     vdW  Elec       q    Type
REMARK                         _______ _______ _______ _____ _____    ______ ____
ROOT
ATOM      1 CL   UNL     1      -6.401  48.462  24.131  0.00  0.00    +0.000 Cl
ATOM      2  O   UNL     1      -8.128  48.126  31.761  0.00  0.00    +0.000 OA
ATOM      3  O   UNL     1     -13.382  49.048  28.675  0.00  0.00    +0.000 OA
ATOM      4  C   UNL     1     -10.343  50.305  29.695  0.00  0.00    +0.000 C 
ATOM      5  C   UNL     1      -8.492  49.096  28.254  0.00  0.00    +0.000 C 
ATOM      6  C   UNL     1      -9.522  49.997  28.590  0.00  0.00    +0.000 C 
ATOM      7  C   UNL     1      -9.999  49.497  30.923  0.00  0.00    +0.000 C 
ATOM      8  C   UNL     1     -11.754  50.575  29.482  0.00  0.00    +0.000 C 
ATOM      9  C   UNL     1      -7.664  49.081  27.000  0.00  0.00    +0.000 C 
ATOM     10  C   UNL     1      -8.125  48.262  29.379  0.00  0.00    +0.000 C 
ATOM     11  C   UNL     1      -8.691  48.587  30.758  0.00  0.00    +0.000 C 
ATOM     12  C   UNL     1     -11.138  48.577  31.376  0.00  0.00    +0.000 C 
ATOM     13  C   UNL     1      -6.917  47.775  26.777  0.00  0.00    +0.000 A 
ATOM     14  C   UNL     1     -12.611  49.361  29.571  0.00  0.00    +0.000 C 
ATOM     15  C   UNL     1      -7.272  47.234  29.218  0.00  0.00    +0.000 C 
ATOM     16  C   UNL     1     -12.336  48.483  30.753  0.00  0.00    +0.000 C 
ATOM     17  C   UNL     1      -6.758  46.862  27.864  0.00  0.00    +0.000 A 
ATOM     18  C   UNL     1      -6.701  50.285  27.041  0.00  0.00    +0.000 C 
ATOM     19  C   UNL     1      -6.361  47.434  25.521  0.00  0.00    +0.000 A 
ATOM     20  C   UNL     1      -6.117  45.628  27.612  0.00  0.00    +0.000 A 
ATOM     21  C   UNL     1      -5.707  46.222  25.323  0.00  0.00    +0.000 A 
ATOM     22  C   UNL     1      -5.597  45.314  26.360  0.00  0.00    +0.000 A 
ENDROOT
BRANCH  16  23
ATOM     23  C   UNL     1     -13.440  47.615  31.251  0.00  0.00    +0.000 C 
ATOM     24  O   UNL     1     -13.896  47.729  32.381  0.00  0.00    +0.000 OA
ATOM     25  N   UNL     1     -13.915  46.669  30.398  0.00  0.00    +0.000 N 
ATOM     26  H   UNL     1     -13.366  46.388  29.592  0.00  0.00    +0.000 HD
ATOM     27  H   UNL     1     -14.578  46.006  30.775  0.00  0.00    +0.000 HD
ENDBRANCH  16  23
BRANCH   8  28
ATOM     28  N   UNL     1     -12.327  51.862  29.775  0.00  0.00    +0.000 NA
ATOM     29  C   UNL     1     -13.121  51.894  30.995  0.00  0.00    +0.000 C 
ATOM     30  C   UNL     1     -11.356  52.934  29.844  0.00  0.00    +0.000 C 
ENDBRANCH   8  28
BRANCH  12  31
ATOM     31  O   UNL     1     -10.894  47.867  32.555  0.00  0.00    +0.000 OA
ATOM     32  H   UNL     1      -9.945  47.979  32.793  0.00  0.00    +0.000 HD
ENDBRANCH  12  31
BRANCH   7  33
ATOM     33  O   UNL     1      -9.812  50.402  32.012  0.00  0.00    +0.000 OA
ATOM     34  H   UNL     1      -8.854  50.549  32.123  0.00  0.00    +0.000 HD
ENDBRANCH   7  33
BRANCH  15  35
ATOM     35  O   UNL     1      -6.801  46.477  30.270  0.00  0.00    +0.000 OA
ATOM     36  H   UNL     1      -6.808  45.525  30.037  0.00  0.00    +0.000 HD
ENDBRANCH  15  35
BRANCH   9  37
ATOM     37  O   UNL     1      -8.564  49.325  25.936  0.00  0.00    +0.000 OA
ATOM     38  H   UNL     1      -8.973  50.162  26.223  0.00  0.00    +0.000 HD
ENDBRANCH   9  37
BRANCH  20  39
ATOM     39  O   UNL     1      -6.019  44.663  28.578  0.00  0.00    +0.000 OA
ATOM     40  H   UNL     1      -5.475  43.928  28.247  0.00  0.00    +0.000 HD
ENDBRANCH  20  39
TORSDOF 7
ENDMDL
MODEL 8
REMARK VINA RESULT:      -5.7     23.405     26.537
REMARK  Name = Chlortetracycline.pdbqt.pdb
REMARK  7 active torsions:
REMARK  status: ('A' for Active; 'I' for Inactive)
REMARK    1  A    between atoms: C_7  and  O_30
REMARK    2  A    between atoms: C_8  and  N_32
REMARK    3  A    between atoms: C_9  and  O_37
REMARK    4  A    between atoms: C_12  and  O_28
REMARK    5  A    between atoms: C_15  and  O_35
REMARK    6  A    between atoms: C_16  and  C_23
REMARK    7  A    between atoms: C_20  and  O_39
REMARK                            x       y       z     vdW  Elec       q    Type
REMARK                         _______ _______ _______ _____ _____    ______ ____
ROOT
ATOM      1 CL   UNL     1     -28.429  41.117  25.869  0.00  0.00    +0.000 Cl
ATOM      2  O   UNL     1     -26.361  41.065  18.318  0.00  0.00    +0.000 OA
ATOM      3  O   UNL     1     -23.342  45.680  21.070  0.00  0.00    +0.000 OA
ATOM      4  C   UNL     1     -26.349  44.408  19.976  0.00  0.00    +0.000 C 
ATOM      5  C   UNL     1     -27.007  42.464  21.634  0.00  0.00    +0.000 C 
ATOM      6  C   UNL     1     -26.829  43.771  21.139  0.00  0.00    +0.000 C 
ATOM      7  C   UNL     1     -25.966  43.432  18.889  0.00  0.00    +0.000 C 
ATOM      8  C   UNL     1     -25.507  45.585  20.103  0.00  0.00    +0.000 C 
ATOM      9  C   UNL     1     -27.701  42.054  22.903  0.00  0.00    +0.000 C 
ATOM     10  C   UNL     1     -26.632  41.467  20.654  0.00  0.00    +0.000 C 
ATOM     11  C   UNL     1     -26.331  41.909  19.225  0.00  0.00    +0.000 C 
ATOM     12  C   UNL     1     -24.476  43.476  18.538  0.00  0.00    +0.000 C 
ATOM     13  C   UNL     1     -27.390  40.630  23.335  0.00  0.00    +0.000 A 
ATOM     14  C   UNL     1     -24.052  45.271  20.164  0.00  0.00    +0.000 C 
ATOM     15  C   UNL     1     -26.582  40.164  20.988  0.00  0.00    +0.000 C 
ATOM     16  C   UNL     1     -23.577  44.297  19.130  0.00  0.00    +0.000 C 
ATOM     17  C   UNL     1     -26.812  39.720  22.398  0.00  0.00    +0.000 A 
ATOM     18  C   UNL     1     -29.216  42.273  22.718  0.00  0.00    +0.000 C 
ATOM     19  C   UNL     1     -27.664  40.167  24.644  0.00  0.00    +0.000 A 
ATOM     20  C   UNL     1     -26.473  38.423  22.845  0.00  0.00    +0.000 A 
ATOM     21  C   UNL     1     -27.346  38.869  25.036  0.00  0.00    +0.000 A 
ATOM     22  C   UNL     1     -26.739  38.004  24.146  0.00  0.00    +0.000 A 
ENDROOT
BRANCH  16  23
ATOM     23  C   UNL     1     -22.143  44.349  18.728  0.00  0.00    +0.000 C 
ATOM     24  O   UNL     1     -21.797  44.353  17.554  0.00  0.00    +0.000 OA
ATOM     25  N   UNL     1     -21.221  44.374  19.728  0.00  0.00    +0.000 N 
ATOM     26  H   UNL     1     -21.480  44.088  20.667  0.00  0.00    +0.000 HD
ATOM     27  H   UNL     1     -20.251  44.289  19.457  0.00  0.00    +0.000 HD
ENDBRANCH  16  23
BRANCH   8  28
ATOM     28  N   UNL     1     -25.927  46.869  19.609  0.00  0.00    +0.000 NA
ATOM     29  C   UNL     1     -25.188  47.327  18.441  0.00  0.00    +0.000 C 
ATOM     30  C   UNL     1     -27.341  46.945  19.302  0.00  0.00    +0.000 C 
ENDBRANCH   8  28
BRANCH  12  31
ATOM     31  O   UNL     1     -24.090  42.645  17.483  0.00  0.00    +0.000 OA
ATOM     32  H   UNL     1     -23.220  42.241  17.709  0.00  0.00    +0.000 HD
ENDBRANCH  12  31
BRANCH   7  33
ATOM     33  O   UNL     1     -26.631  43.824  17.687  0.00  0.00    +0.000 OA
ATOM     34  H   UNL     1     -27.152  43.064  17.367  0.00  0.00    +0.000 HD
ENDBRANCH   7  33
BRANCH  15  35
ATOM     35  O   UNL     1     -26.341  39.163  20.072  0.00  0.00    +0.000 OA
ATOM     36  H   UNL     1     -26.222  39.541  19.176  0.00  0.00    +0.000 HD
ENDBRANCH  15  35
BRANCH   9  37
ATOM     37  O   UNL     1     -27.281  42.975  23.891  0.00  0.00    +0.000 OA
ATOM     38  H   UNL     1     -27.615  42.549  24.701  0.00  0.00    +0.000 HD
ENDBRANCH   9  37
BRANCH  20  39
ATOM     39  O   UNL     1     -25.824  37.533  22.033  0.00  0.00    +0.000 OA
ATOM     40  H   UNL     1     -26.250  37.521  21.159  0.00  0.00    +0.000 HD
ENDBRANCH  20  39
TORSDOF 7
ENDMDL
MODEL 9
REMARK VINA RESULT:      -5.6      6.178      8.666
REMARK  Name = Chlortetracycline.pdbqt.pdb
REMARK  7 active torsions:
REMARK  status: ('A' for Active; 'I' for Inactive)
REMARK    1  A    between atoms: C_7  and  O_30
REMARK    2  A    between atoms: C_8  and  N_32
REMARK    3  A    between atoms: C_9  and  O_37
REMARK    4  A    between atoms: C_12  and  O_28
REMARK    5  A    between atoms: C_15  and  O_35
REMARK    6  A    between atoms: C_16  and  C_23
REMARK    7  A    between atoms: C_20  and  O_39
REMARK                            x       y       z     vdW  Elec       q    Type
REMARK                         _______ _______ _______ _____ _____    ______ ____
ROOT
ATOM      1 CL   UNL     1     -10.316  45.767  35.289  0.00  0.00    +0.000 Cl
ATOM      2  O   UNL     1      -8.861  50.373  29.128  0.00  0.00    +0.000 OA
ATOM      3  O   UNL     1      -5.881  45.050  28.251  0.00  0.00    +0.000 OA
ATOM      4  C   UNL     1      -6.145  47.982  30.038  0.00  0.00    +0.000 C 
ATOM      5  C   UNL     1      -8.262  47.742  31.595  0.00  0.00    +0.000 C 
ATOM      6  C   UNL     1      -6.942  47.579  31.129  0.00  0.00    +0.000 C 
ATOM      7  C   UNL     1      -6.865  48.924  29.103  0.00  0.00    +0.000 C 
ATOM      8  C   UNL     1      -5.252  47.021  29.413  0.00  0.00    +0.000 C 
ATOM      9  C   UNL     1      -8.825  47.301  32.917  0.00  0.00    +0.000 C 
ATOM     10  C   UNL     1      -9.028  48.614  30.730  0.00  0.00    +0.000 C 
ATOM     11  C   UNL     1      -8.308  49.383  29.627  0.00  0.00    +0.000 C 
ATOM     12  C   UNL     1      -7.056  48.346  27.697  0.00  0.00    +0.000 C 
ATOM     13  C   UNL     1     -10.346  47.279  32.954  0.00  0.00    +0.000 A 
ATOM     14  C   UNL     1      -5.878  46.272  28.289  0.00  0.00    +0.000 C 
ATOM     15  C   UNL     1     -10.352  48.770  30.916  0.00  0.00    +0.000 C 
ATOM     16  C   UNL     1      -6.631  47.120  27.312  0.00  0.00    +0.000 C 
ATOM     17  C   UNL     1     -11.085  47.975  31.950  0.00  0.00    +0.000 A 
ATOM     18  C   UNL     1      -8.244  48.211  34.018  0.00  0.00    +0.000 C 
ATOM     19  C   UNL     1     -11.060  46.592  33.965  0.00  0.00    +0.000 A 
ATOM     20  C   UNL     1     -12.494  47.883  31.972  0.00  0.00    +0.000 A 
ATOM     21  C   UNL     1     -12.452  46.554  33.970  0.00  0.00    +0.000 A 
ATOM     22  C   UNL     1     -13.168  47.184  32.970  0.00  0.00    +0.000 A 
ENDROOT
BRANCH  16  23
ATOM     23  C   UNL     1      -6.788  46.611  25.920  0.00  0.00    +0.000 C 
ATOM     24  O   UNL     1      -7.875  46.579  25.358  0.00  0.00    +0.000 OA
ATOM     25  N   UNL     1      -5.666  46.160  25.296  0.00  0.00    +0.000 N 
ATOM     26  H   UNL     1      -4.842  45.923  25.839  0.00  0.00    +0.000 HD
ATOM     27  H   UNL     1      -5.792  45.707  24.402  0.00  0.00    +0.000 HD
ENDBRANCH  16  23
BRANCH   8  28
ATOM     28  N   UNL     1      -3.824  47.198  29.430  0.00  0.00    +0.000 NA
ATOM     29  C   UNL     1      -3.270  47.665  28.168  0.00  0.00    +0.000 C 
ATOM     30  C   UNL     1      -3.355  48.080  30.479  0.00  0.00    +0.000 C 
ENDBRANCH   8  28
BRANCH  12  31
ATOM     31  O   UNL     1      -7.650  49.213  26.775  0.00  0.00    +0.000 OA
ATOM     32  H   UNL     1      -6.935  49.694  26.298  0.00  0.00    +0.000 HD
ENDBRANCH  12  31
BRANCH   7  33
ATOM     33  O   UNL     1      -6.042  50.075  28.912  0.00  0.00    +0.000 OA
ATOM     34  H   UNL     1      -6.625  50.841  28.755  0.00  0.00    +0.000 HD
ENDBRANCH   7  33
BRANCH  15  35
ATOM     35  O   UNL     1     -11.110  49.669  30.197  0.00  0.00    +0.000 OA
ATOM     36  H   UNL     1     -11.975  49.813  30.635  0.00  0.00    +0.000 HD
ENDBRANCH  15  35
BRANCH   9  37
ATOM     37  O   UNL     1      -8.304  46.007  33.150  0.00  0.00    +0.000 OA
ATOM     38  H   UNL     1      -7.926  45.795  32.277  0.00  0.00    +0.000 HD
ENDBRANCH   9  37
BRANCH  20  39
ATOM     39  O   UNL     1     -13.263  48.439  30.986  0.00  0.00    +0.000 OA
ATOM     40  H   UNL     1     -12.821  49.233  30.638  0.00  0.00    +0.000 HD
ENDBRANCH  20  39
TORSDOF 7
ENDMDL
