REMARK  Name = Ciclopirox.pdbqt.pdb
REMARK  2 active torsions:
REMARK  status: ('A' for Active; 'I' for Inactive)
REMARK    1  A    between atoms: N_2  and  O_15
REMARK    2  A    between atoms: C_3  and  C_9
REMARK                            x       y       z     vdW  Elec       q    Type
REMARK                         _______ _______ _______ _____ _____    ______ ____
ROOT
ATOM      1  O   UNL     1      -3.263   1.785   0.530  0.00  0.00    +0.000 OA
ATOM      2  N   UNL     1      -1.071   1.018   0.228  0.00  0.00    +0.000 N 
ATOM      3  C   UNL     1      -0.218  -0.036  -0.128  0.00  0.00    +0.000 C 
ATOM      4  C   UNL     1      -0.896  -1.123  -0.400  0.00  0.00    +0.000 C 
ATOM      5  C   UNL     1      -2.262  -1.530  -0.414  0.00  0.00    +0.000 C 
ATOM      6  C   UNL     1      -2.471   0.890   0.271  0.00  0.00    +0.000 C 
ATOM      7  C   UNL     1      -2.894  -0.449  -0.067  0.00  0.00    +0.000 C 
ATOM      8  C   UNL     1      -2.659  -2.864   0.125  0.00  0.00    +0.000 C 
ENDROOT
BRANCH   3   9
ATOM      9  C   UNL     1       1.211   0.053  -0.205  0.00  0.00    +0.000 A 
ATOM     10  C   UNL     1       2.052  -0.967  -0.788  0.00  0.00    +0.000 A 
ATOM     11  C   UNL     1       3.585  -1.158  -0.732  0.00  0.00    +0.000 A 
ATOM     12  C   UNL     1       4.372  -0.103   0.068  0.00  0.00    +0.000 A 
ATOM     13  C   UNL     1       3.565   1.030   0.728  0.00  0.00    +0.000 A 
ATOM     14  C   UNL     1       2.035   0.990   0.517  0.00  0.00    +0.000 A 
ENDBRANCH   3   9
BRANCH   2  15
ATOM     15  O   UNL     1      -0.520   2.292   0.467  0.00  0.00    +0.000 OA
ATOM     16  H   UNL     1      -1.312   2.832   0.667  0.00  0.00    +0.000 HD
ENDBRANCH   2  15
TORSDOF 2
