MODEL 1
REMARK VINA RESULT:      -5.6      0.000      0.000
REMARK  Name = Ciclopirox.pdbqt.pdb
REMARK  2 active torsions:
REMARK  status: ('A' for Active; 'I' for Inactive)
REMARK    1  A    between atoms: N_2  and  O_15
REMARK    2  A    between atoms: C_3  and  C_9
REMARK                            x       y       z     vdW  Elec       q    Type
REMARK                         _______ _______ _______ _____ _____    ______ ____
ROOT
ATOM      1  O   UNL     1      -9.906  48.386  27.957  0.00  0.00    +0.000 OA
ATOM      2  N   UNL     1      -7.850  47.550  27.209  0.00  0.00    +0.000 N 
ATOM      3  C   UNL     1      -7.083  47.056  26.145  0.00  0.00    +0.000 C 
ATOM      4  C   UNL     1      -7.792  46.975  25.047  0.00  0.00    +0.000 C 
ATOM      5  C   UNL     1      -9.135  47.235  24.645  0.00  0.00    +0.000 C 
ATOM      6  C   UNL     1      -9.203  47.909  27.077  0.00  0.00    +0.000 C 
ATOM      7  C   UNL     1      -9.687  47.678  25.735  0.00  0.00    +0.000 C 
ATOM      8  C   UNL     1      -9.853  46.284  23.747  0.00  0.00    +0.000 C 
ENDROOT
BRANCH   3   9
ATOM      9  C   UNL     1      -5.697  46.696  26.227  0.00  0.00    +0.000 A 
ATOM     10  C   UNL     1      -4.661  47.584  26.703  0.00  0.00    +0.000 A 
ATOM     11  C   UNL     1      -3.122  47.464  26.625  0.00  0.00    +0.000 A 
ATOM     12  C   UNL     1      -2.573  46.202  25.933  0.00  0.00    +0.000 A 
ATOM     13  C   UNL     1      -3.600  45.190  25.392  0.00  0.00    +0.000 A 
ATOM     14  C   UNL     1      -5.088  45.550  25.601  0.00  0.00    +0.000 A 
ENDBRANCH   3   9
BRANCH   2  15
ATOM     15  O   UNL     1      -7.225  47.789  28.449  0.00  0.00    +0.000 OA
ATOM     16  H   UNL     1      -6.460  48.346  28.197  0.00  0.00    +0.000 HD
ENDBRANCH   2  15
TORSDOF 2
ENDMDL
MODEL 2
REMARK VINA RESULT:      -5.1     22.951     24.943
REMARK  Name = Ciclopirox.pdbqt.pdb
REMARK  2 active torsions:
REMARK  status: ('A' for Active; 'I' for Inactive)
REMARK    1  A    between atoms: N_2  and  O_15
REMARK    2  A    between atoms: C_3  and  C_9
REMARK                            x       y       z     vdW  Elec       q    Type
REMARK                         _______ _______ _______ _____ _____    ______ ____
ROOT
ATOM      1  O   UNL     1     -14.333  37.462   6.323  0.00  0.00    +0.000 OA
ATOM      2  N   UNL     1     -16.653  37.776   6.342  0.00  0.00    +0.000 N 
ATOM      3  C   UNL     1     -17.738  38.642   6.144  0.00  0.00    +0.000 C 
ATOM      4  C   UNL     1     -17.332  39.847   5.832  0.00  0.00    +0.000 C 
ATOM      5  C   UNL     1     -16.088  40.521   5.657  0.00  0.00    +0.000 C 
ATOM      6  C   UNL     1     -15.314  38.183   6.207  0.00  0.00    +0.000 C 
ATOM      7  C   UNL     1     -15.213  39.584   5.873  0.00  0.00    +0.000 C 
ATOM      8  C   UNL     1     -15.892  41.900   6.195  0.00  0.00    +0.000 C 
ENDROOT
BRANCH   3   9
ATOM      9  C   UNL     1     -19.118  38.269   6.251  0.00  0.00    +0.000 A 
ATOM     10  C   UNL     1     -19.792  38.019   7.505  0.00  0.00    +0.000 A 
ATOM     11  C   UNL     1     -21.167  37.376   7.796  0.00  0.00    +0.000 A 
ATOM     12  C   UNL     1     -21.975  36.917   6.568  0.00  0.00    +0.000 A 
ATOM     13  C   UNL     1     -21.344  37.141   5.182  0.00  0.00    +0.000 A 
ATOM     14  C   UNL     1     -19.951  37.809   5.167  0.00  0.00    +0.000 A 
ENDBRANCH   3   9
BRANCH   2  15
ATOM     15  O   UNL     1     -16.904  36.414   6.597  0.00  0.00    +0.000 OA
ATOM     16  H   UNL     1     -17.526  36.451   7.353  0.00  0.00    +0.000 HD
ENDBRANCH   2  15
TORSDOF 2
ENDMDL
MODEL 3
REMARK VINA RESULT:      -5.0      1.953      2.440
REMARK  Name = Ciclopirox.pdbqt.pdb
REMARK  2 active torsions:
REMARK  status: ('A' for Active; 'I' for Inactive)
REMARK    1  A    between atoms: N_2  and  O_15
REMARK    2  A    between atoms: C_3  and  C_9
REMARK                            x       y       z     vdW  Elec       q    Type
REMARK                         _______ _______ _______ _____ _____    ______ ____
ROOT
ATOM      1  O   UNL     1      -8.876  51.211  27.763  0.00  0.00    +0.000 OA
ATOM      2  N   UNL     1      -7.785  49.179  27.360  0.00  0.00    +0.000 N 
ATOM      3  C   UNL     1      -7.869  47.851  26.919  0.00  0.00    +0.000 C 
ATOM      4  C   UNL     1      -9.098  47.535  26.597  0.00  0.00    +0.000 C 
ATOM      5  C   UNL     1     -10.376  48.168  26.592  0.00  0.00    +0.000 C 
ATOM      6  C   UNL     1      -8.899  50.035  27.430  0.00  0.00    +0.000 C 
ATOM      7  C   UNL     1     -10.111  49.366  27.020  0.00  0.00    +0.000 C 
ATOM      8  C   UNL     1     -11.587  47.430  27.057  0.00  0.00    +0.000 C 
ENDROOT
BRANCH   3   9
ATOM      9  C   UNL     1      -6.760  46.949  26.812  0.00  0.00    +0.000 A 
ATOM     10  C   UNL     1      -5.968  46.783  25.615  0.00  0.00    +0.000 A 
ATOM     11  C   UNL     1      -4.926  45.704  25.241  0.00  0.00    +0.000 A 
ATOM     12  C   UNL     1      -4.667  44.614  26.299  0.00  0.00    +0.000 A 
ATOM     13  C   UNL     1      -5.462  44.704  27.615  0.00  0.00    +0.000 A 
ATOM     14  C   UNL     1      -6.446  45.889  27.737  0.00  0.00    +0.000 A 
ENDBRANCH   3   9
BRANCH   2  15
ATOM     15  O   UNL     1      -6.520  49.720  27.663  0.00  0.00    +0.000 OA
ATOM     16  H   UNL     1      -6.027  48.938  27.986  0.00  0.00    +0.000 HD
ENDBRANCH   2  15
TORSDOF 2
ENDMDL
MODEL 4
REMARK VINA RESULT:      -4.9     23.718     26.157
REMARK  Name = Ciclopirox.pdbqt.pdb
REMARK  2 active torsions:
REMARK  status: ('A' for Active; 'I' for Inactive)
REMARK    1  A    between atoms: N_2  and  O_15
REMARK    2  A    between atoms: C_3  and  C_9
REMARK                            x       y       z     vdW  Elec       q    Type
REMARK                         _______ _______ _______ _____ _____    ______ ____
ROOT
ATOM      1  O   UNL     1     -16.268  42.232  -1.267  0.00  0.00    +0.000 OA
ATOM      2  N   UNL     1     -16.032  42.625   1.029  0.00  0.00    +0.000 N 
ATOM      3  C   UNL     1     -15.659  43.507   2.053  0.00  0.00    +0.000 C 
ATOM      4  C   UNL     1     -15.197  44.632   1.565  0.00  0.00    +0.000 C 
ATOM      5  C   UNL     1     -14.955  45.194   0.277  0.00  0.00    +0.000 C 
ATOM      6  C   UNL     1     -15.917  42.943  -0.336  0.00  0.00    +0.000 C 
ATOM      7  C   UNL     1     -15.352  44.257  -0.531  0.00  0.00    +0.000 C 
ATOM      8  C   UNL     1     -13.704  45.964   0.012  0.00  0.00    +0.000 C 
ENDROOT
BRANCH   3   9
ATOM      9  C   UNL     1     -15.776  43.236   3.456  0.00  0.00    +0.000 A 
ATOM     10  C   UNL     1     -14.848  42.413   4.198  0.00  0.00    +0.000 A 
ATOM     11  C   UNL     1     -14.951  41.815   5.620  0.00  0.00    +0.000 A 
ATOM     12  C   UNL     1     -16.242  42.132   6.398  0.00  0.00    +0.000 A 
ATOM     13  C   UNL     1     -17.295  43.006   5.693  0.00  0.00    +0.000 A 
ATOM     14  C   UNL     1     -16.944  43.478   4.264  0.00  0.00    +0.000 A 
ENDBRANCH   3   9
BRANCH   2  15
ATOM     15  O   UNL     1     -16.635  41.399   1.370  0.00  0.00    +0.000 OA
ATOM     16  H   UNL     1     -15.866  40.843   1.612  0.00  0.00    +0.000 HD
ENDBRANCH   2  15
TORSDOF 2
ENDMDL
MODEL 5
REMARK VINA RESULT:      -4.9     20.545     21.422
REMARK  Name = Ciclopirox.pdbqt.pdb
REMARK  2 active torsions:
REMARK  status: ('A' for Active; 'I' for Inactive)
REMARK    1  A    between atoms: N_2  and  O_15
REMARK    2  A    between atoms: C_3  and  C_9
REMARK                            x       y       z     vdW  Elec       q    Type
REMARK                         _______ _______ _______ _____ _____    ______ ____
ROOT
ATOM      1  O   UNL     1     -27.173  39.624  24.465  0.00  0.00    +0.000 OA
ATOM      2  N   UNL     1     -26.238  38.769  22.495  0.00  0.00    +0.000 N 
ATOM      3  C   UNL     1     -25.844  38.997  21.169  0.00  0.00    +0.000 C 
ATOM      4  C   UNL     1     -26.126  40.220  20.795  0.00  0.00    +0.000 C 
ATOM      5  C   UNL     1     -26.741  41.374  21.361  0.00  0.00    +0.000 C 
ATOM      6  C   UNL     1     -26.850  39.753  23.293  0.00  0.00    +0.000 C 
ATOM      7  C   UNL     1     -27.036  40.988  22.567  0.00  0.00    +0.000 C 
ATOM      8  C   UNL     1     -27.696  42.194  20.558  0.00  0.00    +0.000 C 
ENDROOT
BRANCH   3   9
ATOM      9  C   UNL     1     -25.199  38.033  20.326  0.00  0.00    +0.000 A 
ATOM     10  C   UNL     1     -25.641  36.665  20.181  0.00  0.00    +0.000 A 
ATOM     11  C   UNL     1     -24.943  35.447  19.535  0.00  0.00    +0.000 A 
ATOM     12  C   UNL     1     -23.546  35.702  18.940  0.00  0.00    +0.000 A 
ATOM     13  C   UNL     1     -22.984  37.132  19.042  0.00  0.00    +0.000 A 
ATOM     14  C   UNL     1     -23.890  38.172  19.739  0.00  0.00    +0.000 A 
ENDBRANCH   3   9
BRANCH   2  15
ATOM     15  O   UNL     1     -25.931  37.533  23.097  0.00  0.00    +0.000 OA
ATOM     16  H   UNL     1     -26.795  37.253  23.461  0.00  0.00    +0.000 HD
ENDBRANCH   2  15
TORSDOF 2
ENDMDL
MODEL 6
REMARK VINA RESULT:      -4.6     15.030     15.663
REMARK  Name = Ciclopirox.pdbqt.pdb
REMARK  2 active torsions:
REMARK  status: ('A' for Active; 'I' for Inactive)
REMARK    1  A    between atoms: N_2  and  O_15
REMARK    2  A    between atoms: C_3  and  C_9
REMARK                            x       y       z     vdW  Elec       q    Type
REMARK                         _______ _______ _______ _____ _____    ______ ____
ROOT
ATOM      1  O   UNL     1       0.310  58.813  18.900  0.00  0.00    +0.000 OA
ATOM      2  N   UNL     1       1.888  57.155  18.406  0.00  0.00    +0.000 N 
ATOM      3  C   UNL     1       2.873  56.273  18.873  0.00  0.00    +0.000 C 
ATOM      4  C   UNL     1       3.060  56.411  20.162  0.00  0.00    +0.000 C 
ATOM      5  C   UNL     1       2.549  57.227  21.214  0.00  0.00    +0.000 C 
ATOM      6  C   UNL     1       1.206  58.055  19.244  0.00  0.00    +0.000 C 
ATOM      7  C   UNL     1       1.667  57.966  20.610  0.00  0.00    +0.000 C 
ATOM      8  C   UNL     1       3.469  57.803  22.238  0.00  0.00    +0.000 C 
ENDROOT
BRANCH   3   9
ATOM      9  C   UNL     1       3.580  55.326  18.062  0.00  0.00    +0.000 A 
ATOM     10  C   UNL     1       3.000  54.099  17.565  0.00  0.00    +0.000 A 
ATOM     11  C   UNL     1       3.666  52.867  16.910  0.00  0.00    +0.000 A 
ATOM     12  C   UNL     1       5.196  52.929  16.744  0.00  0.00    +0.000 A 
ATOM     13  C   UNL     1       5.909  54.200  17.242  0.00  0.00    +0.000 A 
ATOM     14  C   UNL     1       5.007  55.290  17.861  0.00  0.00    +0.000 A 
ENDBRANCH   3   9
BRANCH   2  15
ATOM     15  O   UNL     1       1.491  57.083  17.057  0.00  0.00    +0.000 OA
ATOM     16  H   UNL     1       0.935  57.883  16.956  0.00  0.00    +0.000 HD
ENDBRANCH   2  15
TORSDOF 2
ENDMDL
MODEL 7
REMARK VINA RESULT:      -4.5     20.073     22.054
REMARK  Name = Ciclopirox.pdbqt.pdb
REMARK  2 active torsions:
REMARK  status: ('A' for Active; 'I' for Inactive)
REMARK    1  A    between atoms: N_2  and  O_15
REMARK    2  A    between atoms: C_3  and  C_9
REMARK                            x       y       z     vdW  Elec       q    Type
REMARK                         _______ _______ _______ _____ _____    ______ ____
ROOT
ATOM      1  O   UNL     1     -26.300  39.130  23.459  0.00  0.00    +0.000 OA
ATOM      2  N   UNL     1     -25.913  37.924  21.490  0.00  0.00    +0.000 N 
ATOM      3  C   UNL     1     -25.296  37.866  20.232  0.00  0.00    +0.000 C 
ATOM      4  C   UNL     1     -24.650  38.974  19.969  0.00  0.00    +0.000 C 
ATOM      5  C   UNL     1     -24.418  40.228  20.606  0.00  0.00    +0.000 C 
ATOM      6  C   UNL     1     -25.822  39.043  22.337  0.00  0.00    +0.000 C 
ATOM      7  C   UNL     1     -25.049  40.105  21.736  0.00  0.00    +0.000 C 
ATOM      8  C   UNL     1     -24.478  41.497  19.822  0.00  0.00    +0.000 C 
ENDROOT
BRANCH   3   9
ATOM      9  C   UNL     1     -25.345  36.741  19.344  0.00  0.00    +0.000 A 
ATOM     10  C   UNL     1     -26.389  36.529  18.368  0.00  0.00    +0.000 A 
ATOM     11  C   UNL     1     -26.737  35.281  17.524  0.00  0.00    +0.000 A 
ATOM     12  C   UNL     1     -25.841  34.047  17.736  0.00  0.00    +0.000 A 
ATOM     13  C   UNL     1     -24.695  34.172  18.756  0.00  0.00    +0.000 A 
ATOM     14  C   UNL     1     -24.562  35.537  19.469  0.00  0.00    +0.000 A 
ENDBRANCH   3   9
BRANCH   2  15
ATOM     15  O   UNL     1     -26.580  36.783  21.977  0.00  0.00    +0.000 OA
ATOM     16  H   UNL     1     -25.843  36.157  22.134  0.00  0.00    +0.000 HD
ENDBRANCH   2  15
TORSDOF 2
ENDMDL
MODEL 8
REMARK VINA RESULT:      -4.5      9.605     11.682
REMARK  Name = Ciclopirox.pdbqt.pdb
REMARK  2 active torsions:
REMARK  status: ('A' for Active; 'I' for Inactive)
REMARK    1  A    between atoms: N_2  and  O_15
REMARK    2  A    between atoms: C_3  and  C_9
REMARK                            x       y       z     vdW  Elec       q    Type
REMARK                         _______ _______ _______ _____ _____    ______ ____
ROOT
ATOM      1  O   UNL     1     -16.253  41.337  34.006  0.00  0.00    +0.000 OA
ATOM      2  N   UNL     1     -15.323  43.438  33.550  0.00  0.00    +0.000 N 
ATOM      3  C   UNL     1     -15.477  44.831  33.546  0.00  0.00    +0.000 C 
ATOM      4  C   UNL     1     -16.677  45.177  33.942  0.00  0.00    +0.000 C 
ATOM      5  C   UNL     1     -17.873  44.521  34.357  0.00  0.00    +0.000 C 
ATOM      6  C   UNL     1     -16.346  42.555  33.941  0.00  0.00    +0.000 C 
ATOM      7  C   UNL     1     -17.552  43.263  34.301  0.00  0.00    +0.000 C 
ATOM      8  C   UNL     1     -19.203  45.001  33.879  0.00  0.00    +0.000 C 
ENDROOT
BRANCH   3   9
ATOM      9  C   UNL     1     -14.458  45.770  33.176  0.00  0.00    +0.000 A 
ATOM     10  C   UNL     1     -14.510  46.589  31.987  0.00  0.00    +0.000 A 
ATOM     11  C   UNL     1     -13.417  47.446  31.309  0.00  0.00    +0.000 A 
ATOM     12  C   UNL     1     -12.036  47.448  31.990  0.00  0.00    +0.000 A 
ATOM     13  C   UNL     1     -11.877  46.605  33.269  0.00  0.00    +0.000 A 
ATOM     14  C   UNL     1     -13.133  45.838  33.740  0.00  0.00    +0.000 A 
ENDBRANCH   3   9
BRANCH   2  15
ATOM     15  O   UNL     1     -14.064  42.888  33.238  0.00  0.00    +0.000 OA
ATOM     16  H   UNL     1     -13.490  43.262  33.938  0.00  0.00    +0.000 HD
ENDBRANCH   2  15
TORSDOF 2
ENDMDL
MODEL 9
REMARK VINA RESULT:      -4.3     10.314     12.022
REMARK  Name = Ciclopirox.pdbqt.pdb
REMARK  2 active torsions:
REMARK  status: ('A' for Active; 'I' for Inactive)
REMARK    1  A    between atoms: N_2  and  O_15
REMARK    2  A    between atoms: C_3  and  C_9
REMARK                            x       y       z     vdW  Elec       q    Type
REMARK                         _______ _______ _______ _____ _____    ______ ____
ROOT
ATOM      1  O   UNL     1     -16.666  41.126  34.181  0.00  0.00    +0.000 OA
ATOM      2  N   UNL     1     -14.922  42.655  34.510  0.00  0.00    +0.000 N 
ATOM      3  C   UNL     1     -14.528  43.987  34.700  0.00  0.00    +0.000 C 
ATOM      4  C   UNL     1     -15.557  44.796  34.656  0.00  0.00    +0.000 C 
ATOM      5  C   UNL     1     -16.964  44.693  34.449  0.00  0.00    +0.000 C 
ATOM      6  C   UNL     1     -16.261  42.273  34.307  0.00  0.00    +0.000 C 
ATOM      7  C   UNL     1     -17.145  43.416  34.295  0.00  0.00    +0.000 C 
ATOM      8  C   UNL     1     -17.676  45.684  33.589  0.00  0.00    +0.000 C 
ENDROOT
BRANCH   3   9
ATOM      9  C   UNL     1     -13.181  44.421  34.929  0.00  0.00    +0.000 A 
ATOM     10  C   UNL     1     -12.566  44.483  36.235  0.00  0.00    +0.000 A 
ATOM     11  C   UNL     1     -11.248  45.148  36.694  0.00  0.00    +0.000 A 
ATOM     12  C   UNL     1     -10.436  45.870  35.603  0.00  0.00    +0.000 A 
ATOM     13  C   UNL     1     -11.007  45.860  34.173  0.00  0.00    +0.000 A 
ATOM     14  C   UNL     1     -12.349  45.119  33.981  0.00  0.00    +0.000 A 
ENDBRANCH   3   9
BRANCH   2  15
ATOM     15  O   UNL     1     -13.957  41.635  34.616  0.00  0.00    +0.000 OA
ATOM     16  H   UNL     1     -13.290  42.035  35.211  0.00  0.00    +0.000 HD
ENDBRANCH   2  15
TORSDOF 2
ENDMDL
