MODEL 1
REMARK VINA RESULT:      -5.6      0.000      0.000
REMARK  Name = 
REMARK  14 active torsions:
REMARK  status: ('A' for Active; 'I' for Inactive)
REMARK    1  A    between atoms: S_2  and  C_21
REMARK    2  A    between atoms: S_2  and  C_27
REMARK    3  A    between atoms: O_4  and  C_16
REMARK    4  A    between atoms: O_5  and  C_18
REMARK    5  A    between atoms: O_6  and  C_20
REMARK    6  A    between atoms: N_8  and  C_23
REMARK    7  A    between atoms: N_9  and  C_15
REMARK    8  A    between atoms: C_10  and  C_17
REMARK    9  A    between atoms: C_11  and  C_19
REMARK   10  A    between atoms: C_14  and  C_15
REMARK   11  A    between atoms: C_15  and  C_22
REMARK   12  A    between atoms: C_17  and  C_24
REMARK   13  A    between atoms: C_22  and  C_25
REMARK   14  A    between atoms: C_24  and  C_26
REMARK                            x       y       z     vdW  Elec       q    Type
REMARK                         _______ _______ _______ _____ _____    ______ ____
ROOT
ATOM      1  C   UNL     1     -25.276  43.023  20.819  0.00  0.00    +0.000 C 
ENDROOT
BRANCH   1   3
ATOM      2  O   UNL     1     -24.462  45.302  20.753  0.00  0.00    +0.000 OA
ATOM      3  C   UNL     1     -24.797  44.188  19.898  0.00  0.00    +0.000 C 
ATOM      4  C   UNL     1     -23.604  43.808  18.994  0.00  0.00    +0.000 C 
ATOM      5  C   UNL     1     -23.113  45.028  18.206  0.00  0.00    +0.000 C 
ATOM      6  C   UNL     1     -22.795  46.187  19.161  0.00  0.00    +0.000 C 
ATOM      7  C   UNL     1     -24.000  46.476  20.080  0.00  0.00    +0.000 C 
BRANCH   7   8
ATOM      8  S   UNL     1     -25.369  47.341  19.202  0.00  0.00    +0.000 S 
ATOM      9  C   UNL     1     -25.251  48.942  20.034  0.00  0.00    +0.000 C 
ENDBRANCH   7   8
BRANCH   4  10
ATOM     10  O   UNL     1     -22.493  43.318  19.763  0.00  0.00    +0.000 OA
ATOM     11  H   UNL     1     -22.202  44.062  20.342  0.00  0.00    +0.000 HD
ENDBRANCH   4  10
BRANCH   5  12
ATOM     12  O   UNL     1     -21.947  44.656  17.456  0.00  0.00    +0.000 OA
ATOM     13  H   UNL     1     -21.206  44.708  18.092  0.00  0.00    +0.000 HD
ENDBRANCH   5  12
BRANCH   6  14
ATOM     14  O   UNL     1     -22.376  47.362  18.452  0.00  0.00    +0.000 OA
ATOM     15  H   UNL     1     -21.791  47.862  19.048  0.00  0.00    +0.000 HD
ENDBRANCH   6  14
ENDBRANCH   1   3
BRANCH   1  17
ATOM     16  O   UNL     1     -23.591  40.783  21.081  0.00  0.00    +0.000 OA
ATOM     17  N   UNL     1     -25.394  41.750  20.091  0.00  0.00    +0.000 N 
ATOM     18  C   UNL     1     -24.542  40.683  20.307  0.00  0.00    +0.000 C 
ATOM     19  H   UNL     1     -26.114  41.679  19.379  0.00  0.00    +0.000 HD
BRANCH  18  22
ATOM     20  N   UNL     1     -24.154  39.470  18.156  0.00  0.00    +0.000 NA
ATOM     21  C   UNL     1     -23.485  37.472  19.096  0.00  0.00    +0.000 C 
ATOM     22  C   UNL     1     -24.867  39.445  19.448  0.00  0.00    +0.000 C 
ATOM     23  C   UNL     1     -24.404  38.144  20.118  0.00  0.00    +0.000 C 
ATOM     24  C   UNL     1     -23.943  38.076  17.774  0.00  0.00    +0.000 C 
ATOM     25  C   UNL     1     -24.851  40.233  17.131  0.00  0.00    +0.000 C 
BRANCH  21  26
ATOM     26  C   UNL     1     -23.537  35.943  19.098  0.00  0.00    +0.000 C 
BRANCH  26  27
ATOM     27  C   UNL     1     -24.886  35.405  18.617  0.00  0.00    +0.000 C 
ATOM     28  C   UNL     1     -25.160  34.017  19.174  0.00  0.00    +0.000 C 
ENDBRANCH  26  27
ENDBRANCH  21  26
ENDBRANCH  18  22
ENDBRANCH   1  17
BRANCH   1  30
ATOM     29 CL   UNL     1     -27.916  43.712  20.352  0.00  0.00    +0.000 Cl
ATOM     30  C   UNL     1     -26.609  43.363  21.540  0.00  0.00    +0.000 C 
ATOM     31  C   UNL     1     -27.073  42.226  22.449  0.00  0.00    +0.000 C 
ENDBRANCH   1  30
TORSDOF 10
ENDMDL
MODEL 2
REMARK VINA RESULT:      -5.6     14.821     16.172
REMARK  Name = 
REMARK  14 active torsions:
REMARK  status: ('A' for Active; 'I' for Inactive)
REMARK    1  A    between atoms: S_2  and  C_21
REMARK    2  A    between atoms: S_2  and  C_27
REMARK    3  A    between atoms: O_4  and  C_16
REMARK    4  A    between atoms: O_5  and  C_18
REMARK    5  A    between atoms: O_6  and  C_20
REMARK    6  A    between atoms: N_8  and  C_23
REMARK    7  A    between atoms: N_9  and  C_15
REMARK    8  A    between atoms: C_10  and  C_17
REMARK    9  A    between atoms: C_11  and  C_19
REMARK   10  A    between atoms: C_14  and  C_15
REMARK   11  A    between atoms: C_15  and  C_22
REMARK   12  A    between atoms: C_17  and  C_24
REMARK   13  A    between atoms: C_22  and  C_25
REMARK   14  A    between atoms: C_24  and  C_26
REMARK                            x       y       z     vdW  Elec       q    Type
REMARK                         _______ _______ _______ _____ _____    ______ ____
ROOT
ATOM      1  C   UNL     1     -19.090  39.661   5.823  0.00  0.00    +0.000 C 
ENDROOT
BRANCH   1   3
ATOM      2  O   UNL     1     -18.552  42.021   5.869  0.00  0.00    +0.000 OA
ATOM      3  C   UNL     1     -18.291  40.808   5.130  0.00  0.00    +0.000 C 
ATOM      4  C   UNL     1     -16.774  40.533   5.038  0.00  0.00    +0.000 C 
ATOM      5  C   UNL     1     -16.040  41.747   4.456  0.00  0.00    +0.000 C 
ATOM      6  C   UNL     1     -16.372  43.009   5.264  0.00  0.00    +0.000 C 
ATOM      7  C   UNL     1     -17.900  43.193   5.374  0.00  0.00    +0.000 C 
BRANCH   7   8
ATOM      8  S   UNL     1     -18.658  43.784   3.804  0.00  0.00    +0.000 S 
ATOM      9  C   UNL     1     -20.373  43.907   4.363  0.00  0.00    +0.000 C 
ENDBRANCH   7   8
BRANCH   4  10
ATOM     10  O   UNL     1     -16.206  40.267   6.332  0.00  0.00    +0.000 OA
ATOM     11  H   UNL     1     -15.717  41.082   6.597  0.00  0.00    +0.000 HD
ENDBRANCH   4  10
BRANCH   5  12
ATOM     12  O   UNL     1     -14.628  41.489   4.479  0.00  0.00    +0.000 OA
ATOM     13  H   UNL     1     -14.219  42.328   4.771  0.00  0.00    +0.000 HD
ENDBRANCH   5  12
BRANCH   6  14
ATOM     14  O   UNL     1     -15.737  44.174   4.717  0.00  0.00    +0.000 OA
ATOM     15  H   UNL     1     -16.062  44.941   5.222  0.00  0.00    +0.000 HD
ENDBRANCH   6  14
ENDBRANCH   1   3
BRANCH   1  17
ATOM     16  O   UNL     1     -19.197  37.823   7.953  0.00  0.00    +0.000 OA
ATOM     17  N   UNL     1     -18.296  38.430   5.956  0.00  0.00    +0.000 N 
ATOM     18  C   UNL     1     -18.438  37.560   7.022  0.00  0.00    +0.000 C 
ATOM     19  H   UNL     1     -17.594  38.241   5.247  0.00  0.00    +0.000 HD
BRANCH  18  22
ATOM     20  N   UNL     1     -18.197  35.172   6.322  0.00  0.00    +0.000 NA
ATOM     21  C   UNL     1     -16.334  35.473   4.994  0.00  0.00    +0.000 C 
ATOM     22  C   UNL     1     -17.518  36.326   6.943  0.00  0.00    +0.000 C 
ATOM     23  C   UNL     1     -16.294  36.579   6.052  0.00  0.00    +0.000 C 
ATOM     24  C   UNL     1     -17.155  34.382   5.671  0.00  0.00    +0.000 C 
ATOM     25  C   UNL     1     -18.984  34.394   7.267  0.00  0.00    +0.000 C 
BRANCH  21  26
ATOM     26  C   UNL     1     -14.960  34.981   4.534  0.00  0.00    +0.000 C 
BRANCH  26  27
ATOM     27  C   UNL     1     -13.813  35.718   5.228  0.00  0.00    +0.000 C 
ATOM     28  C   UNL     1     -12.463  35.140   4.834  0.00  0.00    +0.000 C 
ENDBRANCH  26  27
ENDBRANCH  21  26
ENDBRANCH  18  22
ENDBRANCH   1  17
BRANCH   1  30
ATOM     29 CL   UNL     1     -21.750  40.421   5.723  0.00  0.00    +0.000 Cl
ATOM     30  C   UNL     1     -20.432  39.366   5.097  0.00  0.00    +0.000 C 
ATOM     31  C   UNL     1     -20.323  39.573   3.587  0.00  0.00    +0.000 C 
ENDBRANCH   1  30
TORSDOF 10
ENDMDL
MODEL 3
REMARK VINA RESULT:      -5.5     14.444     17.181
REMARK  Name = 
REMARK  14 active torsions:
REMARK  status: ('A' for Active; 'I' for Inactive)
REMARK    1  A    between atoms: S_2  and  C_21
REMARK    2  A    between atoms: S_2  and  C_27
REMARK    3  A    between atoms: O_4  and  C_16
REMARK    4  A    between atoms: O_5  and  C_18
REMARK    5  A    between atoms: O_6  and  C_20
REMARK    6  A    between atoms: N_8  and  C_23
REMARK    7  A    between atoms: N_9  and  C_15
REMARK    8  A    between atoms: C_10  and  C_17
REMARK    9  A    between atoms: C_11  and  C_19
REMARK   10  A    between atoms: C_14  and  C_15
REMARK   11  A    between atoms: C_15  and  C_22
REMARK   12  A    between atoms: C_17  and  C_24
REMARK   13  A    between atoms: C_22  and  C_25
REMARK   14  A    between atoms: C_24  and  C_26
REMARK                            x       y       z     vdW  Elec       q    Type
REMARK                         _______ _______ _______ _____ _____    ______ ____
ROOT
ATOM      1  C   UNL     1     -17.030  39.443   5.954  0.00  0.00    +0.000 C 
ENDROOT
BRANCH   1   3
ATOM      2  O   UNL     1     -18.186  37.838   7.348  0.00  0.00    +0.000 OA
ATOM      3  C   UNL     1     -18.278  38.515   6.077  0.00  0.00    +0.000 C 
ATOM      4  C   UNL     1     -19.619  39.267   5.946  0.00  0.00    +0.000 C 
ATOM      5  C   UNL     1     -20.797  38.317   6.194  0.00  0.00    +0.000 C 
ATOM      6  C   UNL     1     -20.637  37.609   7.546  0.00  0.00    +0.000 C 
ATOM      7  C   UNL     1     -19.253  36.932   7.640  0.00  0.00    +0.000 C 
BRANCH   7   8
ATOM      8  S   UNL     1     -19.143  35.400   6.624  0.00  0.00    +0.000 S 
ATOM      9  C   UNL     1     -18.762  34.228   7.947  0.00  0.00    +0.000 C 
ENDBRANCH   7   8
BRANCH   4  10
ATOM     10  O   UNL     1     -19.722  40.335   6.903  0.00  0.00    +0.000 OA
ATOM     11  H   UNL     1     -20.674  40.589   6.939  0.00  0.00    +0.000 HD
ENDBRANCH   4  10
BRANCH   5  12
ATOM     12  O   UNL     1     -22.017  39.073   6.160  0.00  0.00    +0.000 OA
ATOM     13  H   UNL     1     -21.966  39.675   6.929  0.00  0.00    +0.000 HD
ENDBRANCH   5  12
BRANCH   6  14
ATOM     14  O   UNL     1     -21.700  36.676   7.788  0.00  0.00    +0.000 OA
ATOM     15  H   UNL     1     -21.457  35.843   7.345  0.00  0.00    +0.000 HD
ENDBRANCH   6  14
ENDBRANCH   1   3
BRANCH   1  17
ATOM     16  O   UNL     1     -15.941  41.912   6.758  0.00  0.00    +0.000 OA
ATOM     17  N   UNL     1     -17.371  40.768   5.412  0.00  0.00    +0.000 N 
ATOM     18  C   UNL     1     -16.759  41.932   5.841  0.00  0.00    +0.000 C 
ATOM     19  H   UNL     1     -18.113  40.818   4.721  0.00  0.00    +0.000 HD
BRANCH  18  22
ATOM     20  N   UNL     1     -16.942  43.174   3.679  0.00  0.00    +0.000 NA
ATOM     21  C   UNL     1     -19.235  43.430   3.714  0.00  0.00    +0.000 C 
ATOM     22  C   UNL     1     -17.261  43.198   5.120  0.00  0.00    +0.000 C 
ATOM     23  C   UNL     1     -18.790  43.323   5.175  0.00  0.00    +0.000 C 
ATOM     24  C   UNL     1     -17.986  43.949   3.013  0.00  0.00    +0.000 C 
ATOM     25  C   UNL     1     -15.604  43.662   3.380  0.00  0.00    +0.000 C 
BRANCH  21  26
ATOM     26  C   UNL     1     -20.457  44.321   3.484  0.00  0.00    +0.000 C 
BRANCH  26  27
ATOM     27  C   UNL     1     -20.098  45.637   2.792  0.00  0.00    +0.000 C 
ATOM     28  C   UNL     1     -20.734  46.825   3.496  0.00  0.00    +0.000 C 
ENDBRANCH  26  27
ENDBRANCH  21  26
ENDBRANCH  18  22
ENDBRANCH   1  17
BRANCH   1  30
ATOM     29 CL   UNL     1     -14.763  37.869   6.167  0.00  0.00    +0.000 Cl
ATOM     30  C   UNL     1     -15.898  38.788   5.115  0.00  0.00    +0.000 C 
ATOM     31  C   UNL     1     -16.449  37.839   4.052  0.00  0.00    +0.000 C 
ENDBRANCH   1  30
TORSDOF 10
ENDMDL
MODEL 4
REMARK VINA RESULT:      -5.4     26.844     28.634
REMARK  Name = 
REMARK  14 active torsions:
REMARK  status: ('A' for Active; 'I' for Inactive)
REMARK    1  A    between atoms: S_2  and  C_21
REMARK    2  A    between atoms: S_2  and  C_27
REMARK    3  A    between atoms: O_4  and  C_16
REMARK    4  A    between atoms: O_5  and  C_18
REMARK    5  A    between atoms: O_6  and  C_20
REMARK    6  A    between atoms: N_8  and  C_23
REMARK    7  A    between atoms: N_9  and  C_15
REMARK    8  A    between atoms: C_10  and  C_17
REMARK    9  A    between atoms: C_11  and  C_19
REMARK   10  A    between atoms: C_14  and  C_15
REMARK   11  A    between atoms: C_15  and  C_22
REMARK   12  A    between atoms: C_17  and  C_24
REMARK   13  A    between atoms: C_22  and  C_25
REMARK   14  A    between atoms: C_24  and  C_26
REMARK                            x       y       z     vdW  Elec       q    Type
REMARK                         _______ _______ _______ _____ _____    ______ ____
ROOT
ATOM      1  C   UNL     1      -1.674  38.985   2.069  0.00  0.00    +0.000 C 
ENDROOT
BRANCH   1   3
ATOM      2  O   UNL     1       0.507  38.956   3.117  0.00  0.00    +0.000 OA
ATOM      3  C   UNL     1      -0.292  38.265   2.133  0.00  0.00    +0.000 C 
ATOM      4  C   UNL     1      -0.395  36.760   2.463  0.00  0.00    +0.000 C 
ATOM      5  C   UNL     1       1.000  36.146   2.625  0.00  0.00    +0.000 C 
ATOM      6  C   UNL     1       1.812  36.932   3.664  0.00  0.00    +0.000 C 
ATOM      7  C   UNL     1       1.824  38.434   3.315  0.00  0.00    +0.000 C 
BRANCH   7   8
ATOM      8  S   UNL     1       2.930  38.823   1.896  0.00  0.00    +0.000 S 
ATOM      9  C   UNL     1       4.076  39.935   2.745  0.00  0.00    +0.000 C 
ENDBRANCH   7   8
BRANCH   4  10
ATOM     10  O   UNL     1      -1.109  36.536   3.691  0.00  0.00    +0.000 OA
ATOM     11  H   UNL     1      -0.851  35.638   4.005  0.00  0.00    +0.000 HD
ENDBRANCH   4  10
BRANCH   5  12
ATOM     12  O   UNL     1       0.858  34.775   3.026  0.00  0.00    +0.000 OA
ATOM     13  H   UNL     1       1.412  34.266   2.400  0.00  0.00    +0.000 HD
ENDBRANCH   5  12
BRANCH   6  14
ATOM     14  O   UNL     1       3.141  36.411   3.807  0.00  0.00    +0.000 OA
ATOM     15  H   UNL     1       3.750  37.171   3.788  0.00  0.00    +0.000 HD
ENDBRANCH   6  14
ENDBRANCH   1   3
BRANCH   1  17
ATOM     16  O   UNL     1      -3.998  38.711   3.635  0.00  0.00    +0.000 OA
ATOM     17  N   UNL     1      -2.782  38.045   1.834  0.00  0.00    +0.000 N 
ATOM     18  C   UNL     1      -3.908  38.001   2.635  0.00  0.00    +0.000 C 
ATOM     19  H   UNL     1      -2.686  37.383   1.070  0.00  0.00    +0.000 HD
BRANCH  18  22
ATOM     20  N   UNL     1      -4.920  35.752   3.048  0.00  0.00    +0.000 NA
ATOM     21  C   UNL     1      -7.107  36.471   3.203  0.00  0.00    +0.000 C 
ATOM     22  C   UNL     1      -4.947  36.952   2.189  0.00  0.00    +0.000 C 
ATOM     23  C   UNL     1      -6.383  37.481   2.309  0.00  0.00    +0.000 C 
ATOM     24  C   UNL     1      -6.275  35.206   3.034  0.00  0.00    +0.000 C 
ATOM     25  C   UNL     1      -3.918  34.778   2.640  0.00  0.00    +0.000 C 
BRANCH  21  26
ATOM     26  C   UNL     1      -8.583  36.260   2.860  0.00  0.00    +0.000 C 
BRANCH  26  27
ATOM     27  C   UNL     1      -9.181  35.047   3.577  0.00  0.00    +0.000 C 
ATOM     28  C   UNL     1     -10.689  34.983   3.395  0.00  0.00    +0.000 C 
ENDBRANCH  26  27
ENDBRANCH  21  26
ENDBRANCH  18  22
ENDBRANCH   1  17
BRANCH   1  30
ATOM     29 CL   UNL     1      -2.885  39.770  -0.293  0.00  0.00    +0.000 Cl
ATOM     30  C   UNL     1      -1.691  40.119   1.008  0.00  0.00    +0.000 C 
ATOM     31  C   UNL     1      -2.032  41.475   1.626  0.00  0.00    +0.000 C 
ENDBRANCH   1  30
TORSDOF 10
ENDMDL
MODEL 5
REMARK VINA RESULT:      -5.3     15.480     18.112
REMARK  Name = 
REMARK  14 active torsions:
REMARK  status: ('A' for Active; 'I' for Inactive)
REMARK    1  A    between atoms: S_2  and  C_21
REMARK    2  A    between atoms: S_2  and  C_27
REMARK    3  A    between atoms: O_4  and  C_16
REMARK    4  A    between atoms: O_5  and  C_18
REMARK    5  A    between atoms: O_6  and  C_20
REMARK    6  A    between atoms: N_8  and  C_23
REMARK    7  A    between atoms: N_9  and  C_15
REMARK    8  A    between atoms: C_10  and  C_17
REMARK    9  A    between atoms: C_11  and  C_19
REMARK   10  A    between atoms: C_14  and  C_15
REMARK   11  A    between atoms: C_15  and  C_22
REMARK   12  A    between atoms: C_17  and  C_24
REMARK   13  A    between atoms: C_22  and  C_25
REMARK   14  A    between atoms: C_24  and  C_26
REMARK                            x       y       z     vdW  Elec       q    Type
REMARK                         _______ _______ _______ _____ _____    ______ ____
ROOT
ATOM      1  C   UNL     1     -16.696  35.211   5.602  0.00  0.00    +0.000 C 
ENDROOT
BRANCH   1   3
ATOM      2  O   UNL     1     -17.704  33.462   6.938  0.00  0.00    +0.000 OA
ATOM      3  C   UNL     1     -18.031  34.508   5.999  0.00  0.00    +0.000 C 
ATOM      4  C   UNL     1     -19.083  35.472   6.588  0.00  0.00    +0.000 C 
ATOM      5  C   UNL     1     -20.319  34.699   7.062  0.00  0.00    +0.000 C 
ATOM      6  C   UNL     1     -19.912  33.587   8.038  0.00  0.00    +0.000 C 
ATOM      7  C   UNL     1     -18.815  32.699   7.417  0.00  0.00    +0.000 C 
BRANCH   7   8
ATOM      8  S   UNL     1     -19.470  31.565   6.122  0.00  0.00    +0.000 S 
ATOM      9  C   UNL     1     -17.925  30.729   5.691  0.00  0.00    +0.000 C 
ENDBRANCH   7   8
BRANCH   4  10
ATOM     10  O   UNL     1     -18.565  36.190   7.721  0.00  0.00    +0.000 OA
ATOM     11  H   UNL     1     -19.344  36.567   8.195  0.00  0.00    +0.000 HD
ENDBRANCH   4  10
BRANCH   5  12
ATOM     12  O   UNL     1     -21.227  35.616   7.690  0.00  0.00    +0.000 OA
ATOM     13  H   UNL     1     -21.678  35.096   8.384  0.00  0.00    +0.000 HD
ENDBRANCH   5  12
BRANCH   6  14
ATOM     14  O   UNL     1     -21.042  32.813   8.466  0.00  0.00    +0.000 OA
ATOM     15  H   UNL     1     -20.693  32.019   8.909  0.00  0.00    +0.000 HD
ENDBRANCH   6  14
ENDBRANCH   1   3
BRANCH   1  17
ATOM     16  O   UNL     1     -15.495  37.488   6.743  0.00  0.00    +0.000 OA
ATOM     17  N   UNL     1     -16.902  36.608   5.189  0.00  0.00    +0.000 N 
ATOM     18  C   UNL     1     -16.241  37.668   5.782  0.00  0.00    +0.000 C 
ATOM     19  H   UNL     1     -17.586  36.789   4.461  0.00  0.00    +0.000 HD
BRANCH  18  22
ATOM     20  N   UNL     1     -17.744  39.665   5.861  0.00  0.00    +0.000 NA
ATOM     21  C   UNL     1     -16.075  41.244   6.064  0.00  0.00    +0.000 C 
ATOM     22  C   UNL     1     -16.597  39.039   5.174  0.00  0.00    +0.000 C 
ATOM     23  C   UNL     1     -15.454  40.051   5.333  0.00  0.00    +0.000 C 
ATOM     24  C   UNL     1     -17.558  41.108   5.744  0.00  0.00    +0.000 C 
ATOM     25  C   UNL     1     -19.031  39.221   5.347  0.00  0.00    +0.000 C 
BRANCH  21  26
ATOM     26  C   UNL     1     -15.504  42.606   5.663  0.00  0.00    +0.000 C 
BRANCH  26  27
ATOM     27  C   UNL     1     -14.817  42.571   4.296  0.00  0.00    +0.000 C 
ATOM     28  C   UNL     1     -15.492  43.512   3.312  0.00  0.00    +0.000 C 
ENDBRANCH  26  27
ENDBRANCH  21  26
ENDBRANCH  18  22
ENDBRANCH   1  17
BRANCH   1  30
ATOM     29 CL   UNL     1     -16.516  34.877   2.861  0.00  0.00    +0.000 Cl
ATOM     30  C   UNL     1     -15.929  34.426   4.502  0.00  0.00    +0.000 C 
ATOM     31  C   UNL     1     -14.423  34.677   4.564  0.00  0.00    +0.000 C 
ENDBRANCH   1  30
TORSDOF 10
ENDMDL
MODEL 6
REMARK VINA RESULT:      -5.3     15.211     18.009
REMARK  Name = 
REMARK  14 active torsions:
REMARK  status: ('A' for Active; 'I' for Inactive)
REMARK    1  A    between atoms: S_2  and  C_21
REMARK    2  A    between atoms: S_2  and  C_27
REMARK    3  A    between atoms: O_4  and  C_16
REMARK    4  A    between atoms: O_5  and  C_18
REMARK    5  A    between atoms: O_6  and  C_20
REMARK    6  A    between atoms: N_8  and  C_23
REMARK    7  A    between atoms: N_9  and  C_15
REMARK    8  A    between atoms: C_10  and  C_17
REMARK    9  A    between atoms: C_11  and  C_19
REMARK   10  A    between atoms: C_14  and  C_15
REMARK   11  A    between atoms: C_15  and  C_22
REMARK   12  A    between atoms: C_17  and  C_24
REMARK   13  A    between atoms: C_22  and  C_25
REMARK   14  A    between atoms: C_24  and  C_26
REMARK                            x       y       z     vdW  Elec       q    Type
REMARK                         _______ _______ _______ _____ _____    ______ ____
ROOT
ATOM      1  C   UNL     1     -17.167  38.239   5.694  0.00  0.00    +0.000 C 
ENDROOT
BRANCH   1   3
ATOM      2  O   UNL     1     -18.469  36.955   7.279  0.00  0.00    +0.000 OA
ATOM      3  C   UNL     1     -18.520  37.505   5.946  0.00  0.00    +0.000 C 
ATOM      4  C   UNL     1     -19.755  38.415   5.770  0.00  0.00    +0.000 C 
ATOM      5  C   UNL     1     -21.038  37.663   6.146  0.00  0.00    +0.000 C 
ATOM      6  C   UNL     1     -20.919  37.080   7.561  0.00  0.00    +0.000 C 
ATOM      7  C   UNL     1     -19.635  36.236   7.691  0.00  0.00    +0.000 C 
BRANCH   7   8
ATOM      8  S   UNL     1     -19.768  34.608   6.841  0.00  0.00    +0.000 S 
ATOM      9  C   UNL     1     -18.403  33.760   7.671  0.00  0.00    +0.000 C 
ENDBRANCH   7   8
BRANCH   4  10
ATOM     10  O   UNL     1     -19.678  39.579   6.611  0.00  0.00    +0.000 OA
ATOM     11  H   UNL     1     -20.096  39.333   7.470  0.00  0.00    +0.000 HD
ENDBRANCH   4  10
BRANCH   5  12
ATOM     12  O   UNL     1     -22.148  38.570   6.064  0.00  0.00    +0.000 OA
ATOM     13  H   UNL     1     -22.920  38.011   5.844  0.00  0.00    +0.000 HD
ENDBRANCH   5  12
BRANCH   6  14
ATOM     14  O   UNL     1     -22.086  36.329   7.927  0.00  0.00    +0.000 OA
ATOM     15  H   UNL     1     -22.831  36.690   7.414  0.00  0.00    +0.000 HD
ENDBRANCH   6  14
ENDBRANCH   1   3
BRANCH   1  17
ATOM     16  O   UNL     1     -16.045  40.802   6.013  0.00  0.00    +0.000 OA
ATOM     17  N   UNL     1     -17.312  39.378   4.774  0.00  0.00    +0.000 N 
ATOM     18  C   UNL     1     -16.695  40.596   4.989  0.00  0.00    +0.000 C 
ATOM     19  H   UNL     1     -17.922  39.261   3.970  0.00  0.00    +0.000 HD
BRANCH  18  22
ATOM     20  N   UNL     1     -16.920  43.017   4.404  0.00  0.00    +0.000 NA
ATOM     21  C   UNL     1     -15.356  43.024   2.707  0.00  0.00    +0.000 C 
ATOM     22  C   UNL     1     -16.972  41.636   3.885  0.00  0.00    +0.000 C 
ATOM     23  C   UNL     1     -15.906  41.598   2.781  0.00  0.00    +0.000 C 
ATOM     24  C   UNL     1     -16.489  43.859   3.291  0.00  0.00    +0.000 C 
ATOM     25  C   UNL     1     -18.178  43.457   4.987  0.00  0.00    +0.000 C 
BRANCH  21  26
ATOM     26  C   UNL     1     -14.947  43.478   1.304  0.00  0.00    +0.000 C 
BRANCH  26  27
ATOM     27  C   UNL     1     -15.356  44.924   1.017  0.00  0.00    +0.000 C 
ATOM     28  C   UNL     1     -14.197  45.725   0.444  0.00  0.00    +0.000 C 
ENDBRANCH  26  27
ENDBRANCH  21  26
ENDBRANCH  18  22
ENDBRANCH   1  17
BRANCH   1  30
ATOM     29 CL   UNL     1     -15.704  37.554   3.447  0.00  0.00    +0.000 Cl
ATOM     30  C   UNL     1     -16.064  37.268   5.187  0.00  0.00    +0.000 C 
ATOM     31  C   UNL     1     -14.766  37.412   5.980  0.00  0.00    +0.000 C 
ENDBRANCH   1  30
TORSDOF 10
ENDMDL
MODEL 7
REMARK VINA RESULT:      -5.2      2.283      2.892
REMARK  Name = 
REMARK  14 active torsions:
REMARK  status: ('A' for Active; 'I' for Inactive)
REMARK    1  A    between atoms: S_2  and  C_21
REMARK    2  A    between atoms: S_2  and  C_27
REMARK    3  A    between atoms: O_4  and  C_16
REMARK    4  A    between atoms: O_5  and  C_18
REMARK    5  A    between atoms: O_6  and  C_20
REMARK    6  A    between atoms: N_8  and  C_23
REMARK    7  A    between atoms: N_9  and  C_15
REMARK    8  A    between atoms: C_10  and  C_17
REMARK    9  A    between atoms: C_11  and  C_19
REMARK   10  A    between atoms: C_14  and  C_15
REMARK   11  A    between atoms: C_15  and  C_22
REMARK   12  A    between atoms: C_17  and  C_24
REMARK   13  A    between atoms: C_22  and  C_25
REMARK   14  A    between atoms: C_24  and  C_26
REMARK                            x       y       z     vdW  Elec       q    Type
REMARK                         _______ _______ _______ _____ _____    ______ ____
ROOT
ATOM      1  C   UNL     1     -26.204  42.237  18.821  0.00  0.00    +0.000 C 
ENDROOT
BRANCH   1   3
ATOM      2  O   UNL     1     -25.560  44.550  18.521  0.00  0.00    +0.000 OA
ATOM      3  C   UNL     1     -25.043  43.205  18.436  0.00  0.00    +0.000 C 
ATOM      4  C   UNL     1     -23.785  43.039  19.315  0.00  0.00    +0.000 C 
ATOM      5  C   UNL     1     -22.734  44.097  18.958  0.00  0.00    +0.000 C 
ATOM      6  C   UNL     1     -23.342  45.503  19.043  0.00  0.00    +0.000 C 
ATOM      7  C   UNL     1     -24.629  45.586  18.196  0.00  0.00    +0.000 C 
BRANCH   7   8
ATOM      8  S   UNL     1     -24.285  45.651  16.389  0.00  0.00    +0.000 S 
ATOM      9  C   UNL     1     -25.986  45.816  15.797  0.00  0.00    +0.000 C 
ENDBRANCH   7   8
BRANCH   4  10
ATOM     10  O   UNL     1     -24.092  43.192  20.711  0.00  0.00    +0.000 OA
ATOM     11  H   UNL     1     -24.287  42.289  21.057  0.00  0.00    +0.000 HD
ENDBRANCH   4  10
BRANCH   5  12
ATOM     12  O   UNL     1     -21.625  43.970  19.861  0.00  0.00    +0.000 OA
ATOM     13  H   UNL     1     -20.968  44.627  19.554  0.00  0.00    +0.000 HD
ENDBRANCH   5  12
BRANCH   6  14
ATOM     14  O   UNL     1     -22.396  46.516  18.670  0.00  0.00    +0.000 OA
ATOM     15  H   UNL     1     -21.966  46.821  19.489  0.00  0.00    +0.000 HD
ENDBRANCH   6  14
ENDBRANCH   1   3
BRANCH   1  17
ATOM     16  O   UNL     1     -26.415  41.377  21.494  0.00  0.00    +0.000 OA
ATOM     17  N   UNL     1     -25.710  40.965  19.372  0.00  0.00    +0.000 N 
ATOM     18  C   UNL     1     -25.888  40.604  20.695  0.00  0.00    +0.000 C 
ATOM     19  H   UNL     1     -25.188  40.353  18.753  0.00  0.00    +0.000 HD
BRANCH  18  22
ATOM     20  N   UNL     1     -26.351  38.179  21.090  0.00  0.00    +0.000 NA
ATOM     21  C   UNL     1     -24.856  37.368  19.530  0.00  0.00    +0.000 C 
ATOM     22  C   UNL     1     -25.306  39.220  21.045  0.00  0.00    +0.000 C 
ATOM     23  C   UNL     1     -24.317  38.728  19.979  0.00  0.00    +0.000 C 
ATOM     24  C   UNL     1     -25.699  36.925  20.719  0.00  0.00    +0.000 C 
ATOM     25  C   UNL     1     -27.028  38.102  22.376  0.00  0.00    +0.000 C 
BRANCH  21  26
ATOM     26  C   UNL     1     -23.780  36.348  19.154  0.00  0.00    +0.000 C 
BRANCH  26  27
ATOM     27  C   UNL     1     -24.312  34.913  19.148  0.00  0.00    +0.000 C 
ATOM     28  C   UNL     1     -25.307  34.695  18.019  0.00  0.00    +0.000 C 
ENDBRANCH  26  27
ENDBRANCH  21  26
ENDBRANCH  18  22
ENDBRANCH   1  17
BRANCH   1  30
ATOM     29 CL   UNL     1     -26.325  42.229  16.056  0.00  0.00    +0.000 Cl
ATOM     30  C   UNL     1     -27.165  41.975  17.628  0.00  0.00    +0.000 C 
ATOM     31  C   UNL     1     -27.731  40.556  17.651  0.00  0.00    +0.000 C 
ENDBRANCH   1  30
TORSDOF 10
ENDMDL
MODEL 8
REMARK VINA RESULT:      -5.0     15.520     17.719
REMARK  Name = 
REMARK  14 active torsions:
REMARK  status: ('A' for Active; 'I' for Inactive)
REMARK    1  A    between atoms: S_2  and  C_21
REMARK    2  A    between atoms: S_2  and  C_27
REMARK    3  A    between atoms: O_4  and  C_16
REMARK    4  A    between atoms: O_5  and  C_18
REMARK    5  A    between atoms: O_6  and  C_20
REMARK    6  A    between atoms: N_8  and  C_23
REMARK    7  A    between atoms: N_9  and  C_15
REMARK    8  A    between atoms: C_10  and  C_17
REMARK    9  A    between atoms: C_11  and  C_19
REMARK   10  A    between atoms: C_14  and  C_15
REMARK   11  A    between atoms: C_15  and  C_22
REMARK   12  A    between atoms: C_17  and  C_24
REMARK   13  A    between atoms: C_22  and  C_25
REMARK   14  A    between atoms: C_24  and  C_26
REMARK                            x       y       z     vdW  Elec       q    Type
REMARK                         _______ _______ _______ _____ _____    ______ ____
ROOT
ATOM      1  C   UNL     1     -17.556  38.730   4.442  0.00  0.00    +0.000 C 
ENDROOT
BRANCH   1   3
ATOM      2  O   UNL     1     -19.631  37.488   4.553  0.00  0.00    +0.000 OA
ATOM      3  C   UNL     1     -19.022  38.727   4.975  0.00  0.00    +0.000 C 
ATOM      4  C   UNL     1     -19.122  38.898   6.506  0.00  0.00    +0.000 C 
ATOM      5  C   UNL     1     -20.577  38.768   6.971  0.00  0.00    +0.000 C 
ATOM      6  C   UNL     1     -21.180  37.447   6.476  0.00  0.00    +0.000 C 
ATOM      7  C   UNL     1     -20.992  37.306   4.951  0.00  0.00    +0.000 C 
BRANCH   7   8
ATOM      8  S   UNL     1     -22.133  38.389   3.993  0.00  0.00    +0.000 S 
ATOM      9  C   UNL     1     -21.513  38.030   2.333  0.00  0.00    +0.000 C 
ENDBRANCH   7   8
BRANCH   4  10
ATOM     10  O   UNL     1     -18.359  37.897   7.200  0.00  0.00    +0.000 OA
ATOM     11  H   UNL     1     -17.413  38.048   6.961  0.00  0.00    +0.000 HD
ENDBRANCH   4  10
BRANCH   5  12
ATOM     12  O   UNL     1     -20.613  38.835   8.404  0.00  0.00    +0.000 OA
ATOM     13  H   UNL     1     -21.300  39.500   8.613  0.00  0.00    +0.000 HD
ENDBRANCH   5  12
BRANCH   6  14
ATOM     14  O   UNL     1     -22.558  37.314   6.854  0.00  0.00    +0.000 OA
ATOM     15  H   UNL     1     -22.975  38.185   6.724  0.00  0.00    +0.000 HD
ENDBRANCH   6  14
ENDBRANCH   1   3
BRANCH   1  17
ATOM     16  O   UNL     1     -15.697  37.251   2.931  0.00  0.00    +0.000 OA
ATOM     17  N   UNL     1     -16.795  37.556   4.898  0.00  0.00    +0.000 N 
ATOM     18  C   UNL     1     -15.871  36.908   4.099  0.00  0.00    +0.000 C 
ATOM     19  H   UNL     1     -16.992  37.197   5.827  0.00  0.00    +0.000 HD
BRANCH  18  22
ATOM     20  N   UNL     1     -14.794  34.668   3.826  0.00  0.00    +0.000 NA
ATOM     21  C   UNL     1     -12.800  35.207   4.855  0.00  0.00    +0.000 C 
ATOM     22  C   UNL     1     -15.180  35.716   4.791  0.00  0.00    +0.000 C 
ATOM     23  C   UNL     1     -13.861  36.128   5.461  0.00  0.00    +0.000 C 
ATOM     24  C   UNL     1     -13.615  34.009   4.383  0.00  0.00    +0.000 C 
ATOM     25  C   UNL     1     -15.872  33.735   3.532  0.00  0.00    +0.000 C 
BRANCH  21  26
ATOM     26  C   UNL     1     -11.673  34.816   5.812  0.00  0.00    +0.000 C 
BRANCH  26  27
ATOM     27  C   UNL     1     -11.281  33.342   5.682  0.00  0.00    +0.000 C 
ATOM     28  C   UNL     1     -11.356  32.628   7.023  0.00  0.00    +0.000 C 
ENDBRANCH  26  27
ENDBRANCH  21  26
ENDBRANCH  18  22
ENDBRANCH   1  17
BRANCH   1  30
ATOM     29 CL   UNL     1     -15.406  39.700   5.889  0.00  0.00    +0.000 Cl
ATOM     30  C   UNL     1     -16.806  40.040   4.810  0.00  0.00    +0.000 C 
ATOM     31  C   UNL     1     -16.295  40.773   3.570  0.00  0.00    +0.000 C 
ENDBRANCH   1  30
TORSDOF 10
ENDMDL
MODEL 9
REMARK VINA RESULT:      -4.9      1.783      2.203
REMARK  Name = 
REMARK  14 active torsions:
REMARK  status: ('A' for Active; 'I' for Inactive)
REMARK    1  A    between atoms: S_2  and  C_21
REMARK    2  A    between atoms: S_2  and  C_27
REMARK    3  A    between atoms: O_4  and  C_16
REMARK    4  A    between atoms: O_5  and  C_18
REMARK    5  A    between atoms: O_6  and  C_20
REMARK    6  A    between atoms: N_8  and  C_23
REMARK    7  A    between atoms: N_9  and  C_15
REMARK    8  A    between atoms: C_10  and  C_17
REMARK    9  A    between atoms: C_11  and  C_19
REMARK   10  A    between atoms: C_14  and  C_15
REMARK   11  A    between atoms: C_15  and  C_22
REMARK   12  A    between atoms: C_17  and  C_24
REMARK   13  A    between atoms: C_22  and  C_25
REMARK   14  A    between atoms: C_24  and  C_26
REMARK                            x       y       z     vdW  Elec       q    Type
REMARK                         _______ _______ _______ _____ _____    ______ ____
ROOT
ATOM      1  C   UNL     1     -25.800  42.878  20.447  0.00  0.00    +0.000 C 
ENDROOT
BRANCH   1   3
ATOM      2  O   UNL     1     -23.986  43.723  19.087  0.00  0.00    +0.000 OA
ATOM      3  C   UNL     1     -25.321  44.045  19.530  0.00  0.00    +0.000 C 
ATOM      4  C   UNL     1     -26.254  44.305  18.327  0.00  0.00    +0.000 C 
ATOM      5  C   UNL     1     -25.663  45.381  17.409  0.00  0.00    +0.000 C 
ATOM      6  C   UNL     1     -24.237  45.000  16.989  0.00  0.00    +0.000 C 
ATOM      7  C   UNL     1     -23.374  44.690  18.229  0.00  0.00    +0.000 C 
BRANCH   7   8
ATOM      8  S   UNL     1     -22.886  46.207  19.151  0.00  0.00    +0.000 S 
ATOM      9  C   UNL     1     -21.690  45.461  20.283  0.00  0.00    +0.000 C 
ENDBRANCH   7   8
BRANCH   4  10
ATOM     10  O   UNL     1     -26.440  43.120  17.536  0.00  0.00    +0.000 OA
ATOM     11  H   UNL     1     -26.344  42.354  18.151  0.00  0.00    +0.000 HD
ENDBRANCH   4  10
BRANCH   5  12
ATOM     12  O   UNL     1     -26.509  45.523  16.257  0.00  0.00    +0.000 OA
ATOM     13  H   UNL     1     -25.968  45.214  15.503  0.00  0.00    +0.000 HD
ENDBRANCH   5  12
BRANCH   6  14
ATOM     14  O   UNL     1     -23.636  46.009  16.164  0.00  0.00    +0.000 OA
ATOM     15  H   UNL     1     -24.350  46.609  15.882  0.00  0.00    +0.000 HD
ENDBRANCH   6  14
ENDBRANCH   1   3
BRANCH   1  17
ATOM     16  O   UNL     1     -23.916  40.819  20.820  0.00  0.00    +0.000 OA
ATOM     17  N   UNL     1     -25.776  41.579  19.756  0.00  0.00    +0.000 N 
ATOM     18  C   UNL     1     -24.831  40.605  20.027  0.00  0.00    +0.000 C 
ATOM     19  H   UNL     1     -26.466  41.418  19.029  0.00  0.00    +0.000 HD
BRANCH  18  22
ATOM     20  N   UNL     1     -24.148  39.309  18.001  0.00  0.00    +0.000 NA
ATOM     21  C   UNL     1     -23.538  37.382  19.114  0.00  0.00    +0.000 C 
ATOM     22  C   UNL     1     -25.012  39.318  19.198  0.00  0.00    +0.000 C 
ATOM     23  C   UNL     1     -24.595  38.067  19.984  0.00  0.00    +0.000 C 
ATOM     24  C   UNL     1     -23.851  37.907  17.718  0.00  0.00    +0.000 C 
ATOM     25  C   UNL     1     -24.739  39.999  16.863  0.00  0.00    +0.000 C 
BRANCH  21  26
ATOM     26  C   UNL     1     -23.545  35.854  19.187  0.00  0.00    +0.000 C 
BRANCH  26  27
ATOM     27  C   UNL     1     -24.809  35.246  18.577  0.00  0.00    +0.000 C 
ATOM     28  C   UNL     1     -25.427  34.208  19.500  0.00  0.00    +0.000 C 
ENDBRANCH  26  27
ENDBRANCH  21  26
ENDBRANCH  18  22
ENDBRANCH   1  17
BRANCH   1  30
ATOM     29 CL   UNL     1     -28.122  41.612  21.267  0.00  0.00    +0.000 Cl
ATOM     30  C   UNL     1     -27.208  43.148  21.046  0.00  0.00    +0.000 C 
ATOM     31  C   UNL     1     -27.129  43.862  22.395  0.00  0.00    +0.000 C 
ENDBRANCH   1  30
TORSDOF 10
ENDMDL
