REMARK  Name = 
REMARK  5 active torsions:
REMARK  status: ('A' for Active; 'I' for Inactive)
REMARK    1  A    between atoms: O_5  and  C_10
REMARK    2  A    between atoms: N_9  and  C_20
REMARK    3  A    between atoms: N_9  and  C_25
REMARK    4  A    between atoms: C_10  and  C_11
REMARK    5  A    between atoms: C_18  and  C_19
REMARK                            x       y       z     vdW  Elec       q    Type
REMARK                         _______ _______ _______ _____ _____    ______ ____
ROOT
ATOM      1  F   UNL     1       3.585   1.157   0.593  0.00  0.00    +0.000 F 
ATOM      2  F   UNL     1       4.970  -0.747   1.914  0.00  0.00    +0.000 F 
ATOM      3  C   UNL     1       1.748  -1.826  -0.392  0.00  0.00    +0.000 A 
ATOM      4  C   UNL     1       2.089  -0.457  -0.318  0.00  0.00    +0.000 A 
ATOM      5  C   UNL     1       2.483  -2.813   0.287  0.00  0.00    +0.000 A 
ATOM      6  C   UNL     1       3.188  -0.120   0.484  0.00  0.00    +0.000 A 
ATOM      7  C   UNL     1       3.575  -2.442   1.067  0.00  0.00    +0.000 A 
ATOM      8  C   UNL     1       3.919  -1.099   1.159  0.00  0.00    +0.000 A 
ENDROOT
BRANCH   3  14
ATOM      9  O   UNL     1       0.506  -1.889  -2.367  0.00  0.00    +0.000 OA
ATOM     10  N   UNL     1      -0.404  -2.952  -0.539  0.00  0.00    +0.000 N 
ATOM     11  C   UNL     1      -2.261  -2.558   0.328  0.00  0.00    +0.000 C 
ATOM     12  C   UNL     1      -0.825  -2.837   0.856  0.00  0.00    +0.000 C 
ATOM     13  C   UNL     1      -1.768  -3.155  -1.024  0.00  0.00    +0.000 C 
ATOM     14  C   UNL     1       0.575  -2.238  -1.193  0.00  0.00    +0.000 C 
BRANCH  11  16
ATOM     15  N   UNL     1      -4.057  -0.996  -0.369  0.00  0.00    +0.000 NA
ATOM     16  C   UNL     1      -2.686  -1.071   0.198  0.00  0.00    +0.000 C 
ATOM     17  C   UNL     1      -2.662  -0.355   1.560  0.00  0.00    +0.000 C 
ATOM     18  C   UNL     1      -3.108   1.101   1.421  0.00  0.00    +0.000 C 
ATOM     19  C   UNL     1      -4.424   0.406  -0.614  0.00  0.00    +0.000 C 
ATOM     20  C   UNL     1      -4.441   1.205   0.688  0.00  0.00    +0.000 C 
ATOM     21  H   UNL     1      -4.707  -1.355   0.335  0.00  0.00    +0.000 HD
ENDBRANCH  11  16
BRANCH  11  22
ATOM     22  O   UNL     1      -3.314  -3.324   0.983  0.00  0.00    +0.000 OA
ATOM     23  H   UNL     1      -4.038  -3.306   0.329  0.00  0.00    +0.000 HD
ENDBRANCH  11  22
ENDBRANCH   3  14
BRANCH   4  24
ATOM     24  N   UNL     1       1.284   0.505  -0.966  0.00  0.00    +0.000 N 
ATOM     25  H   UNL     1       0.871   0.170  -1.844  0.00  0.00    +0.000 HD
BRANCH  24  28
ATOM     26  I   UNL     1      -1.139   6.085   0.676  0.00  0.00    +0.000 I 
ATOM     27  F   UNL     1      -0.053   2.102  -2.745  0.00  0.00    +0.000 F 
ATOM     28  C   UNL     1       0.754   1.739  -0.545  0.00  0.00    +0.000 A 
ATOM     29  C   UNL     1       0.086   2.545  -1.485  0.00  0.00    +0.000 A 
ATOM     30  C   UNL     1       0.875   2.235   0.756  0.00  0.00    +0.000 A 
ATOM     31  C   UNL     1      -0.456   3.784  -1.155  0.00  0.00    +0.000 A 
ATOM     32  C   UNL     1       0.336   3.481   1.105  0.00  0.00    +0.000 A 
ATOM     33  C   UNL     1      -0.329   4.248   0.149  0.00  0.00    +0.000 A 
ENDBRANCH  24  28
ENDBRANCH   4  24
TORSDOF 5
