MODEL 1
REMARK VINA RESULT:      -5.6      0.000      0.000
REMARK  Name = 
REMARK  5 active torsions:
REMARK  status: ('A' for Active; 'I' for Inactive)
REMARK    1  A    between atoms: O_5  and  C_10
REMARK    2  A    between atoms: N_9  and  C_20
REMARK    3  A    between atoms: N_9  and  C_25
REMARK    4  A    between atoms: C_10  and  C_11
REMARK    5  A    between atoms: C_18  and  C_19
REMARK                            x       y       z     vdW  Elec       q    Type
REMARK                         _______ _______ _______ _____ _____    ______ ____
ROOT
ATOM      1  F   UNL     1     -16.292  36.918   6.670  0.00  0.00    +0.000 F 
ATOM      2  F   UNL     1     -18.033  35.855   8.438  0.00  0.00    +0.000 F 
ATOM      3  C   UNL     1     -19.398  38.471   5.582  0.00  0.00    +0.000 A 
ATOM      4  C   UNL     1     -18.020  38.162   5.602  0.00  0.00    +0.000 A 
ATOM      5  C   UNL     1     -20.301  37.902   6.497  0.00  0.00    +0.000 A 
ATOM      6  C   UNL     1     -17.584  37.273   6.595  0.00  0.00    +0.000 A 
ATOM      7  C   UNL     1     -19.833  37.015   7.463  0.00  0.00    +0.000 A 
ATOM      8  C   UNL     1     -18.479  36.708   7.504  0.00  0.00    +0.000 A 
ENDROOT
BRANCH   3  14
ATOM      9  O   UNL     1     -20.026  39.069   3.415  0.00  0.00    +0.000 OA
ATOM     10  N   UNL     1     -20.176  40.708   5.025  0.00  0.00    +0.000 N 
ATOM     11  C   UNL     1     -19.222  42.564   4.998  0.00  0.00    +0.000 C 
ATOM     12  C   UNL     1     -19.482  41.464   6.066  0.00  0.00    +0.000 C 
ATOM     13  C   UNL     1     -20.350  41.880   4.169  0.00  0.00    +0.000 C 
ATOM     14  C   UNL     1     -19.911  39.432   4.581  0.00  0.00    +0.000 C 
BRANCH  11  16
ATOM     15  N   UNL     1     -17.821  43.577   3.220  0.00  0.00    +0.000 NA
ATOM     16  C   UNL     1     -17.851  42.529   4.272  0.00  0.00    +0.000 C 
ATOM     17  C   UNL     1     -16.686  42.761   5.251  0.00  0.00    +0.000 C 
ATOM     18  C   UNL     1     -15.344  42.750   4.518  0.00  0.00    +0.000 C 
ATOM     19  C   UNL     1     -16.578  43.474   2.442  0.00  0.00    +0.000 C 
ATOM     20  C   UNL     1     -15.355  43.703   3.328  0.00  0.00    +0.000 C 
ATOM     21  H   UNL     1     -17.805  44.488   3.685  0.00  0.00    +0.000 HD
ENDBRANCH  11  16
BRANCH  11  22
ATOM     22  O   UNL     1     -19.524  43.922   5.431  0.00  0.00    +0.000 OA
ATOM     23  H   UNL     1     -20.469  44.019   5.207  0.00  0.00    +0.000 HD
ENDBRANCH  11  22
ENDBRANCH   3  14
BRANCH   4  24
ATOM     24  N   UNL     1     -17.141  38.806   4.704  0.00  0.00    +0.000 N 
ATOM     25  H   UNL     1     -16.801  39.714   5.043  0.00  0.00    +0.000 HD
BRANCH  24  28
ATOM     26  I   UNL     1     -14.235  36.985  -0.582  0.00  0.00    +0.000 I 
ATOM     27  F   UNL     1     -17.328  40.222   2.367  0.00  0.00    +0.000 F 
ATOM     28  C   UNL     1     -16.464  38.360   3.554  0.00  0.00    +0.000 A 
ATOM     29  C   UNL     1     -16.592  39.099   2.364  0.00  0.00    +0.000 A 
ATOM     30  C   UNL     1     -15.687  37.199   3.509  0.00  0.00    +0.000 A 
ATOM     31  C   UNL     1     -15.967  38.721   1.179  0.00  0.00    +0.000 A 
ATOM     32  C   UNL     1     -15.051  36.803   2.324  0.00  0.00    +0.000 A 
ATOM     33  C   UNL     1     -15.192  37.567   1.166  0.00  0.00    +0.000 A 
ENDBRANCH  24  28
ENDBRANCH   4  24
TORSDOF 5
ENDMDL
MODEL 2
REMARK VINA RESULT:      -5.4     28.120     30.783
REMARK  Name = 
REMARK  5 active torsions:
REMARK  status: ('A' for Active; 'I' for Inactive)
REMARK    1  A    between atoms: O_5  and  C_10
REMARK    2  A    between atoms: N_9  and  C_20
REMARK    3  A    between atoms: N_9  and  C_25
REMARK    4  A    between atoms: C_10  and  C_11
REMARK    5  A    between atoms: C_18  and  C_19
REMARK                            x       y       z     vdW  Elec       q    Type
REMARK                         _______ _______ _______ _____ _____    ______ ____
ROOT
ATOM      1  F   UNL     1       2.989  53.598  13.863  0.00  0.00    +0.000 F 
ATOM      2  F   UNL     1       1.779  52.111  15.764  0.00  0.00    +0.000 F 
ATOM      3  C   UNL     1       4.386  55.083  16.878  0.00  0.00    +0.000 A 
ATOM      4  C   UNL     1       4.158  54.875  15.499  0.00  0.00    +0.000 A 
ATOM      5  C   UNL     1       3.741  54.314  17.862  0.00  0.00    +0.000 A 
ATOM      6  C   UNL     1       3.270  53.848  15.151  0.00  0.00    +0.000 A 
ATOM      7  C   UNL     1       2.857  53.309  17.479  0.00  0.00    +0.000 A 
ATOM      8  C   UNL     1       2.629  53.084  16.127  0.00  0.00    +0.000 A 
ENDROOT
BRANCH   3  14
ATOM      9  O   UNL     1       5.016  57.307  17.203  0.00  0.00    +0.000 OA
ATOM     10  N   UNL     1       6.574  55.700  17.743  0.00  0.00    +0.000 N 
ATOM     11  C   UNL     1       8.499  55.526  16.957  0.00  0.00    +0.000 C 
ATOM     12  C   UNL     1       7.341  54.542  17.290  0.00  0.00    +0.000 C 
ATOM     13  C   UNL     1       7.761  56.543  17.879  0.00  0.00    +0.000 C 
ATOM     14  C   UNL     1       5.341  56.128  17.305  0.00  0.00    +0.000 C 
BRANCH  11  16
ATOM     15  N   UNL     1       9.984  56.496  15.223  0.00  0.00    +0.000 NA
ATOM     16  C   UNL     1       8.601  56.022  15.490  0.00  0.00    +0.000 C 
ATOM     17  C   UNL     1       8.246  54.908  14.490  0.00  0.00    +0.000 C 
ATOM     18  C   UNL     1       8.376  55.403  13.050  0.00  0.00    +0.000 C 
ATOM     19  C   UNL     1      10.063  57.084  13.878  0.00  0.00    +0.000 C 
ATOM     20  C   UNL     1       9.737  56.046  12.805  0.00  0.00    +0.000 C 
ATOM     21  H   UNL     1      10.601  55.680  15.228  0.00  0.00    +0.000 HD
ENDBRANCH  11  16
BRANCH  11  22
ATOM     22  O   UNL     1       9.812  55.112  17.438  0.00  0.00    +0.000 OA
ATOM     23  H   UNL     1       9.621  54.275  17.903  0.00  0.00    +0.000 HD
ENDBRANCH  11  22
ENDBRANCH   3  14
BRANCH   4  24
ATOM     24  N   UNL     1       4.876  55.629  14.545  0.00  0.00    +0.000 N 
ATOM     25  H   UNL     1       5.777  55.211  14.286  0.00  0.00    +0.000 HD
BRANCH  24  28
ATOM     26  I   UNL     1       3.427  60.598  10.952  0.00  0.00    +0.000 I 
ATOM     27  F   UNL     1       6.423  57.888  14.478  0.00  0.00    +0.000 F 
ATOM     28  C   UNL     1       4.512  56.707  13.718  0.00  0.00    +0.000 A 
ATOM     29  C   UNL     1       5.317  57.861  13.716  0.00  0.00    +0.000 A 
ATOM     30  C   UNL     1       3.372  56.718  12.909  0.00  0.00    +0.000 A 
ATOM     31  C   UNL     1       5.022  58.977  12.937  0.00  0.00    +0.000 A 
ATOM     32  C   UNL     1       3.059  57.833  12.120  0.00  0.00    +0.000 A 
ATOM     33  C   UNL     1       3.887  58.956  12.136  0.00  0.00    +0.000 A 
ENDBRANCH  24  28
ENDBRANCH   4  24
TORSDOF 5
ENDMDL
MODEL 3
REMARK VINA RESULT:      -5.4     28.586     31.097
REMARK  Name = 
REMARK  5 active torsions:
REMARK  status: ('A' for Active; 'I' for Inactive)
REMARK    1  A    between atoms: O_5  and  C_10
REMARK    2  A    between atoms: N_9  and  C_20
REMARK    3  A    between atoms: N_9  and  C_25
REMARK    4  A    between atoms: C_10  and  C_11
REMARK    5  A    between atoms: C_18  and  C_19
REMARK                            x       y       z     vdW  Elec       q    Type
REMARK                         _______ _______ _______ _____ _____    ______ ____
ROOT
ATOM      1  F   UNL     1       3.243  53.483  14.284  0.00  0.00    +0.000 F 
ATOM      2  F   UNL     1       1.907  52.112  16.188  0.00  0.00    +0.000 F 
ATOM      3  C   UNL     1       4.089  55.427  17.242  0.00  0.00    +0.000 A 
ATOM      4  C   UNL     1       4.070  55.043  15.883  0.00  0.00    +0.000 A 
ATOM      5  C   UNL     1       3.379  54.717  18.225  0.00  0.00    +0.000 A 
ATOM      6  C   UNL     1       3.324  53.903  15.556  0.00  0.00    +0.000 A 
ATOM      7  C   UNL     1       2.640  53.594  17.862  0.00  0.00    +0.000 A 
ATOM      8  C   UNL     1       2.618  53.196  16.531  0.00  0.00    +0.000 A 
ENDROOT
BRANCH   3  14
ATOM      9  O   UNL     1       4.577  57.709  17.231  0.00  0.00    +0.000 OA
ATOM     10  N   UNL     1       5.986  56.357  18.450  0.00  0.00    +0.000 N 
ATOM     11  C   UNL     1       8.049  56.165  18.194  0.00  0.00    +0.000 C 
ATOM     12  C   UNL     1       6.864  55.188  18.444  0.00  0.00    +0.000 C 
ATOM     13  C   UNL     1       7.087  57.290  18.680  0.00  0.00    +0.000 C 
ATOM     14  C   UNL     1       4.890  56.601  17.652  0.00  0.00    +0.000 C 
BRANCH  11  16
ATOM     15  N   UNL     1       8.426  57.807  16.375  0.00  0.00    +0.000 NA
ATOM     16  C   UNL     1       8.497  56.365  16.722  0.00  0.00    +0.000 C 
ATOM     17  C   UNL     1       9.933  55.860  16.495  0.00  0.00    +0.000 C 
ATOM     18  C   UNL     1      10.371  56.087  15.048  0.00  0.00    +0.000 C 
ATOM     19  C   UNL     1       8.727  57.997  14.949  0.00  0.00    +0.000 C 
ATOM     20  C   UNL     1      10.146  57.534  14.621  0.00  0.00    +0.000 C 
ATOM     21  H   UNL     1       9.157  58.292  16.901  0.00  0.00    +0.000 HD
ENDBRANCH  11  16
BRANCH  11  22
ATOM     22  O   UNL     1       9.211  55.948  19.047  0.00  0.00    +0.000 OA
ATOM     23  H   UNL     1       9.672  56.807  19.012  0.00  0.00    +0.000 HD
ENDBRANCH  11  22
ENDBRANCH   3  14
BRANCH   4  24
ATOM     24  N   UNL     1       4.850  55.750  14.941  0.00  0.00    +0.000 N 
ATOM     25  H   UNL     1       4.697  56.765  14.961  0.00  0.00    +0.000 HD
BRANCH  24  28
ATOM     26  I   UNL     1       9.681  54.229  11.193  0.00  0.00    +0.000 I 
ATOM     27  F   UNL     1       5.388  57.106  12.623  0.00  0.00    +0.000 F 
ATOM     28  C   UNL     1       5.947  55.375  14.144  0.00  0.00    +0.000 A 
ATOM     29  C   UNL     1       6.190  56.080  12.951  0.00  0.00    +0.000 A 
ATOM     30  C   UNL     1       6.806  54.316  14.451  0.00  0.00    +0.000 A 
ATOM     31  C   UNL     1       7.246  55.765  12.099  0.00  0.00    +0.000 A 
ATOM     32  C   UNL     1       7.873  53.985  13.604  0.00  0.00    +0.000 A 
ATOM     33  C   UNL     1       8.089  54.713  12.434  0.00  0.00    +0.000 A 
ENDBRANCH  24  28
ENDBRANCH   4  24
TORSDOF 5
ENDMDL
MODEL 4
REMARK VINA RESULT:      -5.4     33.718     35.018
REMARK  Name = 
REMARK  5 active torsions:
REMARK  status: ('A' for Active; 'I' for Inactive)
REMARK    1  A    between atoms: O_5  and  C_10
REMARK    2  A    between atoms: N_9  and  C_20
REMARK    3  A    between atoms: N_9  and  C_25
REMARK    4  A    between atoms: C_10  and  C_11
REMARK    5  A    between atoms: C_18  and  C_19
REMARK                            x       y       z     vdW  Elec       q    Type
REMARK                         _______ _______ _______ _____ _____    ______ ____
ROOT
ATOM      1  F   UNL     1      11.435  29.848  23.032  0.00  0.00    +0.000 F 
ATOM      2  F   UNL     1       9.550  29.053  24.793  0.00  0.00    +0.000 F 
ATOM      3  C   UNL     1       9.624  32.963  23.540  0.00  0.00    +0.000 A 
ATOM      4  C   UNL     1      10.600  32.078  23.029  0.00  0.00    +0.000 A 
ATOM      5  C   UNL     1       8.637  32.539  24.445  0.00  0.00    +0.000 A 
ATOM      6  C   UNL     1      10.553  30.753  23.483  0.00  0.00    +0.000 A 
ATOM      7  C   UNL     1       8.615  31.212  24.866  0.00  0.00    +0.000 A 
ATOM      8  C   UNL     1       9.573  30.330  24.382  0.00  0.00    +0.000 A 
ENDROOT
BRANCH   3  14
ATOM      9  O   UNL     1       9.409  34.664  21.956  0.00  0.00    +0.000 OA
ATOM     10  N   UNL     1       9.993  35.305  24.088  0.00  0.00    +0.000 N 
ATOM     11  C   UNL     1      11.701  36.370  24.639  0.00  0.00    +0.000 C 
ATOM     12  C   UNL     1      10.929  35.141  25.199  0.00  0.00    +0.000 C 
ATOM     13  C   UNL     1      10.409  36.682  23.828  0.00  0.00    +0.000 C 
ATOM     14  C   UNL     1       9.647  34.383  23.126  0.00  0.00    +0.000 C 
BRANCH  11  16
ATOM     15  N   UNL     1      13.880  37.206  23.799  0.00  0.00    +0.000 NA
ATOM     16  C   UNL     1      12.919  36.076  23.722  0.00  0.00    +0.000 C 
ATOM     17  C   UNL     1      13.633  34.776  24.130  0.00  0.00    +0.000 C 
ATOM     18  C   UNL     1      14.846  34.514  23.236  0.00  0.00    +0.000 C 
ATOM     19  C   UNL     1      14.976  37.000  22.843  0.00  0.00    +0.000 C 
ATOM     20  C   UNL     1      15.761  35.731  23.171  0.00  0.00    +0.000 C 
ATOM     21  H   UNL     1      14.296  37.200  24.734  0.00  0.00    +0.000 HD
ENDBRANCH  11  16
BRANCH  11  22
ATOM     22  O   UNL     1      12.054  37.376  25.632  0.00  0.00    +0.000 OA
ATOM     23  H   UNL     1      11.251  37.928  25.681  0.00  0.00    +0.000 HD
ENDBRANCH  11  22
ENDBRANCH   3  14
BRANCH   4  24
ATOM     24  N   UNL     1      11.611  32.564  22.171  0.00  0.00    +0.000 N 
ATOM     25  H   UNL     1      12.436  32.918  22.668  0.00  0.00    +0.000 HD
BRANCH  24  28
ATOM     26  I   UNL     1      12.553  32.324  15.945  0.00  0.00    +0.000 I 
ATOM     27  F   UNL     1      12.592  34.693  20.755  0.00  0.00    +0.000 F 
ATOM     28  C   UNL     1      11.811  32.455  20.782  0.00  0.00    +0.000 A 
ATOM     29  C   UNL     1      12.301  33.570  20.079  0.00  0.00    +0.000 A 
ATOM     30  C   UNL     1      11.524  31.304  20.042  0.00  0.00    +0.000 A 
ATOM     31  C   UNL     1      12.516  33.551  18.704  0.00  0.00    +0.000 A 
ATOM     32  C   UNL     1      11.733  31.268  18.657  0.00  0.00    +0.000 A 
ATOM     33  C   UNL     1      12.230  32.390  17.995  0.00  0.00    +0.000 A 
ENDBRANCH  24  28
ENDBRANCH   4  24
TORSDOF 5
ENDMDL
MODEL 5
REMARK VINA RESULT:      -5.3     28.708     30.395
REMARK  Name = 
REMARK  5 active torsions:
REMARK  status: ('A' for Active; 'I' for Inactive)
REMARK    1  A    between atoms: O_5  and  C_10
REMARK    2  A    between atoms: N_9  and  C_20
REMARK    3  A    between atoms: N_9  and  C_25
REMARK    4  A    between atoms: C_10  and  C_11
REMARK    5  A    between atoms: C_18  and  C_19
REMARK                            x       y       z     vdW  Elec       q    Type
REMARK                         _______ _______ _______ _____ _____    ______ ____
ROOT
ATOM      1  F   UNL     1      -1.039  46.336  25.709  0.00  0.00    +0.000 F 
ATOM      2  F   UNL     1       0.959  45.142  27.077  0.00  0.00    +0.000 F 
ATOM      3  C   UNL     1      -1.264  48.075  28.898  0.00  0.00    +0.000 A 
ATOM      4  C   UNL     1      -1.577  47.730  27.564  0.00  0.00    +0.000 A 
ATOM      5  C   UNL     1      -0.232  47.438  29.608  0.00  0.00    +0.000 A 
ATOM      6  C   UNL     1      -0.794  46.731  26.968  0.00  0.00    +0.000 A 
ATOM      7  C   UNL     1       0.519  46.444  28.987  0.00  0.00    +0.000 A 
ATOM      8  C   UNL     1       0.231  46.098  27.672  0.00  0.00    +0.000 A 
ENDROOT
BRANCH   3  14
ATOM      9  O   UNL     1      -1.466  50.203  29.835  0.00  0.00    +0.000 OA
ATOM     10  N   UNL     1      -3.337  48.863  29.899  0.00  0.00    +0.000 N 
ATOM     11  C   UNL     1      -4.387  48.279  31.606  0.00  0.00    +0.000 C 
ATOM     12  C   UNL     1      -3.906  47.579  30.303  0.00  0.00    +0.000 C 
ATOM     13  C   UNL     1      -4.152  49.620  30.848  0.00  0.00    +0.000 C 
ATOM     14  C   UNL     1      -2.031  49.148  29.567  0.00  0.00    +0.000 C 
BRANCH  11  16
ATOM     15  N   UNL     1      -4.309  47.767  34.031  0.00  0.00    +0.000 NA
ATOM     16  C   UNL     1      -3.479  48.139  32.857  0.00  0.00    +0.000 C 
ATOM     17  C   UNL     1      -2.390  47.072  32.648  0.00  0.00    +0.000 C 
ATOM     18  C   UNL     1      -1.520  46.926  33.897  0.00  0.00    +0.000 C 
ATOM     19  C   UNL     1      -3.482  47.753  35.247  0.00  0.00    +0.000 C 
ATOM     20  C   UNL     1      -2.371  46.710  35.143  0.00  0.00    +0.000 C 
ATOM     21  H   UNL     1      -4.643  46.811  33.888  0.00  0.00    +0.000 HD
ENDBRANCH  11  16
BRANCH  11  22
ATOM     22  O   UNL     1      -5.776  48.019  31.964  0.00  0.00    +0.000 OA
ATOM     23  H   UNL     1      -6.010  47.260  31.398  0.00  0.00    +0.000 HD
ENDBRANCH  11  22
ENDBRANCH   3  14
BRANCH   4  24
ATOM     24  N   UNL     1      -2.581  48.440  26.870  0.00  0.00    +0.000 N 
ATOM     25  H   UNL     1      -2.235  49.285  26.402  0.00  0.00    +0.000 HD
BRANCH  24  28
ATOM     26  I   UNL     1      -8.556  47.177  25.319  0.00  0.00    +0.000 I 
ATOM     27  F   UNL     1      -4.557  50.332  26.992  0.00  0.00    +0.000 F 
ATOM     28  C   UNL     1      -3.898  48.107  26.503  0.00  0.00    +0.000 A 
ATOM     29  C   UNL     1      -4.895  49.096  26.591  0.00  0.00    +0.000 A 
ATOM     30  C   UNL     1      -4.291  46.835  26.080  0.00  0.00    +0.000 A 
ATOM     31  C   UNL     1      -6.224  48.848  26.261  0.00  0.00    +0.000 A 
ATOM     32  C   UNL     1      -5.625  46.567  25.744  0.00  0.00    +0.000 A 
ATOM     33  C   UNL     1      -6.585  47.575  25.833  0.00  0.00    +0.000 A 
ENDBRANCH  24  28
ENDBRANCH   4  24
TORSDOF 5
ENDMDL
MODEL 6
REMARK VINA RESULT:      -5.3     28.638     31.442
REMARK  Name = 
REMARK  5 active torsions:
REMARK  status: ('A' for Active; 'I' for Inactive)
REMARK    1  A    between atoms: O_5  and  C_10
REMARK    2  A    between atoms: N_9  and  C_20
REMARK    3  A    between atoms: N_9  and  C_25
REMARK    4  A    between atoms: C_10  and  C_11
REMARK    5  A    between atoms: C_18  and  C_19
REMARK                            x       y       z     vdW  Elec       q    Type
REMARK                         _______ _______ _______ _____ _____    ______ ____
ROOT
ATOM      1  F   UNL     1       9.364  56.403  16.190  0.00  0.00    +0.000 F 
ATOM      2  F   UNL     1      10.837  54.990  14.423  0.00  0.00    +0.000 F 
ATOM      3  C   UNL     1       6.788  55.357  13.842  0.00  0.00    +0.000 A 
ATOM      4  C   UNL     1       7.360  55.979  14.973  0.00  0.00    +0.000 A 
ATOM      5  C   UNL     1       7.564  54.635  12.918  0.00  0.00    +0.000 A 
ATOM      6  C   UNL     1       8.743  55.828  15.148  0.00  0.00    +0.000 A 
ATOM      7  C   UNL     1       8.936  54.514  13.119  0.00  0.00    +0.000 A 
ATOM      8  C   UNL     1       9.515  55.112  14.232  0.00  0.00    +0.000 A 
ENDROOT
BRANCH   3  14
ATOM      9  O   UNL     1       4.873  56.446  13.073  0.00  0.00    +0.000 OA
ATOM     10  N   UNL     1       4.560  54.417  14.115  0.00  0.00    +0.000 N 
ATOM     11  C   UNL     1       3.382  54.056  15.799  0.00  0.00    +0.000 C 
ATOM     12  C   UNL     1       4.790  53.612  15.312  0.00  0.00    +0.000 C 
ATOM     13  C   UNL     1       3.113  54.464  14.319  0.00  0.00    +0.000 C 
ATOM     14  C   UNL     1       5.328  55.450  13.624  0.00  0.00    +0.000 C 
BRANCH  11  16
ATOM     15  N   UNL     1       2.115  56.082  16.467  0.00  0.00    +0.000 NA
ATOM     16  C   UNL     1       3.322  55.268  16.767  0.00  0.00    +0.000 C 
ATOM     17  C   UNL     1       3.275  54.816  18.237  0.00  0.00    +0.000 C 
ATOM     18  C   UNL     1       3.190  56.019  19.177  0.00  0.00    +0.000 C 
ATOM     19  C   UNL     1       2.112  57.299  17.291  0.00  0.00    +0.000 C 
ATOM     20  C   UNL     1       2.054  56.955  18.778  0.00  0.00    +0.000 C 
ATOM     21  H   UNL     1       1.294  55.536  16.739  0.00  0.00    +0.000 HD
ENDBRANCH  11  16
BRANCH  11  22
ATOM     22  O   UNL     1       2.536  52.978  16.295  0.00  0.00    +0.000 OA
ATOM     23  H   UNL     1       1.643  53.251  16.013  0.00  0.00    +0.000 HD
ENDBRANCH  11  22
ENDBRANCH   3  14
BRANCH   4  24
ATOM     24  N   UNL     1       6.533  56.640  15.907  0.00  0.00    +0.000 N 
ATOM     25  H   UNL     1       5.597  56.856  15.545  0.00  0.00    +0.000 HD
BRANCH  24  28
ATOM     26  I   UNL     1       7.030  57.362  22.147  0.00  0.00    +0.000 I 
ATOM     27  F   UNL     1       6.793  54.511  17.612  0.00  0.00    +0.000 F 
ATOM     28  C   UNL     1       6.650  56.857  17.293  0.00  0.00    +0.000 A 
ATOM     29  C   UNL     1       6.766  55.743  18.145  0.00  0.00    +0.000 A 
ATOM     30  C   UNL     1       6.628  58.122  17.887  0.00  0.00    +0.000 A 
ATOM     31  C   UNL     1       6.873  55.869  19.527  0.00  0.00    +0.000 A 
ATOM     32  C   UNL     1       6.734  58.266  19.277  0.00  0.00    +0.000 A 
ATOM     33  C   UNL     1       6.858  57.140  20.090  0.00  0.00    +0.000 A 
ENDBRANCH  24  28
ENDBRANCH   4  24
TORSDOF 5
ENDMDL
MODEL 7
REMARK VINA RESULT:      -5.2     28.860     30.499
REMARK  Name = 
REMARK  5 active torsions:
REMARK  status: ('A' for Active; 'I' for Inactive)
REMARK    1  A    between atoms: O_5  and  C_10
REMARK    2  A    between atoms: N_9  and  C_20
REMARK    3  A    between atoms: N_9  and  C_25
REMARK    4  A    between atoms: C_10  and  C_11
REMARK    5  A    between atoms: C_18  and  C_19
REMARK                            x       y       z     vdW  Elec       q    Type
REMARK                         _______ _______ _______ _____ _____    ______ ____
ROOT
ATOM      1  F   UNL     1      -0.494  46.364  25.718  0.00  0.00    +0.000 F 
ATOM      2  F   UNL     1       1.671  44.811  26.152  0.00  0.00    +0.000 F 
ATOM      3  C   UNL     1      -0.426  46.296  29.356  0.00  0.00    +0.000 A 
ATOM      4  C   UNL     1      -0.870  46.625  28.056  0.00  0.00    +0.000 A 
ATOM      5  C   UNL     1       0.694  45.475  29.574  0.00  0.00    +0.000 A 
ATOM      6  C   UNL     1      -0.128  46.110  26.984  0.00  0.00    +0.000 A 
ATOM      7  C   UNL     1       1.401  44.973  28.484  0.00  0.00    +0.000 A 
ATOM      8  C   UNL     1       0.984  45.294  27.198  0.00  0.00    +0.000 A 
ENDROOT
BRANCH   3  14
ATOM      9  O   UNL     1      -2.254  46.391  30.804  0.00  0.00    +0.000 OA
ATOM     10  N   UNL     1      -0.538  47.873  31.206  0.00  0.00    +0.000 N 
ATOM     11  C   UNL     1      -0.686  49.953  31.275  0.00  0.00    +0.000 C 
ATOM     12  C   UNL     1       0.314  48.930  30.665  0.00  0.00    +0.000 C 
ATOM     13  C   UNL     1      -1.202  48.771  32.149  0.00  0.00    +0.000 C 
ATOM     14  C   UNL     1      -1.146  46.841  30.527  0.00  0.00    +0.000 C 
BRANCH  11  16
ATOM     15  N   UNL     1      -2.407  51.710  30.952  0.00  0.00    +0.000 NA
ATOM     16  C   UNL     1      -1.783  50.513  30.330  0.00  0.00    +0.000 C 
ATOM     17  C   UNL     1      -1.205  50.900  28.958  0.00  0.00    +0.000 C 
ATOM     18  C   UNL     1      -2.291  51.474  28.048  0.00  0.00    +0.000 C 
ATOM     19  C   UNL     1      -3.531  52.176  30.127  0.00  0.00    +0.000 C 
ATOM     20  C   UNL     1      -3.056  52.598  28.738  0.00  0.00    +0.000 C 
ATOM     21  H   UNL     1      -1.711  52.459  30.956  0.00  0.00    +0.000 HD
ENDBRANCH  11  16
BRANCH  11  22
ATOM     22  O   UNL     1      -0.070  51.040  32.025  0.00  0.00    +0.000 OA
ATOM     23  H   UNL     1       0.869  50.983  31.763  0.00  0.00    +0.000 HD
ENDBRANCH  11  22
ENDBRANCH   3  14
BRANCH   4  24
ATOM     24  N   UNL     1      -1.961  47.504  27.886  0.00  0.00    +0.000 N 
ATOM     25  H   UNL     1      -1.722  48.490  28.043  0.00  0.00    +0.000 HD
BRANCH  24  28
ATOM     26  I   UNL     1      -7.793  46.862  25.589  0.00  0.00    +0.000 I 
ATOM     27  F   UNL     1      -4.105  48.846  28.937  0.00  0.00    +0.000 F 
ATOM     28  C   UNL     1      -3.242  47.332  27.329  0.00  0.00    +0.000 A 
ATOM     29  C   UNL     1      -4.327  48.022  27.900  0.00  0.00    +0.000 A 
ATOM     30  C   UNL     1      -3.515  46.486  26.250  0.00  0.00    +0.000 A 
ATOM     31  C   UNL     1      -5.627  47.898  27.419  0.00  0.00    +0.000 A 
ATOM     32  C   UNL     1      -4.818  46.349  25.754  0.00  0.00    +0.000 A 
ATOM     33  C   UNL     1      -5.867  47.057  26.339  0.00  0.00    +0.000 A 
ENDBRANCH  24  28
ENDBRANCH   4  24
TORSDOF 5
ENDMDL
MODEL 8
REMARK VINA RESULT:      -5.2     28.465     31.094
REMARK  Name = 
REMARK  5 active torsions:
REMARK  status: ('A' for Active; 'I' for Inactive)
REMARK    1  A    between atoms: O_5  and  C_10
REMARK    2  A    between atoms: N_9  and  C_20
REMARK    3  A    between atoms: N_9  and  C_25
REMARK    4  A    between atoms: C_10  and  C_11
REMARK    5  A    between atoms: C_18  and  C_19
REMARK                            x       y       z     vdW  Elec       q    Type
REMARK                         _______ _______ _______ _____ _____    ______ ____
ROOT
ATOM      1  F   UNL     1       2.285  53.574  13.811  0.00  0.00    +0.000 F 
ATOM      2  F   UNL     1       1.846  52.338  16.170  0.00  0.00    +0.000 F 
ATOM      3  C   UNL     1       5.421  54.254  15.528  0.00  0.00    +0.000 A 
ATOM      4  C   UNL     1       4.460  54.265  14.492  0.00  0.00    +0.000 A 
ATOM      5  C   UNL     1       5.179  53.620  16.759  0.00  0.00    +0.000 A 
ATOM      6  C   UNL     1       3.254  53.595  14.738  0.00  0.00    +0.000 A 
ATOM      7  C   UNL     1       3.965  52.973  16.972  0.00  0.00    +0.000 A 
ATOM      8  C   UNL     1       3.012  52.966  15.961  0.00  0.00    +0.000 A 
ENDROOT
BRANCH   3  14
ATOM      9  O   UNL     1       7.623  54.285  14.757  0.00  0.00    +0.000 OA
ATOM     10  N   UNL     1       6.868  56.189  15.807  0.00  0.00    +0.000 N 
ATOM     11  C   UNL     1       7.705  57.091  17.494  0.00  0.00    +0.000 C 
ATOM     12  C   UNL     1       6.264  56.764  17.008  0.00  0.00    +0.000 C 
ATOM     13  C   UNL     1       8.140  56.880  16.013  0.00  0.00    +0.000 C 
ATOM     14  C   UNL     1       6.727  54.912  15.312  0.00  0.00    +0.000 C 
BRANCH  11  16
ATOM     15  N   UNL     1       9.716  55.711  17.943  0.00  0.00    +0.000 NA
ATOM     16  C   UNL     1       8.370  56.071  18.457  0.00  0.00    +0.000 C 
ATOM     17  C   UNL     1       8.508  56.644  19.879  0.00  0.00    +0.000 C 
ATOM     18  C   UNL     1       9.189  55.640  20.810  0.00  0.00    +0.000 C 
ATOM     19  C   UNL     1      10.306  54.654  18.777  0.00  0.00    +0.000 C 
ATOM     20  C   UNL     1      10.497  55.131  20.215  0.00  0.00    +0.000 C 
ATOM     21  H   UNL     1      10.317  56.533  18.035  0.00  0.00    +0.000 HD
ENDBRANCH  11  16
BRANCH  11  22
ATOM     22  O   UNL     1       7.889  58.447  17.995  0.00  0.00    +0.000 OA
ATOM     23  H   UNL     1       8.802  58.431  18.340  0.00  0.00    +0.000 HD
ENDBRANCH  11  22
ENDBRANCH   3  14
BRANCH   4  24
ATOM     24  N   UNL     1       4.772  54.860  13.250  0.00  0.00    +0.000 N 
ATOM     25  H   UNL     1       5.026  54.181  12.523  0.00  0.00    +0.000 HD
BRANCH  24  28
ATOM     26  I   UNL     1       4.201  60.713  10.990  0.00  0.00    +0.000 I 
ATOM     27  F   UNL     1       6.915  56.282  12.308  0.00  0.00    +0.000 F 
ATOM     28  C   UNL     1       4.588  56.161  12.747  0.00  0.00    +0.000 A 
ATOM     29  C   UNL     1       5.710  56.873  12.285  0.00  0.00    +0.000 A 
ATOM     30  C   UNL     1       3.352  56.811  12.704  0.00  0.00    +0.000 A 
ATOM     31  C   UNL     1       5.618  58.169  11.784  0.00  0.00    +0.000 A 
ATOM     32  C   UNL     1       3.241  58.116  12.204  0.00  0.00    +0.000 A 
ATOM     33  C   UNL     1       4.374  58.787  11.744  0.00  0.00    +0.000 A 
ENDBRANCH  24  28
ENDBRANCH   4  24
TORSDOF 5
ENDMDL
MODEL 9
REMARK VINA RESULT:      -5.1     28.204     30.721
REMARK  Name = 
REMARK  5 active torsions:
REMARK  status: ('A' for Active; 'I' for Inactive)
REMARK    1  A    between atoms: O_5  and  C_10
REMARK    2  A    between atoms: N_9  and  C_20
REMARK    3  A    between atoms: N_9  and  C_25
REMARK    4  A    between atoms: C_10  and  C_11
REMARK    5  A    between atoms: C_18  and  C_19
REMARK                            x       y       z     vdW  Elec       q    Type
REMARK                         _______ _______ _______ _____ _____    ______ ____
ROOT
ATOM      1  F   UNL     1       3.268  53.562  14.046  0.00  0.00    +0.000 F 
ATOM      2  F   UNL     1       1.837  52.111  15.817  0.00  0.00    +0.000 F 
ATOM      3  C   UNL     1       4.244  55.150  17.171  0.00  0.00    +0.000 A 
ATOM      4  C   UNL     1       4.200  54.901  15.781  0.00  0.00    +0.000 A 
ATOM      5  C   UNL     1       3.485  54.400  18.086  0.00  0.00    +0.000 A 
ATOM      6  C   UNL     1       3.376  53.851  15.352  0.00  0.00    +0.000 A 
ATOM      7  C   UNL     1       2.670  53.371  17.621  0.00  0.00    +0.000 A 
ATOM      8  C   UNL     1       2.622  53.105  16.259  0.00  0.00    +0.000 A 
ENDROOT
BRANCH   3  14
ATOM      9  O   UNL     1       6.317  55.981  17.852  0.00  0.00    +0.000 OA
ATOM     10  N   UNL     1       4.525  57.418  18.006  0.00  0.00    +0.000 N 
ATOM     11  C   UNL     1       3.849  58.377  19.733  0.00  0.00    +0.000 C 
ATOM     12  C   UNL     1       3.181  57.642  18.536  0.00  0.00    +0.000 C 
ATOM     13  C   UNL     1       5.119  58.466  18.835  0.00  0.00    +0.000 C 
ATOM     14  C   UNL     1       5.125  56.221  17.687  0.00  0.00    +0.000 C 
BRANCH  11  16
ATOM     15  N   UNL     1       5.143  58.202  21.841  0.00  0.00    +0.000 NA
ATOM     16  C   UNL     1       4.093  57.546  21.021  0.00  0.00    +0.000 C 
ATOM     17  C   UNL     1       2.808  57.410  21.857  0.00  0.00    +0.000 C 
ATOM     18  C   UNL     1       3.069  56.612  23.135  0.00  0.00    +0.000 C 
ATOM     19  C   UNL     1       5.472  57.362  23.002  0.00  0.00    +0.000 C 
ATOM     20  C   UNL     1       4.257  57.175  23.908  0.00  0.00    +0.000 C 
ATOM     21  H   UNL     1       4.754  59.075  22.207  0.00  0.00    +0.000 HD
ENDBRANCH  11  16
BRANCH  11  22
ATOM     22  O   UNL     1       3.252  59.663  20.072  0.00  0.00    +0.000 OA
ATOM     23  H   UNL     1       3.009  60.029  19.201  0.00  0.00    +0.000 HD
ENDBRANCH  11  22
ENDBRANCH   3  14
BRANCH   4  24
ATOM     24  N   UNL     1       5.028  55.638  14.907  0.00  0.00    +0.000 N 
ATOM     25  H   UNL     1       5.101  56.632  15.152  0.00  0.00    +0.000 HD
BRANCH  24  28
ATOM     26  I   UNL     1       9.280  53.795  10.638  0.00  0.00    +0.000 I 
ATOM     27  F   UNL     1       7.122  53.991  15.543  0.00  0.00    +0.000 F 
ATOM     28  C   UNL     1       5.945  55.249  13.913  0.00  0.00    +0.000 A 
ATOM     29  C   UNL     1       7.020  54.415  14.273  0.00  0.00    +0.000 A 
ATOM     30  C   UNL     1       5.873  55.666  12.581  0.00  0.00    +0.000 A 
ATOM     31  C   UNL     1       7.978  53.994  13.355  0.00  0.00    +0.000 A 
ATOM     32  C   UNL     1       6.830  55.252  11.644  0.00  0.00    +0.000 A 
ATOM     33  C   UNL     1       7.876  54.417  12.034  0.00  0.00    +0.000 A 
ENDBRANCH  24  28
ENDBRANCH   4  24
TORSDOF 5
ENDMDL
