MODEL 1
REMARK VINA RESULT:      -7.4      0.000      0.000
REMARK  Name = COUMESTROL.pdbqt.pdb
REMARK  2 active torsions:
REMARK  status: ('A' for Active; 'I' for Inactive)
REMARK    1  A    between atoms: C_16  and  O_19
REMARK    2  A    between atoms: C_18  and  O_21
REMARK                            x       y       z     vdW  Elec       q    Type
REMARK                         _______ _______ _______ _____ _____    ______ ____
ROOT
ATOM      1  O   UNL     1     -18.519  40.485   5.912  0.00  0.00    +0.000 OA
ATOM      2  O   UNL     1     -17.164  36.762   6.907  0.00  0.00    +0.000 OA
ATOM      3  O   UNL     1     -15.021  37.538   6.529  0.00  0.00    +0.000 OA
ATOM      4  C   UNL     1     -16.797  39.050   6.211  0.00  0.00    +0.000 A 
ATOM      5  C   UNL     1     -18.155  39.229   6.254  0.00  0.00    +0.000 A 
ATOM      6  C   UNL     1     -16.255  40.296   5.808  0.00  0.00    +0.000 A 
ATOM      7  C   UNL     1     -19.117  38.232   6.614  0.00  0.00    +0.000 A 
ATOM      8  C   UNL     1     -17.352  41.145   5.636  0.00  0.00    +0.000 A 
ATOM      9  C   UNL     1     -18.576  36.980   6.943  0.00  0.00    +0.000 A 
ATOM     10  C   UNL     1     -16.224  37.767   6.547  0.00  0.00    +0.000 A 
ATOM     11  C   UNL     1     -14.968  40.803   5.569  0.00  0.00    +0.000 A 
ATOM     12  C   UNL     1     -20.492  38.427   6.654  0.00  0.00    +0.000 A 
ATOM     13  C   UNL     1     -17.260  42.479   5.239  0.00  0.00    +0.000 A 
ATOM     14  C   UNL     1     -19.386  35.914   7.312  0.00  0.00    +0.000 A 
ATOM     15  C   UNL     1     -14.839  42.137   5.169  0.00  0.00    +0.000 A 
ATOM     16  C   UNL     1     -15.963  42.944   5.011  0.00  0.00    +0.000 A 
ATOM     17  C   UNL     1     -21.317  37.365   7.023  0.00  0.00    +0.000 A 
ATOM     18  C   UNL     1     -20.761  36.125   7.347  0.00  0.00    +0.000 A 
ENDROOT
BRANCH  16  19
ATOM     19  O   UNL     1     -15.763  44.241   4.617  0.00  0.00    +0.000 OA
ATOM     20  H   UNL     1     -15.802  44.810   5.405  0.00  0.00    +0.000 HD
ENDBRANCH  16  19
BRANCH  18  21
ATOM     21  O   UNL     1     -21.563  35.080   7.709  0.00  0.00    +0.000 OA
ATOM     22  H   UNL     1     -21.541  34.414   7.000  0.00  0.00    +0.000 HD
ENDBRANCH  18  21
TORSDOF 2
ENDMDL
MODEL 2
REMARK VINA RESULT:      -7.3      1.069      6.144
REMARK  Name = COUMESTROL.pdbqt.pdb
REMARK  2 active torsions:
REMARK  status: ('A' for Active; 'I' for Inactive)
REMARK    1  A    between atoms: C_16  and  O_19
REMARK    2  A    between atoms: C_18  and  O_21
REMARK                            x       y       z     vdW  Elec       q    Type
REMARK                         _______ _______ _______ _____ _____    ______ ____
ROOT
ATOM      1  O   UNL     1     -18.933  38.840   6.437  0.00  0.00    +0.000 OA
ATOM      2  O   UNL     1     -14.963  39.579   5.827  0.00  0.00    +0.000 OA
ATOM      3  O   UNL     1     -14.560  37.369   6.366  0.00  0.00    +0.000 OA
ATOM      4  C   UNL     1     -16.795  38.108   6.406  0.00  0.00    +0.000 A 
ATOM      5  C   UNL     1     -17.642  39.168   6.216  0.00  0.00    +0.000 A 
ATOM      6  C   UNL     1     -17.618  37.017   6.779  0.00  0.00    +0.000 A 
ATOM      7  C   UNL     1     -17.250  40.490   5.827  0.00  0.00    +0.000 A 
ATOM      8  C   UNL     1     -18.924  37.516   6.784  0.00  0.00    +0.000 A 
ATOM      9  C   UNL     1     -15.872  40.666   5.637  0.00  0.00    +0.000 A 
ATOM     10  C   UNL     1     -15.372  38.273   6.213  0.00  0.00    +0.000 A 
ATOM     11  C   UNL     1     -17.413  35.668   7.112  0.00  0.00    +0.000 A 
ATOM     12  C   UNL     1     -18.120  41.556   5.638  0.00  0.00    +0.000 A 
ATOM     13  C   UNL     1     -20.053  36.762   7.101  0.00  0.00    +0.000 A 
ATOM     14  C   UNL     1     -15.342  41.893   5.258  0.00  0.00    +0.000 A 
ATOM     15  C   UNL     1     -18.523  34.883   7.435  0.00  0.00    +0.000 A 
ATOM     16  C   UNL     1     -19.806  35.426   7.426  0.00  0.00    +0.000 A 
ATOM     17  C   UNL     1     -17.602  42.794   5.258  0.00  0.00    +0.000 A 
ATOM     18  C   UNL     1     -16.226  42.951   5.073  0.00  0.00    +0.000 A 
ENDROOT
BRANCH  16  19
ATOM     19  O   UNL     1     -20.848  34.599   7.752  0.00  0.00    +0.000 OA
ATOM     20  H   UNL     1     -21.483  35.103   8.289  0.00  0.00    +0.000 HD
ENDBRANCH  16  19
BRANCH  18  21
ATOM     21  O   UNL     1     -15.712  44.161   4.701  0.00  0.00    +0.000 OA
ATOM     22  H   UNL     1     -14.781  44.035   4.445  0.00  0.00    +0.000 HD
ENDBRANCH  18  21
TORSDOF 2
ENDMDL
MODEL 3
REMARK VINA RESULT:      -6.9     22.372     23.589
REMARK  Name = COUMESTROL.pdbqt.pdb
REMARK  2 active torsions:
REMARK  status: ('A' for Active; 'I' for Inactive)
REMARK    1  A    between atoms: C_16  and  O_19
REMARK    2  A    between atoms: C_18  and  O_21
REMARK                            x       y       z     vdW  Elec       q    Type
REMARK                         _______ _______ _______ _____ _____    ______ ____
ROOT
ATOM      1  O   UNL     1      -8.453  46.720  26.878  0.00  0.00    +0.000 OA
ATOM      2  O   UNL     1      -8.925  49.243  23.700  0.00  0.00    +0.000 OA
ATOM      3  O   UNL     1      -6.724  48.809  23.144  0.00  0.00    +0.000 OA
ATOM      4  C   UNL     1      -7.596  47.738  25.051  0.00  0.00    +0.000 A 
ATOM      5  C   UNL     1      -8.693  47.567  25.853  0.00  0.00    +0.000 A 
ATOM      6  C   UNL     1      -6.575  46.932  25.614  0.00  0.00    +0.000 A 
ATOM      7  C   UNL     1      -9.968  48.193  25.668  0.00  0.00    +0.000 A 
ATOM      8  C   UNL     1      -7.151  46.327  26.735  0.00  0.00    +0.000 A 
ATOM      9  C   UNL     1     -10.052  49.044  24.556  0.00  0.00    +0.000 A 
ATOM     10  C   UNL     1      -7.666  48.612  23.902  0.00  0.00    +0.000 A 
ATOM     11  C   UNL     1      -5.236  46.644  25.308  0.00  0.00    +0.000 A 
ATOM     12  C   UNL     1     -11.073  48.011  26.489  0.00  0.00    +0.000 A 
ATOM     13  C   UNL     1      -6.482  45.445  27.583  0.00  0.00    +0.000 A 
ATOM     14  C   UNL     1     -11.225  49.721  24.248  0.00  0.00    +0.000 A 
ATOM     15  C   UNL     1      -4.534  45.764  26.137  0.00  0.00    +0.000 A 
ATOM     16  C   UNL     1      -5.152  45.185  27.244  0.00  0.00    +0.000 A 
ATOM     17  C   UNL     1     -12.258  48.684  26.192  0.00  0.00    +0.000 A 
ATOM     18  C   UNL     1     -12.323  49.529  25.080  0.00  0.00    +0.000 A 
ENDROOT
BRANCH  16  19
ATOM     19  O   UNL     1      -4.405  44.333  28.013  0.00  0.00    +0.000 OA
ATOM     20  H   UNL     1      -4.593  43.421  27.730  0.00  0.00    +0.000 HD
ENDBRANCH  16  19
BRANCH  18  21
ATOM     21  O   UNL     1     -13.480  50.191  24.782  0.00  0.00    +0.000 OA
ATOM     22  H   UNL     1     -14.221  49.564  24.854  0.00  0.00    +0.000 HD
ENDBRANCH  18  21
TORSDOF 2
ENDMDL
MODEL 4
REMARK VINA RESULT:      -6.8     23.850     25.452
REMARK  Name = COUMESTROL.pdbqt.pdb
REMARK  2 active torsions:
REMARK  status: ('A' for Active; 'I' for Inactive)
REMARK    1  A    between atoms: C_16  and  O_19
REMARK    2  A    between atoms: C_18  and  O_21
REMARK                            x       y       z     vdW  Elec       q    Type
REMARK                         _______ _______ _______ _____ _____    ______ ____
ROOT
ATOM      1  O   UNL     1      -6.239  49.312  25.676  0.00  0.00    +0.000 OA
ATOM      2  O   UNL     1      -3.897  46.147  26.764  0.00  0.00    +0.000 OA
ATOM      3  O   UNL     1      -5.626  44.759  26.116  0.00  0.00    +0.000 OA
ATOM      4  C   UNL     1      -5.950  47.080  25.887  0.00  0.00    +0.000 A 
ATOM      5  C   UNL     1      -5.402  48.324  26.059  0.00  0.00    +0.000 A 
ATOM      6  C   UNL     1      -7.243  47.298  25.350  0.00  0.00    +0.000 A 
ATOM      7  C   UNL     1      -4.096  48.595  26.581  0.00  0.00    +0.000 A 
ATOM      8  C   UNL     1      -7.375  48.685  25.239  0.00  0.00    +0.000 A 
ATOM      9  C   UNL     1      -3.352  47.458  26.932  0.00  0.00    +0.000 A 
ATOM     10  C   UNL     1      -5.197  45.899  26.243  0.00  0.00    +0.000 A 
ATOM     11  C   UNL     1      -8.316  46.487  24.946  0.00  0.00    +0.000 A 
ATOM     12  C   UNL     1      -3.552  49.862  26.750  0.00  0.00    +0.000 A 
ATOM     13  C   UNL     1      -8.509  49.331  24.748  0.00  0.00    +0.000 A 
ATOM     14  C   UNL     1      -2.068  47.564  27.451  0.00  0.00    +0.000 A 
ATOM     15  C   UNL     1      -9.469  47.101  24.449  0.00  0.00    +0.000 A 
ATOM     16  C   UNL     1      -9.552  48.489  24.358  0.00  0.00    +0.000 A 
ATOM     17  C   UNL     1      -2.264  49.982  27.271  0.00  0.00    +0.000 A 
ATOM     18  C   UNL     1      -1.537  48.839  27.615  0.00  0.00    +0.000 A 
ENDROOT
BRANCH  16  19
ATOM     19  O   UNL     1     -10.712  49.023  23.862  0.00  0.00    +0.000 OA
ATOM     20  H   UNL     1     -10.576  49.976  23.724  0.00  0.00    +0.000 HD
ENDBRANCH  16  19
BRANCH  18  21
ATOM     21  O   UNL     1      -0.275  48.950  28.126  0.00  0.00    +0.000 OA
ATOM     22  H   UNL     1       0.285  49.397  27.468  0.00  0.00    +0.000 HD
ENDBRANCH  18  21
TORSDOF 2
ENDMDL
MODEL 5
REMARK VINA RESULT:      -6.7     23.508     24.718
REMARK  Name = COUMESTROL.pdbqt.pdb
REMARK  2 active torsions:
REMARK  status: ('A' for Active; 'I' for Inactive)
REMARK    1  A    between atoms: C_16  and  O_19
REMARK    2  A    between atoms: C_18  and  O_21
REMARK                            x       y       z     vdW  Elec       q    Type
REMARK                         _______ _______ _______ _____ _____    ______ ____
ROOT
ATOM      1  O   UNL     1      -5.519  49.545  25.979  0.00  0.00    +0.000 OA
ATOM      2  O   UNL     1      -7.607  46.081  25.408  0.00  0.00    +0.000 OA
ATOM      3  O   UNL     1      -5.744  44.939  26.161  0.00  0.00    +0.000 OA
ATOM      4  C   UNL     1      -5.618  47.289  26.072  0.00  0.00    +0.000 A 
ATOM      5  C   UNL     1      -6.278  48.449  25.762  0.00  0.00    +0.000 A 
ATOM      6  C   UNL     1      -4.333  47.683  26.523  0.00  0.00    +0.000 A 
ATOM      7  C   UNL     1      -7.617  48.539  25.263  0.00  0.00    +0.000 A 
ATOM      8  C   UNL     1      -4.321  49.079  26.447  0.00  0.00    +0.000 A 
ATOM      9  C   UNL     1      -8.268  47.308  25.094  0.00  0.00    +0.000 A 
ATOM     10  C   UNL     1      -6.275  46.013  25.903  0.00  0.00    +0.000 A 
ATOM     11  C   UNL     1      -3.182  47.024  26.985  0.00  0.00    +0.000 A 
ATOM     12  C   UNL     1      -8.275  49.722  24.953  0.00  0.00    +0.000 A 
ATOM     13  C   UNL     1      -3.233  49.876  26.802  0.00  0.00    +0.000 A 
ATOM     14  C   UNL     1      -9.571  47.237  24.618  0.00  0.00    +0.000 A 
ATOM     15  C   UNL     1      -2.073  47.793  27.350  0.00  0.00    +0.000 A 
ATOM     16  C   UNL     1      -2.109  49.183  27.257  0.00  0.00    +0.000 A 
ATOM     17  C   UNL     1      -9.583  49.665  24.474  0.00  0.00    +0.000 A 
ATOM     18  C   UNL     1     -10.217  48.430  24.311  0.00  0.00    +0.000 A 
ENDROOT
BRANCH  16  19
ATOM     19  O   UNL     1      -0.987  49.873  27.631  0.00  0.00    +0.000 OA
ATOM     20  H   UNL     1      -0.397  49.940  26.860  0.00  0.00    +0.000 HD
ENDBRANCH  16  19
BRANCH  18  21
ATOM     21  O   UNL     1     -11.498  48.367  23.842  0.00  0.00    +0.000 OA
ATOM     22  H   UNL     1     -11.639  49.110  23.230  0.00  0.00    +0.000 HD
ENDBRANCH  18  21
TORSDOF 2
ENDMDL
MODEL 6
REMARK VINA RESULT:      -6.0      2.560      5.159
REMARK  Name = COUMESTROL.pdbqt.pdb
REMARK  2 active torsions:
REMARK  status: ('A' for Active; 'I' for Inactive)
REMARK    1  A    between atoms: C_16  and  O_19
REMARK    2  A    between atoms: C_18  and  O_21
REMARK                            x       y       z     vdW  Elec       q    Type
REMARK                         _______ _______ _______ _____ _____    ______ ____
ROOT
ATOM      1  O   UNL     1     -19.530  40.472   5.299  0.00  0.00    +0.000 OA
ATOM      2  O   UNL     1     -15.637  41.702   5.416  0.00  0.00    +0.000 OA
ATOM      3  O   UNL     1     -16.385  43.824   4.891  0.00  0.00    +0.000 OA
ATOM      4  C   UNL     1     -17.999  42.122   5.097  0.00  0.00    +0.000 A 
ATOM      5  C   UNL     1     -18.220  40.795   5.358  0.00  0.00    +0.000 A 
ATOM      6  C   UNL     1     -19.275  42.686   4.852  0.00  0.00    +0.000 A 
ATOM      7  C   UNL     1     -17.212  39.825   5.662  0.00  0.00    +0.000 A 
ATOM      8  C   UNL     1     -20.184  41.633   4.988  0.00  0.00    +0.000 A 
ATOM      9  C   UNL     1     -15.901  40.323   5.684  0.00  0.00    +0.000 A 
ATOM     10  C   UNL     1     -16.654  42.650   5.115  0.00  0.00    +0.000 A 
ATOM     11  C   UNL     1     -19.768  43.962   4.533  0.00  0.00    +0.000 A 
ATOM     12  C   UNL     1     -17.450  38.482   5.925  0.00  0.00    +0.000 A 
ATOM     13  C   UNL     1     -21.564  41.758   4.827  0.00  0.00    +0.000 A 
ATOM     14  C   UNL     1     -14.817  39.500   5.964  0.00  0.00    +0.000 A 
ATOM     15  C   UNL     1     -21.146  44.124   4.364  0.00  0.00    +0.000 A 
ATOM     16  C   UNL     1     -22.012  43.043   4.510  0.00  0.00    +0.000 A 
ATOM     17  C   UNL     1     -16.371  37.645   6.208  0.00  0.00    +0.000 A 
ATOM     18  C   UNL     1     -15.071  38.158   6.225  0.00  0.00    +0.000 A 
ENDROOT
BRANCH  16  19
ATOM     19  O   UNL     1     -23.350  43.273   4.331  0.00  0.00    +0.000 OA
ATOM     20  H   UNL     1     -23.656  42.737   3.579  0.00  0.00    +0.000 HD
ENDBRANCH  16  19
BRANCH  18  21
ATOM     21  O   UNL     1     -14.010  37.343   6.502  0.00  0.00    +0.000 OA
ATOM     22  H   UNL     1     -13.868  36.754   5.741  0.00  0.00    +0.000 HD
ENDBRANCH  18  21
TORSDOF 2
ENDMDL
MODEL 7
REMARK VINA RESULT:      -5.8     22.525     23.777
REMARK  Name = COUMESTROL.pdbqt.pdb
REMARK  2 active torsions:
REMARK  status: ('A' for Active; 'I' for Inactive)
REMARK    1  A    between atoms: C_16  and  O_19
REMARK    2  A    between atoms: C_18  and  O_21
REMARK                            x       y       z     vdW  Elec       q    Type
REMARK                         _______ _______ _______ _____ _____    ______ ____
ROOT
ATOM      1  O   UNL     1     -10.455  47.413  27.207  0.00  0.00    +0.000 OA
ATOM      2  O   UNL     1      -8.096  48.837  24.192  0.00  0.00    +0.000 OA
ATOM      3  O   UNL     1      -9.917  50.060  23.465  0.00  0.00    +0.000 OA
ATOM      4  C   UNL     1     -10.203  48.713  25.375  0.00  0.00    +0.000 A 
ATOM      5  C   UNL     1      -9.608  47.834  26.243  0.00  0.00    +0.000 A 
ATOM      6  C   UNL     1     -11.538  48.860  25.828  0.00  0.00    +0.000 A 
ATOM      7  C   UNL     1      -8.250  47.386  26.175  0.00  0.00    +0.000 A 
ATOM      8  C   UNL     1     -11.644  48.041  26.956  0.00  0.00    +0.000 A 
ATOM      9  C   UNL     1      -7.504  47.919  25.113  0.00  0.00    +0.000 A 
ATOM     10  C   UNL     1      -9.448  49.271  24.276  0.00  0.00    +0.000 A 
ATOM     11  C   UNL     1     -12.666  49.588  25.416  0.00  0.00    +0.000 A 
ATOM     12  C   UNL     1      -7.660  46.494  27.061  0.00  0.00    +0.000 A 
ATOM     13  C   UNL     1     -12.806  47.893  27.713  0.00  0.00    +0.000 A 
ATOM     14  C   UNL     1      -6.172  47.576  24.919  0.00  0.00    +0.000 A 
ATOM     15  C   UNL     1     -13.848  49.463  26.153  0.00  0.00    +0.000 A 
ATOM     16  C   UNL     1     -13.904  48.634  27.271  0.00  0.00    +0.000 A 
ATOM     17  C   UNL     1      -6.323  46.141  26.879  0.00  0.00    +0.000 A 
ATOM     18  C   UNL     1      -5.595  46.682  25.815  0.00  0.00    +0.000 A 
ENDROOT
BRANCH  16  19
ATOM     19  O   UNL     1     -15.094  48.559  27.945  0.00  0.00    +0.000 OA
ATOM     20  H   UNL     1     -14.944  48.083  28.780  0.00  0.00    +0.000 HD
ENDBRANCH  16  19
BRANCH  18  21
ATOM     21  O   UNL     1      -4.285  46.340  25.630  0.00  0.00    +0.000 OA
ATOM     22  H   UNL     1      -3.746  46.826  26.278  0.00  0.00    +0.000 HD
ENDBRANCH  18  21
TORSDOF 2
ENDMDL
MODEL 8
REMARK VINA RESULT:      -5.6     13.218     16.072
REMARK  Name = COUMESTROL.pdbqt.pdb
REMARK  2 active torsions:
REMARK  status: ('A' for Active; 'I' for Inactive)
REMARK    1  A    between atoms: C_16  and  O_19
REMARK    2  A    between atoms: C_18  and  O_21
REMARK                            x       y       z     vdW  Elec       q    Type
REMARK                         _______ _______ _______ _____ _____    ______ ____
ROOT
ATOM      1  O   UNL     1      -2.446  37.656   2.831  0.00  0.00    +0.000 OA
ATOM      2  O   UNL     1      -3.814  41.415   2.004  0.00  0.00    +0.000 OA
ATOM      3  O   UNL     1      -1.647  41.982   1.435  0.00  0.00    +0.000 OA
ATOM      4  C   UNL     1      -2.043  39.773   2.146  0.00  0.00    +0.000 A 
ATOM      5  C   UNL     1      -2.979  38.872   2.581  0.00  0.00    +0.000 A 
ATOM      6  C   UNL     1      -0.813  39.069   2.118  0.00  0.00    +0.000 A 
ATOM      7  C   UNL     1      -4.373  39.141   2.764  0.00  0.00    +0.000 A 
ATOM      8  C   UNL     1      -1.112  37.772   2.547  0.00  0.00    +0.000 A 
ATOM      9  C   UNL     1      -4.767  40.453   2.460  0.00  0.00    +0.000 A 
ATOM     10  C   UNL     1      -2.432  41.128   1.828  0.00  0.00    +0.000 A 
ATOM     11  C   UNL     1       0.515  39.376   1.780  0.00  0.00    +0.000 A 
ATOM     12  C   UNL     1      -5.313  38.218   3.206  0.00  0.00    +0.000 A 
ATOM     13  C   UNL     1      -0.174  36.747   2.667  0.00  0.00    +0.000 A 
ATOM     14  C   UNL     1      -6.088  40.863   2.590  0.00  0.00    +0.000 A 
ATOM     15  C   UNL     1       1.482  38.371   1.888  0.00  0.00    +0.000 A 
ATOM     16  C   UNL     1       1.134  37.093   2.322  0.00  0.00    +0.000 A 
ATOM     17  C   UNL     1      -6.643  38.616   3.341  0.00  0.00    +0.000 A 
ATOM     18  C   UNL     1      -7.017  39.927   3.034  0.00  0.00    +0.000 A 
ENDROOT
BRANCH  16  19
ATOM     19  O   UNL     1       2.132  36.159   2.404  0.00  0.00    +0.000 OA
ATOM     20  H   UNL     1       2.477  35.999   1.508  0.00  0.00    +0.000 HD
ENDBRANCH  16  19
BRANCH  18  21
ATOM     21  O   UNL     1      -8.318  40.324   3.163  0.00  0.00    +0.000 OA
ATOM     22  H   UNL     1      -8.540  40.901   2.412  0.00  0.00    +0.000 HD
ENDBRANCH  18  21
TORSDOF 2
ENDMDL
MODEL 9
REMARK VINA RESULT:      -5.5     24.409     25.540
REMARK  Name = COUMESTROL.pdbqt.pdb
REMARK  2 active torsions:
REMARK  status: ('A' for Active; 'I' for Inactive)
REMARK    1  A    between atoms: C_16  and  O_19
REMARK    2  A    between atoms: C_18  and  O_21
REMARK                            x       y       z     vdW  Elec       q    Type
REMARK                         _______ _______ _______ _____ _____    ______ ____
ROOT
ATOM      1  O   UNL     1      -8.816  48.635  27.622  0.00  0.00    +0.000 OA
ATOM      2  O   UNL     1      -5.366  46.465  27.890  0.00  0.00    +0.000 OA
ATOM      3  O   UNL     1      -5.853  45.600  25.804  0.00  0.00    +0.000 OA
ATOM      4  C   UNL     1      -7.372  47.148  26.721  0.00  0.00    +0.000 A 
ATOM      5  C   UNL     1      -7.662  47.954  27.791  0.00  0.00    +0.000 A 
ATOM      6  C   UNL     1      -8.431  47.333  25.798  0.00  0.00    +0.000 A 
ATOM      7  C   UNL     1      -6.864  48.092  28.972  0.00  0.00    +0.000 A 
ATOM      8  C   UNL     1      -9.293  48.257  26.397  0.00  0.00    +0.000 A 
ATOM      9  C   UNL     1      -5.696  47.316  28.990  0.00  0.00    +0.000 A 
ATOM     10  C   UNL     1      -6.172  46.342  26.725  0.00  0.00    +0.000 A 
ATOM     11  C   UNL     1      -8.760  46.830  24.529  0.00  0.00    +0.000 A 
ATOM     12  C   UNL     1      -7.170  48.914  30.049  0.00  0.00    +0.000 A 
ATOM     13  C   UNL     1     -10.474  48.720  25.817  0.00  0.00    +0.000 A 
ATOM     14  C   UNL     1      -4.823  47.345  30.070  0.00  0.00    +0.000 A 
ATOM     15  C   UNL     1      -9.937  47.274  23.919  0.00  0.00    +0.000 A 
ATOM     16  C   UNL     1     -10.765  48.196  24.556  0.00  0.00    +0.000 A 
ATOM     17  C   UNL     1      -6.302  48.953  31.140  0.00  0.00    +0.000 A 
ATOM     18  C   UNL     1      -5.142  48.173  31.141  0.00  0.00    +0.000 A 
ENDROOT
BRANCH  16  19
ATOM     19  O   UNL     1     -11.902  48.586  23.900  0.00  0.00    +0.000 OA
ATOM     20  H   UNL     1     -12.355  49.254  24.443  0.00  0.00    +0.000 HD
ENDBRANCH  16  19
BRANCH  18  21
ATOM     21  O   UNL     1      -4.288  48.206  32.207  0.00  0.00    +0.000 OA
ATOM     22  H   UNL     1      -3.375  48.186  31.869  0.00  0.00    +0.000 HD
ENDBRANCH  18  21
TORSDOF 2
ENDMDL
