MODEL 1
REMARK VINA RESULT:      -6.7      0.000      0.000
REMARK  Name = CP466722.pdbqt.pdb
REMARK  3 active torsions:
REMARK  status: ('A' for Active; 'I' for Inactive)
REMARK    1  A    between atoms: C_5  and  C_23
REMARK    2  A    between atoms: C_14  and  O_16
REMARK    3  A    between atoms: C_15  and  O_18
REMARK                            x       y       z     vdW  Elec       q    Type
REMARK                         _______ _______ _______ _____ _____    ______ ____
ROOT
ATOM      1  N   UNL     1     -16.427  39.011   6.026  0.00  0.00    +0.000 N 
ATOM      2  N   UNL     1     -17.678  38.510   6.152  0.00  0.00    +0.000 NA
ATOM      3  N   UNL     1     -16.139  36.918   6.679  0.00  0.00    +0.000 NA
ATOM      4  C   UNL     1     -15.504  38.019   6.369  0.00  0.00    +0.000 A 
ATOM      5  C   UNL     1     -17.468  37.245   6.545  0.00  0.00    +0.000 A 
ATOM      6  C   UNL     1     -16.160  40.344   5.568  0.00  0.00    +0.000 A 
ATOM      7  N   UNL     1     -14.856  40.672   5.360  0.00  0.00    +0.000 NA
ATOM      8  C   UNL     1     -14.611  41.907   4.911  0.00  0.00    +0.000 A 
ATOM      9  N   UNL     1     -15.536  42.834   4.645  0.00  0.00    +0.000 NA
ATOM     10  C   UNL     1     -16.813  42.507   4.852  0.00  0.00    +0.000 A 
ATOM     11  C   UNL     1     -17.211  41.252   5.332  0.00  0.00    +0.000 A 
ATOM     12  C   UNL     1     -17.783  43.459   4.570  0.00  0.00    +0.000 A 
ATOM     13  C   UNL     1     -18.591  41.023   5.546  0.00  0.00    +0.000 A 
ATOM     14  C   UNL     1     -19.551  41.997   5.296  0.00  0.00    +0.000 A 
ATOM     15  C   UNL     1     -19.145  43.209   4.750  0.00  0.00    +0.000 A 
ATOM     16  N   UNL     1     -14.167  38.183   6.383  0.00  0.00    +0.000 N 
ATOM     17  H   UNL     1     -13.584  37.353   6.410  0.00  0.00    +0.000 HD
ATOM     18  H   UNL     1     -13.755  38.991   5.918  0.00  0.00    +0.000 HD
ENDROOT
BRANCH   5  19
ATOM     19  C   UNL     1     -18.538  36.278   6.807  0.00  0.00    +0.000 A 
ATOM     20  N   UNL     1     -19.798  36.593   6.399  0.00  0.00    +0.000 NA
ATOM     21  C   UNL     1     -20.767  35.687   6.653  0.00  0.00    +0.000 A 
ATOM     22  C   UNL     1     -20.552  34.478   7.291  0.00  0.00    +0.000 A 
ATOM     23  C   UNL     1     -19.256  34.182   7.694  0.00  0.00    +0.000 A 
ATOM     24  C   UNL     1     -18.230  35.088   7.454  0.00  0.00    +0.000 A 
ENDBRANCH   5  19
BRANCH  14  25
ATOM     25  O   UNL     1     -20.866  41.684   5.510  0.00  0.00    +0.000 OA
ATOM     26  C   UNL     1     -20.973  40.512   6.279  0.00  0.00    +0.000 C 
ENDBRANCH  14  25
BRANCH  15  27
ATOM     27  O   UNL     1     -20.053  44.194   4.467  0.00  0.00    +0.000 OA
ATOM     28  C   UNL     1     -19.682  44.870   3.291  0.00  0.00    +0.000 C 
ENDBRANCH  15  27
TORSDOF 3
ENDMDL
MODEL 2
REMARK VINA RESULT:      -6.4      3.181      7.488
REMARK  Name = CP466722.pdbqt.pdb
REMARK  3 active torsions:
REMARK  status: ('A' for Active; 'I' for Inactive)
REMARK    1  A    between atoms: C_5  and  C_23
REMARK    2  A    between atoms: C_14  and  O_16
REMARK    3  A    between atoms: C_15  and  O_18
REMARK                            x       y       z     vdW  Elec       q    Type
REMARK                         _______ _______ _______ _____ _____    ______ ____
ROOT
ATOM      1  N   UNL     1     -20.113  40.886   5.497  0.00  0.00    +0.000 N 
ATOM      2  N   UNL     1     -19.266  41.549   4.675  0.00  0.00    +0.000 NA
ATOM      3  N   UNL     1     -21.328  42.512   4.620  0.00  0.00    +0.000 NA
ATOM      4  C   UNL     1     -21.364  41.506   5.455  0.00  0.00    +0.000 A 
ATOM      5  C   UNL     1     -20.032  42.522   4.160  0.00  0.00    +0.000 A 
ATOM      6  C   UNL     1     -19.733  39.715   6.234  0.00  0.00    +0.000 A 
ATOM      7  N   UNL     1     -20.718  39.072   6.915  0.00  0.00    +0.000 NA
ATOM      8  C   UNL     1     -20.366  37.968   7.583  0.00  0.00    +0.000 A 
ATOM      9  N   UNL     1     -19.137  37.446   7.626  0.00  0.00    +0.000 NA
ATOM     10  C   UNL     1     -18.174  38.082   6.956  0.00  0.00    +0.000 A 
ATOM     11  C   UNL     1     -18.401  39.256   6.226  0.00  0.00    +0.000 A 
ATOM     12  C   UNL     1     -16.895  37.544   6.986  0.00  0.00    +0.000 A 
ATOM     13  C   UNL     1     -17.300  39.867   5.579  0.00  0.00    +0.000 A 
ATOM     14  C   UNL     1     -16.015  39.339   5.648  0.00  0.00    +0.000 A 
ATOM     15  C   UNL     1     -15.823  38.135   6.313  0.00  0.00    +0.000 A 
ATOM     16  N   UNL     1     -22.438  41.125   6.175  0.00  0.00    +0.000 N 
ATOM     17  H   UNL     1     -23.348  41.478   5.901  0.00  0.00    +0.000 HD
ATOM     18  H   UNL     1     -22.442  40.209   6.623  0.00  0.00    +0.000 HD
ENDROOT
BRANCH   5  19
ATOM     19  C   UNL     1     -19.557  43.513   3.190  0.00  0.00    +0.000 A 
ATOM     20  N   UNL     1     -20.329  44.613   2.970  0.00  0.00    +0.000 NA
ATOM     21  C   UNL     1     -19.871  45.511   2.071  0.00  0.00    +0.000 A 
ATOM     22  C   UNL     1     -18.682  45.377   1.376  0.00  0.00    +0.000 A 
ATOM     23  C   UNL     1     -17.915  44.247   1.622  0.00  0.00    +0.000 A 
ATOM     24  C   UNL     1     -18.349  43.297   2.538  0.00  0.00    +0.000 A 
ENDBRANCH   5  19
BRANCH  14  25
ATOM     25  O   UNL     1     -15.012  39.981   4.974  0.00  0.00    +0.000 OA
ATOM     26  C   UNL     1     -15.064  41.365   5.217  0.00  0.00    +0.000 C 
ENDBRANCH  14  25
BRANCH  15  27
ATOM     27  O   UNL     1     -14.582  37.562   6.393  0.00  0.00    +0.000 OA
ATOM     28  C   UNL     1     -14.495  36.469   5.513  0.00  0.00    +0.000 C 
ENDBRANCH  15  27
TORSDOF 3
ENDMDL
MODEL 3
REMARK VINA RESULT:      -6.4      2.835      4.411
REMARK  Name = CP466722.pdbqt.pdb
REMARK  3 active torsions:
REMARK  status: ('A' for Active; 'I' for Inactive)
REMARK    1  A    between atoms: C_5  and  C_23
REMARK    2  A    between atoms: C_14  and  O_16
REMARK    3  A    between atoms: C_15  and  O_18
REMARK                            x       y       z     vdW  Elec       q    Type
REMARK                         _______ _______ _______ _____ _____    ______ ____
ROOT
ATOM      1  N   UNL     1     -20.313  38.552   6.125  0.00  0.00    +0.000 N 
ATOM      2  N   UNL     1     -19.527  37.520   6.511  0.00  0.00    +0.000 NA
ATOM      3  N   UNL     1     -21.722  36.928   6.641  0.00  0.00    +0.000 NA
ATOM      4  C   UNL     1     -21.651  38.157   6.200  0.00  0.00    +0.000 A 
ATOM      5  C   UNL     1     -20.409  36.557   6.818  0.00  0.00    +0.000 A 
ATOM      6  C   UNL     1     -19.791  39.835   5.749  0.00  0.00    +0.000 A 
ATOM      7  N   UNL     1     -20.697  40.821   5.514  0.00  0.00    +0.000 NA
ATOM      8  C   UNL     1     -20.208  42.022   5.187  0.00  0.00    +0.000 A 
ATOM      9  N   UNL     1     -18.912  42.329   5.083  0.00  0.00    +0.000 NA
ATOM     10  C   UNL     1     -18.027  41.358   5.314  0.00  0.00    +0.000 A 
ATOM     11  C   UNL     1     -18.402  40.051   5.653  0.00  0.00    +0.000 A 
ATOM     12  C   UNL     1     -16.678  41.669   5.218  0.00  0.00    +0.000 A 
ATOM     13  C   UNL     1     -17.381  39.090   5.846  0.00  0.00    +0.000 A 
ATOM     14  C   UNL     1     -16.034  39.403   5.710  0.00  0.00    +0.000 A 
ATOM     15  C   UNL     1     -15.679  40.721   5.447  0.00  0.00    +0.000 A 
ATOM     16  N   UNL     1     -22.702  38.929   5.861  0.00  0.00    +0.000 N 
ATOM     17  H   UNL     1     -23.624  38.645   6.173  0.00  0.00    +0.000 HD
ATOM     18  H   UNL     1     -22.570  39.933   5.744  0.00  0.00    +0.000 HD
ENDROOT
BRANCH   5  19
ATOM     19  C   UNL     1     -20.035  35.226   7.306  0.00  0.00    +0.000 A 
ATOM     20  N   UNL     1     -21.009  34.278   7.388  0.00  0.00    +0.000 NA
ATOM     21  C   UNL     1     -20.639  33.061   7.842  0.00  0.00    +0.000 A 
ATOM     22  C   UNL     1     -19.350  32.730   8.217  0.00  0.00    +0.000 A 
ATOM     23  C   UNL     1     -18.376  33.716   8.120  0.00  0.00    +0.000 A 
ATOM     24  C   UNL     1     -18.713  34.982   7.661  0.00  0.00    +0.000 A 
ENDBRANCH   5  19
BRANCH  14  25
ATOM     25  O   UNL     1     -15.111  38.418   5.935  0.00  0.00    +0.000 OA
ATOM     26  C   UNL     1     -15.751  37.203   6.230  0.00  0.00    +0.000 C 
ENDBRANCH  14  25
BRANCH  15  27
ATOM     27  O   UNL     1     -14.365  41.087   5.323  0.00  0.00    +0.000 OA
ATOM     28  C   UNL     1     -14.270  42.359   4.731  0.00  0.00    +0.000 C 
ENDBRANCH  15  27
TORSDOF 3
ENDMDL
MODEL 4
REMARK VINA RESULT:      -6.3     24.180     25.133
REMARK  Name = CP466722.pdbqt.pdb
REMARK  3 active torsions:
REMARK  status: ('A' for Active; 'I' for Inactive)
REMARK    1  A    between atoms: C_5  and  C_23
REMARK    2  A    between atoms: C_14  and  O_16
REMARK    3  A    between atoms: C_15  and  O_18
REMARK                            x       y       z     vdW  Elec       q    Type
REMARK                         _______ _______ _______ _____ _____    ______ ____
ROOT
ATOM      1  N   UNL     1     -10.202  48.359  25.949  0.00  0.00    +0.000 N 
ATOM      2  N   UNL     1     -10.410  48.000  27.237  0.00  0.00    +0.000 NA
ATOM      3  N   UNL     1     -12.366  48.669  26.282  0.00  0.00    +0.000 NA
ATOM      4  C   UNL     1     -11.418  48.750  25.384  0.00  0.00    +0.000 A 
ATOM      5  C   UNL     1     -11.726  48.202  27.406  0.00  0.00    +0.000 A 
ATOM      6  C   UNL     1      -8.904  48.354  25.336  0.00  0.00    +0.000 A 
ATOM      7  N   UNL     1      -8.818  48.865  24.079  0.00  0.00    +0.000 NA
ATOM      8  C   UNL     1      -7.604  48.881  23.518  0.00  0.00    +0.000 A 
ATOM      9  N   UNL     1      -6.479  48.446  24.092  0.00  0.00    +0.000 NA
ATOM     10  C   UNL     1      -6.569  47.945  25.325  0.00  0.00    +0.000 A 
ATOM     11  C   UNL     1      -7.780  47.856  26.025  0.00  0.00    +0.000 A 
ATOM     12  C   UNL     1      -5.405  47.499  25.935  0.00  0.00    +0.000 A 
ATOM     13  C   UNL     1      -7.768  47.277  27.316  0.00  0.00    +0.000 A 
ATOM     14  C   UNL     1      -6.601  46.798  27.901  0.00  0.00    +0.000 A 
ATOM     15  C   UNL     1      -5.399  46.963  27.224  0.00  0.00    +0.000 A 
ATOM     16  N   UNL     1     -11.582  49.142  24.105  0.00  0.00    +0.000 N 
ATOM     17  H   UNL     1     -12.438  49.628  23.860  0.00  0.00    +0.000 HD
ATOM     18  H   UNL     1     -10.765  49.388  23.547  0.00  0.00    +0.000 HD
ENDROOT
BRANCH   5  19
ATOM     19  C   UNL     1     -12.439  47.961  28.664  0.00  0.00    +0.000 A 
ATOM     20  N   UNL     1     -13.559  47.188  28.626  0.00  0.00    +0.000 NA
ATOM     21  C   UNL     1     -14.199  46.982  29.797  0.00  0.00    +0.000 A 
ATOM     22  C   UNL     1     -13.784  47.501  31.011  0.00  0.00    +0.000 A 
ATOM     23  C   UNL     1     -12.636  48.282  31.020  0.00  0.00    +0.000 A 
ATOM     24  C   UNL     1     -11.949  48.521  29.837  0.00  0.00    +0.000 A 
ENDBRANCH   5  19
BRANCH  14  25
ATOM     25  O   UNL     1      -6.675  46.273  29.163  0.00  0.00    +0.000 OA
ATOM     26  C   UNL     1      -6.786  47.298  30.117  0.00  0.00    +0.000 C 
ENDBRANCH  14  25
BRANCH  15  27
ATOM     27  O   UNL     1      -4.219  46.528  27.765  0.00  0.00    +0.000 OA
ATOM     28  C   UNL     1      -3.453  47.623  28.201  0.00  0.00    +0.000 C 
ENDBRANCH  15  27
TORSDOF 3
ENDMDL
MODEL 5
REMARK VINA RESULT:      -6.3     28.678     31.801
REMARK  Name = CP466722.pdbqt.pdb
REMARK  3 active torsions:
REMARK  status: ('A' for Active; 'I' for Inactive)
REMARK    1  A    between atoms: C_5  and  C_23
REMARK    2  A    between atoms: C_14  and  O_16
REMARK    3  A    between atoms: C_15  and  O_18
REMARK                            x       y       z     vdW  Elec       q    Type
REMARK                         _______ _______ _______ _____ _____    ______ ____
ROOT
ATOM      1  N   UNL     1       5.886  56.119  19.728  0.00  0.00    +0.000 N 
ATOM      2  N   UNL     1       6.949  55.501  19.163  0.00  0.00    +0.000 NA
ATOM      3  N   UNL     1       7.575  56.536  21.092  0.00  0.00    +0.000 NA
ATOM      4  C   UNL     1       6.294  56.732  20.915  0.00  0.00    +0.000 A 
ATOM      5  C   UNL     1       7.952  55.774  20.010  0.00  0.00    +0.000 A 
ATOM      6  C   UNL     1       4.582  56.138  19.128  0.00  0.00    +0.000 A 
ATOM      7  N   UNL     1       3.639  56.908  19.733  0.00  0.00    +0.000 NA
ATOM      8  C   UNL     1       2.432  56.943  19.160  0.00  0.00    +0.000 A 
ATOM      9  N   UNL     1       2.084  56.294  18.045  0.00  0.00    +0.000 NA
ATOM     10  C   UNL     1       3.013  55.539  17.455  0.00  0.00    +0.000 A 
ATOM     11  C   UNL     1       4.314  55.403  17.956  0.00  0.00    +0.000 A 
ATOM     12  C   UNL     1       2.665  54.868  16.291  0.00  0.00    +0.000 A 
ATOM     13  C   UNL     1       5.211  54.550  17.269  0.00  0.00    +0.000 A 
ATOM     14  C   UNL     1       4.840  53.853  16.125  0.00  0.00    +0.000 A 
ATOM     15  C   UNL     1       3.569  54.058  15.601  0.00  0.00    +0.000 A 
ATOM     16  N   UNL     1       5.484  57.413  21.748  0.00  0.00    +0.000 N 
ATOM     17  H   UNL     1       5.910  58.015  22.445  0.00  0.00    +0.000 HD
ATOM     18  H   UNL     1       4.562  57.705  21.425  0.00  0.00    +0.000 HD
ENDROOT
BRANCH   5  19
ATOM     19  C   UNL     1       9.334  55.322  19.821  0.00  0.00    +0.000 A 
ATOM     20  N   UNL     1      10.078  55.059  20.930  0.00  0.00    +0.000 NA
ATOM     21  C   UNL     1      11.348  54.644  20.729  0.00  0.00    +0.000 A 
ATOM     22  C   UNL     1      11.921  54.473  19.482  0.00  0.00    +0.000 A 
ATOM     23  C   UNL     1      11.137  54.745  18.369  0.00  0.00    +0.000 A 
ATOM     24  C   UNL     1       9.827  55.176  18.530  0.00  0.00    +0.000 A 
ENDBRANCH   5  19
BRANCH  14  25
ATOM     25  O   UNL     1       5.777  53.067  15.510  0.00  0.00    +0.000 OA
ATOM     26  C   UNL     1       6.702  53.860  14.810  0.00  0.00    +0.000 C 
ENDBRANCH  14  25
BRANCH  15  27
ATOM     27  O   UNL     1       3.161  53.412  14.466  0.00  0.00    +0.000 OA
ATOM     28  C   UNL     1       3.048  54.325  13.402  0.00  0.00    +0.000 C 
ENDBRANCH  15  27
TORSDOF 3
ENDMDL
MODEL 6
REMARK VINA RESULT:      -6.1     24.221     25.364
REMARK  Name = CP466722.pdbqt.pdb
REMARK  3 active torsions:
REMARK  status: ('A' for Active; 'I' for Inactive)
REMARK    1  A    between atoms: C_5  and  C_23
REMARK    2  A    between atoms: C_14  and  O_16
REMARK    3  A    between atoms: C_15  and  O_18
REMARK                            x       y       z     vdW  Elec       q    Type
REMARK                         _______ _______ _______ _____ _____    ______ ____
ROOT
ATOM      1  N   UNL     1      -7.678  48.005  28.513  0.00  0.00    +0.000 N 
ATOM      2  N   UNL     1      -6.999  47.736  27.373  0.00  0.00    +0.000 NA
ATOM      3  N   UNL     1      -6.002  46.708  29.144  0.00  0.00    +0.000 NA
ATOM      4  C   UNL     1      -7.054  47.352  29.579  0.00  0.00    +0.000 A 
ATOM      5  C   UNL     1      -5.993  46.953  27.790  0.00  0.00    +0.000 A 
ATOM      6  C   UNL     1      -8.824  48.868  28.556  0.00  0.00    +0.000 A 
ATOM      7  N   UNL     1      -9.327  49.159  29.785  0.00  0.00    +0.000 NA
ATOM      8  C   UNL     1     -10.381  49.982  29.824  0.00  0.00    +0.000 A 
ATOM      9  N   UNL     1     -10.968  50.541  28.762  0.00  0.00    +0.000 NA
ATOM     10  C   UNL     1     -10.470  50.251  27.559  0.00  0.00    +0.000 A 
ATOM     11  C   UNL     1      -9.378  49.395  27.372  0.00  0.00    +0.000 A 
ATOM     12  C   UNL     1     -11.067  50.835  26.449  0.00  0.00    +0.000 A 
ATOM     13  C   UNL     1      -8.952  49.130  26.048  0.00  0.00    +0.000 A 
ATOM     14  C   UNL     1      -9.581  49.690  24.942  0.00  0.00    +0.000 A 
ATOM     15  C   UNL     1     -10.614  50.596  25.150  0.00  0.00    +0.000 A 
ATOM     16  N   UNL     1      -7.482  47.380  30.856  0.00  0.00    +0.000 N 
ATOM     17  H   UNL     1      -6.841  47.081  31.582  0.00  0.00    +0.000 HD
ATOM     18  H   UNL     1      -8.169  48.078  31.140  0.00  0.00    +0.000 HD
ENDROOT
BRANCH   5  19
ATOM     19  C   UNL     1      -4.962  46.401  26.906  0.00  0.00    +0.000 A 
ATOM     20  N   UNL     1      -3.693  46.881  27.027  0.00  0.00    +0.000 NA
ATOM     21  C   UNL     1      -2.761  46.358  26.200  0.00  0.00    +0.000 A 
ATOM     22  C   UNL     1      -3.020  45.378  25.258  0.00  0.00    +0.000 A 
ATOM     23  C   UNL     1      -4.322  44.906  25.160  0.00  0.00    +0.000 A 
ATOM     24  C   UNL     1      -5.312  45.418  25.989  0.00  0.00    +0.000 A 
ENDBRANCH   5  19
BRANCH  14  25
ATOM     25  O   UNL     1      -9.090  49.398  23.699  0.00  0.00    +0.000 OA
ATOM     26  C   UNL     1      -7.893  48.669  23.801  0.00  0.00    +0.000 C 
ENDBRANCH  14  25
BRANCH  15  27
ATOM     27  O   UNL     1     -11.254  51.191  24.096  0.00  0.00    +0.000 OA
ATOM     28  C   UNL     1     -12.608  50.813  24.075  0.00  0.00    +0.000 C 
ENDBRANCH  15  27
TORSDOF 3
ENDMDL
MODEL 7
REMARK VINA RESULT:      -5.8     26.147     27.734
REMARK  Name = CP466722.pdbqt.pdb
REMARK  3 active torsions:
REMARK  status: ('A' for Active; 'I' for Inactive)
REMARK    1  A    between atoms: C_5  and  C_23
REMARK    2  A    between atoms: C_14  and  O_16
REMARK    3  A    between atoms: C_15  and  O_18
REMARK                            x       y       z     vdW  Elec       q    Type
REMARK                         _______ _______ _______ _____ _____    ______ ____
ROOT
ATOM      1  N   UNL     1      -4.129  46.500  27.521  0.00  0.00    +0.000 N 
ATOM      2  N   UNL     1      -4.656  47.571  26.882  0.00  0.00    +0.000 NA
ATOM      3  N   UNL     1      -6.061  45.787  26.716  0.00  0.00    +0.000 NA
ATOM      4  C   UNL     1      -5.016  45.426  27.416  0.00  0.00    +0.000 A 
ATOM      5  C   UNL     1      -5.820  47.105  26.406  0.00  0.00    +0.000 A 
ATOM      6  C   UNL     1      -2.839  46.521  28.150  0.00  0.00    +0.000 A 
ATOM      7  N   UNL     1      -2.374  45.340  28.637  0.00  0.00    +0.000 NA
ATOM      8  C   UNL     1      -1.162  45.357  29.202  0.00  0.00    +0.000 A 
ATOM      9  N   UNL     1      -0.375  46.430  29.317  0.00  0.00    +0.000 NA
ATOM     10  C   UNL     1      -0.836  47.587  28.838  0.00  0.00    +0.000 A 
ATOM     11  C   UNL     1      -2.094  47.715  28.233  0.00  0.00    +0.000 A 
ATOM     12  C   UNL     1      -0.023  48.707  28.943  0.00  0.00    +0.000 A 
ATOM     13  C   UNL     1      -2.497  48.996  27.788  0.00  0.00    +0.000 A 
ATOM     14  C   UNL     1      -1.690  50.118  27.934  0.00  0.00    +0.000 A 
ATOM     15  C   UNL     1      -0.416  49.959  28.467  0.00  0.00    +0.000 A 
ATOM     16  N   UNL     1      -4.821  44.210  27.963  0.00  0.00    +0.000 N 
ATOM     17  H   UNL     1      -5.395  43.441  27.635  0.00  0.00    +0.000 HD
ATOM     18  H   UNL     1      -3.892  43.952  28.295  0.00  0.00    +0.000 HD
ENDROOT
BRANCH   5  19
ATOM     19  C   UNL     1      -6.764  47.904  25.619  0.00  0.00    +0.000 A 
ATOM     20  N   UNL     1      -7.982  48.173  26.164  0.00  0.00    +0.000 NA
ATOM     21  C   UNL     1      -8.835  48.910  25.419  0.00  0.00    +0.000 A 
ATOM     22  C   UNL     1      -8.542  49.399  24.158  0.00  0.00    +0.000 A 
ATOM     23  C   UNL     1      -7.290  49.111  23.629  0.00  0.00    +0.000 A 
ATOM     24  C   UNL     1      -6.384  48.355  24.361  0.00  0.00    +0.000 A 
ENDBRANCH   5  19
BRANCH  14  25
ATOM     25  O   UNL     1      -2.149  51.316  27.456  0.00  0.00    +0.000 OA
ATOM     26  C   UNL     1      -3.114  51.854  28.324  0.00  0.00    +0.000 C 
ENDBRANCH  14  25
BRANCH  15  27
ATOM     27  O   UNL     1       0.426  51.028  28.614  0.00  0.00    +0.000 OA
ATOM     28  C   UNL     1       0.403  51.485  29.943  0.00  0.00    +0.000 C 
ENDBRANCH  15  27
TORSDOF 3
ENDMDL
MODEL 8
REMARK VINA RESULT:      -5.8     14.958     17.707
REMARK  Name = CP466722.pdbqt.pdb
REMARK  3 active torsions:
REMARK  status: ('A' for Active; 'I' for Inactive)
REMARK    1  A    between atoms: C_5  and  C_23
REMARK    2  A    between atoms: C_14  and  O_16
REMARK    3  A    between atoms: C_15  and  O_18
REMARK                            x       y       z     vdW  Elec       q    Type
REMARK                         _______ _______ _______ _____ _____    ______ ____
ROOT
ATOM      1  N   UNL     1      -1.717  39.202   2.484  0.00  0.00    +0.000 N 
ATOM      2  N   UNL     1      -2.606  38.198   2.662  0.00  0.00    +0.000 NA
ATOM      3  N   UNL     1      -3.692  40.195   2.534  0.00  0.00    +0.000 NA
ATOM      4  C   UNL     1      -2.410  40.412   2.394  0.00  0.00    +0.000 A 
ATOM      5  C   UNL     1      -3.788  38.831   2.690  0.00  0.00    +0.000 A 
ATOM      6  C   UNL     1      -0.298  38.993   2.446  0.00  0.00    +0.000 A 
ATOM      7  N   UNL     1       0.485  40.104   2.397  0.00  0.00    +0.000 NA
ATOM      8  C   UNL     1       1.808  39.907   2.384  0.00  0.00    +0.000 A 
ATOM      9  N   UNL     1       2.416  38.718   2.424  0.00  0.00    +0.000 NA
ATOM     10  C   UNL     1       1.643  37.632   2.471  0.00  0.00    +0.000 A 
ATOM     11  C   UNL     1       0.243  37.692   2.477  0.00  0.00    +0.000 A 
ATOM     12  C   UNL     1       2.264  36.392   2.522  0.00  0.00    +0.000 A 
ATOM     13  C   UNL     1      -0.481  36.476   2.495  0.00  0.00    +0.000 A 
ATOM     14  C   UNL     1       0.152  35.238   2.508  0.00  0.00    +0.000 A 
ATOM     15  C   UNL     1       1.540  35.199   2.578  0.00  0.00    +0.000 A 
ATOM     16  N   UNL     1      -1.837  41.614   2.188  0.00  0.00    +0.000 N 
ATOM     17  H   UNL     1      -2.388  42.445   2.376  0.00  0.00    +0.000 HD
ATOM     18  H   UNL     1      -0.831  41.719   2.314  0.00  0.00    +0.000 HD
ENDROOT
BRANCH   5  19
ATOM     19  C   UNL     1      -5.077  38.158   2.874  0.00  0.00    +0.000 A 
ATOM     20  N   UNL     1      -5.066  36.852   3.258  0.00  0.00    +0.000 NA
ATOM     21  C   UNL     1      -6.267  36.253   3.420  0.00  0.00    +0.000 A 
ATOM     22  C   UNL     1      -7.482  36.884   3.225  0.00  0.00    +0.000 A 
ATOM     23  C   UNL     1      -7.462  38.217   2.837  0.00  0.00    +0.000 A 
ATOM     24  C   UNL     1      -6.250  38.871   2.657  0.00  0.00    +0.000 A 
ENDBRANCH   5  19
BRANCH  14  25
ATOM     25  O   UNL     1      -0.623  34.111   2.548  0.00  0.00    +0.000 OA
ATOM     26  C   UNL     1      -1.984  34.454   2.637  0.00  0.00    +0.000 C 
ENDBRANCH  14  25
BRANCH  15  27
ATOM     27  O   UNL     1       2.211  34.006   2.613  0.00  0.00    +0.000 OA
ATOM     28  C   UNL     1       3.419  34.109   1.900  0.00  0.00    +0.000 C 
ENDBRANCH  15  27
TORSDOF 3
ENDMDL
MODEL 9
REMARK VINA RESULT:      -5.8     28.300     29.932
REMARK  Name = CP466722.pdbqt.pdb
REMARK  3 active torsions:
REMARK  status: ('A' for Active; 'I' for Inactive)
REMARK    1  A    between atoms: C_5  and  C_23
REMARK    2  A    between atoms: C_14  and  O_16
REMARK    3  A    between atoms: C_15  and  O_18
REMARK                            x       y       z     vdW  Elec       q    Type
REMARK                         _______ _______ _______ _____ _____    ______ ____
ROOT
ATOM      1  N   UNL     1      -1.144  48.912  27.859  0.00  0.00    +0.000 N 
ATOM      2  N   UNL     1      -1.529  47.624  27.695  0.00  0.00    +0.000 NA
ATOM      3  N   UNL     1      -3.211  49.031  27.082  0.00  0.00    +0.000 NA
ATOM      4  C   UNL     1      -2.187  49.752  27.463  0.00  0.00    +0.000 A 
ATOM      5  C   UNL     1      -2.782  47.733  27.227  0.00  0.00    +0.000 A 
ATOM      6  C   UNL     1       0.132  49.283  28.400  0.00  0.00    +0.000 A 
ATOM      7  N   UNL     1       0.335  50.607  28.637  0.00  0.00    +0.000 NA
ATOM      8  C   UNL     1       1.517  50.949  29.162  0.00  0.00    +0.000 A 
ATOM      9  N   UNL     1       2.500  50.101  29.478  0.00  0.00    +0.000 NA
ATOM     10  C   UNL     1       2.295  48.804  29.243  0.00  0.00    +0.000 A 
ATOM     11  C   UNL     1       1.109  48.309  28.685  0.00  0.00    +0.000 A 
ATOM     12  C   UNL     1       3.306  47.914  29.576  0.00  0.00    +0.000 A 
ATOM     13  C   UNL     1       1.010  46.917  28.447  0.00  0.00    +0.000 A 
ATOM     14  C   UNL     1       2.044  46.039  28.750  0.00  0.00    +0.000 A 
ATOM     15  C   UNL     1       3.182  46.538  29.372  0.00  0.00    +0.000 A 
ATOM     16  N   UNL     1      -2.136  51.098  27.467  0.00  0.00    +0.000 N 
ATOM     17  H   UNL     1      -3.008  51.611  27.394  0.00  0.00    +0.000 HD
ATOM     18  H   UNL     1      -1.395  51.570  27.984  0.00  0.00    +0.000 HD
ENDROOT
BRANCH   5  19
ATOM     19  C   UNL     1      -3.637  46.589  26.899  0.00  0.00    +0.000 A 
ATOM     20  N   UNL     1      -4.637  46.269  27.766  0.00  0.00    +0.000 NA
ATOM     21  C   UNL     1      -5.411  45.210  27.442  0.00  0.00    +0.000 A 
ATOM     22  C   UNL     1      -5.248  44.450  26.298  0.00  0.00    +0.000 A 
ATOM     23  C   UNL     1      -4.222  44.801  25.430  0.00  0.00    +0.000 A 
ATOM     24  C   UNL     1      -3.402  45.882  25.725  0.00  0.00    +0.000 A 
ENDBRANCH   5  19
BRANCH  14  25
ATOM     25  O   UNL     1       1.856  44.705  28.509  0.00  0.00    +0.000 OA
ATOM     26  C   UNL     1       1.036  44.137  29.499  0.00  0.00    +0.000 C 
ENDBRANCH  14  25
BRANCH  15  27
ATOM     27  O   UNL     1       4.221  45.712  29.709  0.00  0.00    +0.000 OA
ATOM     28  C   UNL     1       5.396  46.121  29.055  0.00  0.00    +0.000 C 
ENDBRANCH  15  27
TORSDOF 3
ENDMDL
