MODEL 1
REMARK VINA RESULT:      -7.3      0.000      0.000
REMARK  Name = Curcumin.pdbqt.pdb
REMARK  8 active torsions:
REMARK  status: ('A' for Active; 'I' for Inactive)
REMARK    1  A    between atoms: C_2  and  C_4
REMARK    2  A    between atoms: C_5  and  C_6
REMARK    3  A    between atoms: C_8  and  O_12
REMARK    4  A    between atoms: C_9  and  O_14
REMARK    5  A    between atoms: C_16  and  C_18
REMARK    6  A    between atoms: C_19  and  C_20
REMARK    7  A    between atoms: C_22  and  O_26
REMARK    8  A    between atoms: C_23  and  O_28
REMARK                            x       y       z     vdW  Elec       q    Type
REMARK                         _______ _______ _______ _____ _____    ______ ____
ROOT
ATOM      1  C   UNL     1      -3.320  46.716  26.232  0.00  0.00    +0.000 C 
ATOM      2  C   UNL     1      -4.363  45.837  25.821  0.00  0.00    +0.000 C 
ATOM      3  O   UNL     1      -4.127  44.647  25.669  0.00  0.00    +0.000 OA
ATOM      4  C   UNL     1      -2.275  47.596  26.639  0.00  0.00    +0.000 C 
ATOM      5  O   UNL     1      -2.406  48.803  26.495  0.00  0.00    +0.000 OA
ENDROOT
BRANCH   2   6
ATOM      6  C   UNL     1      -5.688  46.354  25.590  0.00  0.00    +0.000 C 
ATOM      7  C   UNL     1      -6.792  46.786  25.399  0.00  0.00    +0.000 C 
BRANCH   7   8
ATOM      8  C   UNL     1      -8.103  47.300  25.171  0.00  0.00    +0.000 A 
ATOM      9  C   UNL     1      -9.159  46.898  25.986  0.00  0.00    +0.000 A 
ATOM     10  C   UNL     1     -10.450  47.392  25.777  0.00  0.00    +0.000 A 
ATOM     11  C   UNL     1     -10.662  48.298  24.733  0.00  0.00    +0.000 A 
ATOM     12  C   UNL     1      -9.607  48.702  23.916  0.00  0.00    +0.000 A 
ATOM     13  C   UNL     1      -8.326  48.203  24.135  0.00  0.00    +0.000 A 
BRANCH  10  14
ATOM     14  O   UNL     1     -11.537  47.043  26.538  0.00  0.00    +0.000 OA
ATOM     15  C   UNL     1     -11.760  47.814  27.685  0.00  0.00    +0.000 C 
ENDBRANCH  10  14
BRANCH  11  16
ATOM     16  O   UNL     1     -11.887  48.835  24.452  0.00  0.00    +0.000 OA
ATOM     17  H   UNL     1     -12.586  48.374  24.946  0.00  0.00    +0.000 HD
ENDBRANCH  11  16
ENDBRANCH   7   8
ENDBRANCH   2   6
BRANCH   4  18
ATOM     18  C   UNL     1      -1.071  47.056  27.219  0.00  0.00    +0.000 C 
ATOM     19  C   UNL     1      -0.065  46.609  27.700  0.00  0.00    +0.000 C 
BRANCH  19  20
ATOM     20  C   UNL     1       1.131  46.082  28.269  0.00  0.00    +0.000 A 
ATOM     21  C   UNL     1       1.960  46.905  29.030  0.00  0.00    +0.000 A 
ATOM     22  C   UNL     1       3.136  46.403  29.595  0.00  0.00    +0.000 A 
ATOM     23  C   UNL     1       3.463  45.061  29.381  0.00  0.00    +0.000 A 
ATOM     24  C   UNL     1       2.638  44.234  28.621  0.00  0.00    +0.000 A 
ATOM     25  C   UNL     1       1.470  44.746  28.064  0.00  0.00    +0.000 A 
BRANCH  22  26
ATOM     26  O   UNL     1       4.007  47.144  30.356  0.00  0.00    +0.000 OA
ATOM     27  C   UNL     1       4.771  48.089  29.654  0.00  0.00    +0.000 C 
ENDBRANCH  22  26
BRANCH  23  28
ATOM     28  O   UNL     1       4.610  44.551  29.925  0.00  0.00    +0.000 OA
ATOM     29  H   UNL     1       4.439  43.635  30.211  0.00  0.00    +0.000 HD
ENDBRANCH  23  28
ENDBRANCH  19  20
ENDBRANCH   4  18
TORSDOF 8
ENDMDL
MODEL 2
REMARK VINA RESULT:      -7.2      0.133     11.949
REMARK  Name = Curcumin.pdbqt.pdb
REMARK  8 active torsions:
REMARK  status: ('A' for Active; 'I' for Inactive)
REMARK    1  A    between atoms: C_2  and  C_4
REMARK    2  A    between atoms: C_5  and  C_6
REMARK    3  A    between atoms: C_8  and  O_12
REMARK    4  A    between atoms: C_9  and  O_14
REMARK    5  A    between atoms: C_16  and  C_18
REMARK    6  A    between atoms: C_19  and  C_20
REMARK    7  A    between atoms: C_22  and  O_26
REMARK    8  A    between atoms: C_23  and  O_28
REMARK                            x       y       z     vdW  Elec       q    Type
REMARK                         _______ _______ _______ _____ _____    ______ ____
ROOT
ATOM      1  C   UNL     1      -3.349  46.739  26.221  0.00  0.00    +0.000 C 
ATOM      2  C   UNL     1      -2.307  47.618  26.636  0.00  0.00    +0.000 C 
ATOM      3  O   UNL     1      -2.444  48.825  26.505  0.00  0.00    +0.000 OA
ATOM      4  C   UNL     1      -4.391  45.862  25.802  0.00  0.00    +0.000 C 
ATOM      5  O   UNL     1      -4.154  44.674  25.636  0.00  0.00    +0.000 OA
ENDROOT
BRANCH   2   6
ATOM      6  C   UNL     1      -1.100  47.078  27.211  0.00  0.00    +0.000 C 
ATOM      7  C   UNL     1      -0.096  46.626  27.691  0.00  0.00    +0.000 C 
BRANCH   7   8
ATOM      8  C   UNL     1       1.097  46.089  28.259  0.00  0.00    +0.000 A 
ATOM      9  C   UNL     1       1.985  46.927  28.931  0.00  0.00    +0.000 A 
ATOM     10  C   UNL     1       3.159  46.418  29.494  0.00  0.00    +0.000 A 
ATOM     11  C   UNL     1       3.426  45.051  29.370  0.00  0.00    +0.000 A 
ATOM     12  C   UNL     1       2.539  44.210  28.698  0.00  0.00    +0.000 A 
ATOM     13  C   UNL     1       1.373  44.730  28.142  0.00  0.00    +0.000 A 
BRANCH  10  14
ATOM     14  O   UNL     1       4.078  47.181  30.170  0.00  0.00    +0.000 OA
ATOM     15  C   UNL     1       4.332  48.452  29.641  0.00  0.00    +0.000 C 
ENDBRANCH  10  14
BRANCH  11  16
ATOM     16  O   UNL     1       4.547  44.462  29.887  0.00  0.00    +0.000 OA
ATOM     17  H   UNL     1       4.422  44.253  30.828  0.00  0.00    +0.000 HD
ENDBRANCH  11  16
ENDBRANCH   7   8
ENDBRANCH   2   6
BRANCH   4  18
ATOM     18  C   UNL     1      -5.716  46.381  25.577  0.00  0.00    +0.000 C 
ATOM     19  C   UNL     1      -6.820  46.818  25.387  0.00  0.00    +0.000 C 
BRANCH  19  20
ATOM     20  C   UNL     1      -8.127  47.338  25.160  0.00  0.00    +0.000 A 
ATOM     21  C   UNL     1      -9.184  46.940  25.978  0.00  0.00    +0.000 A 
ATOM     22  C   UNL     1     -10.472  47.441  25.769  0.00  0.00    +0.000 A 
ATOM     23  C   UNL     1     -10.678  48.349  24.726  0.00  0.00    +0.000 A 
ATOM     24  C   UNL     1      -9.624  48.750  23.906  0.00  0.00    +0.000 A 
ATOM     25  C   UNL     1      -8.347  48.243  24.124  0.00  0.00    +0.000 A 
BRANCH  22  26
ATOM     26  O   UNL     1     -11.567  47.102  26.526  0.00  0.00    +0.000 OA
ATOM     27  C   UNL     1     -11.745  47.850  27.700  0.00  0.00    +0.000 C 
ENDBRANCH  22  26
BRANCH  23  28
ATOM     28  O   UNL     1     -11.931  48.850  24.505  0.00  0.00    +0.000 OA
ATOM     29  H   UNL     1     -12.064  48.947  23.545  0.00  0.00    +0.000 HD
ENDBRANCH  23  28
ENDBRANCH  19  20
ENDBRANCH   4  18
TORSDOF 8
ENDMDL
MODEL 3
REMARK VINA RESULT:      -6.6      1.513     11.588
REMARK  Name = Curcumin.pdbqt.pdb
REMARK  8 active torsions:
REMARK  status: ('A' for Active; 'I' for Inactive)
REMARK    1  A    between atoms: C_2  and  C_4
REMARK    2  A    between atoms: C_5  and  C_6
REMARK    3  A    between atoms: C_8  and  O_12
REMARK    4  A    between atoms: C_9  and  O_14
REMARK    5  A    between atoms: C_16  and  C_18
REMARK    6  A    between atoms: C_19  and  C_20
REMARK    7  A    between atoms: C_22  and  O_26
REMARK    8  A    between atoms: C_23  and  O_28
REMARK                            x       y       z     vdW  Elec       q    Type
REMARK                         _______ _______ _______ _____ _____    ______ ____
ROOT
ATOM      1  C   UNL     1      -3.404  46.727  26.503  0.00  0.00    +0.000 C 
ATOM      2  C   UNL     1      -2.362  47.633  26.856  0.00  0.00    +0.000 C 
ATOM      3  O   UNL     1      -2.450  48.810  26.540  0.00  0.00    +0.000 OA
ATOM      4  C   UNL     1      -4.445  45.822  26.146  0.00  0.00    +0.000 C 
ATOM      5  O   UNL     1      -4.237  44.617  26.173  0.00  0.00    +0.000 OA
ENDROOT
BRANCH   2   6
ATOM      6  C   UNL     1      -1.214  47.156  27.585  0.00  0.00    +0.000 C 
ATOM      7  C   UNL     1      -0.256  46.759  28.191  0.00  0.00    +0.000 C 
BRANCH   7   8
ATOM      8  C   UNL     1       0.882  46.289  28.912  0.00  0.00    +0.000 A 
ATOM      9  C   UNL     1       0.751  45.222  29.798  0.00  0.00    +0.000 A 
ATOM     10  C   UNL     1       1.856  44.748  30.513  0.00  0.00    +0.000 A 
ATOM     11  C   UNL     1       3.095  45.366  30.322  0.00  0.00    +0.000 A 
ATOM     12  C   UNL     1       3.229  46.435  29.436  0.00  0.00    +0.000 A 
ATOM     13  C   UNL     1       2.121  46.897  28.730  0.00  0.00    +0.000 A 
BRANCH  10  14
ATOM     14  O   UNL     1       1.803  43.702  31.400  0.00  0.00    +0.000 OA
ATOM     15  C   UNL     1       0.525  43.237  31.729  0.00  0.00    +0.000 C 
ENDBRANCH  10  14
BRANCH  11  16
ATOM     16  O   UNL     1       4.230  44.974  30.975  0.00  0.00    +0.000 OA
ATOM     17  H   UNL     1       4.191  45.225  31.913  0.00  0.00    +0.000 HD
ENDBRANCH  11  16
ENDBRANCH   7   8
ENDBRANCH   2   6
BRANCH   4  18
ATOM     18  C   UNL     1      -5.734  46.332  25.757  0.00  0.00    +0.000 C 
ATOM     19  C   UNL     1      -6.809  46.762  25.434  0.00  0.00    +0.000 C 
BRANCH  19  20
ATOM     20  C   UNL     1      -8.083  47.275  25.053  0.00  0.00    +0.000 A 
ATOM     21  C   UNL     1      -8.473  48.546  25.472  0.00  0.00    +0.000 A 
ATOM     22  C   UNL     1      -9.719  49.064  25.108  0.00  0.00    +0.000 A 
ATOM     23  C   UNL     1     -10.564  48.283  24.315  0.00  0.00    +0.000 A 
ATOM     24  C   UNL     1     -10.180  47.011  23.893  0.00  0.00    +0.000 A 
ATOM     25  C   UNL     1      -8.937  46.507  24.264  0.00  0.00    +0.000 A 
BRANCH  22  26
ATOM     26  O   UNL     1     -10.181  50.304  25.477  0.00  0.00    +0.000 OA
ATOM     27  C   UNL     1      -9.198  51.296  25.626  0.00  0.00    +0.000 C 
ENDBRANCH  22  26
BRANCH  23  28
ATOM     28  O   UNL     1     -11.788  48.771  23.948  0.00  0.00    +0.000 OA
ATOM     29  H   UNL     1     -12.365  48.022  23.712  0.00  0.00    +0.000 HD
ENDBRANCH  23  28
ENDBRANCH  19  20
ENDBRANCH   4  18
TORSDOF 8
ENDMDL
MODEL 4
REMARK VINA RESULT:      -6.6      2.455      2.984
REMARK  Name = Curcumin.pdbqt.pdb
REMARK  8 active torsions:
REMARK  status: ('A' for Active; 'I' for Inactive)
REMARK    1  A    between atoms: C_2  and  C_4
REMARK    2  A    between atoms: C_5  and  C_6
REMARK    3  A    between atoms: C_8  and  O_12
REMARK    4  A    between atoms: C_9  and  O_14
REMARK    5  A    between atoms: C_16  and  C_18
REMARK    6  A    between atoms: C_19  and  C_20
REMARK    7  A    between atoms: C_22  and  O_26
REMARK    8  A    between atoms: C_23  and  O_28
REMARK                            x       y       z     vdW  Elec       q    Type
REMARK                         _______ _______ _______ _____ _____    ______ ____
ROOT
ATOM      1  C   UNL     1      -4.354  45.734  27.710  0.00  0.00    +0.000 C 
ATOM      2  C   UNL     1      -5.690  45.291  27.934  0.00  0.00    +0.000 C 
ATOM      3  O   UNL     1      -5.901  44.380  28.721  0.00  0.00    +0.000 OA
ATOM      4  C   UNL     1      -3.017  46.173  27.484  0.00  0.00    +0.000 C 
ATOM      5  O   UNL     1      -2.758  46.846  26.496  0.00  0.00    +0.000 OA
ENDROOT
BRANCH   2   6
ATOM      6  C   UNL     1      -6.781  45.920  27.235  0.00  0.00    +0.000 C 
ATOM      7  C   UNL     1      -7.692  46.445  26.654  0.00  0.00    +0.000 C 
BRANCH   7   8
ATOM      8  C   UNL     1      -8.772  47.071  25.963  0.00  0.00    +0.000 A 
ATOM      9  C   UNL     1     -10.016  47.189  26.579  0.00  0.00    +0.000 A 
ATOM     10  C   UNL     1     -11.086  47.799  25.918  0.00  0.00    +0.000 A 
ATOM     11  C   UNL     1     -10.883  48.289  24.623  0.00  0.00    +0.000 A 
ATOM     12  C   UNL     1      -9.639  48.172  24.004  0.00  0.00    +0.000 A 
ATOM     13  C   UNL     1      -8.583  47.562  24.674  0.00  0.00    +0.000 A 
BRANCH  10  14
ATOM     14  O   UNL     1     -12.336  47.952  26.461  0.00  0.00    +0.000 OA
ATOM     15  C   UNL     1     -12.389  48.532  27.733  0.00  0.00    +0.000 C 
ENDBRANCH  10  14
BRANCH  11  16
ATOM     16  O   UNL     1     -11.868  48.900  23.898  0.00  0.00    +0.000 OA
ATOM     17  H   UNL     1     -12.686  48.968  24.418  0.00  0.00    +0.000 HD
ENDBRANCH  11  16
ENDBRANCH   7   8
ENDBRANCH   2   6
BRANCH   4  18
ATOM     18  C   UNL     1      -1.981  45.821  28.421  0.00  0.00    +0.000 C 
ATOM     19  C   UNL     1      -1.118  45.531  29.205  0.00  0.00    +0.000 C 
BRANCH  19  20
ATOM     20  C   UNL     1      -0.096  45.189  30.138  0.00  0.00    +0.000 A 
ATOM     21  C   UNL     1      -0.112  43.940  30.758  0.00  0.00    +0.000 A 
ATOM     22  C   UNL     1       0.882  43.589  31.675  0.00  0.00    +0.000 A 
ATOM     23  C   UNL     1       1.892  44.513  31.957  0.00  0.00    +0.000 A 
ATOM     24  C   UNL     1       1.913  45.763  31.340  0.00  0.00    +0.000 A 
ATOM     25  C   UNL     1       0.916  46.100  30.429  0.00  0.00    +0.000 A 
BRANCH  22  26
ATOM     26  O   UNL     1       0.941  42.382  32.330  0.00  0.00    +0.000 OA
ATOM     27  C   UNL     1      -0.294  41.856  32.741  0.00  0.00    +0.000 C 
ENDBRANCH  22  26
BRANCH  23  28
ATOM     28  O   UNL     1       2.874  44.188  32.852  0.00  0.00    +0.000 OA
ATOM     29  H   UNL     1       3.002  44.939  33.461  0.00  0.00    +0.000 HD
ENDBRANCH  23  28
ENDBRANCH  19  20
ENDBRANCH   4  18
TORSDOF 8
ENDMDL
MODEL 5
REMARK VINA RESULT:      -6.0      4.140     13.935
REMARK  Name = Curcumin.pdbqt.pdb
REMARK  8 active torsions:
REMARK  status: ('A' for Active; 'I' for Inactive)
REMARK    1  A    between atoms: C_2  and  C_4
REMARK    2  A    between atoms: C_5  and  C_6
REMARK    3  A    between atoms: C_8  and  O_12
REMARK    4  A    between atoms: C_9  and  O_14
REMARK    5  A    between atoms: C_16  and  C_18
REMARK    6  A    between atoms: C_19  and  C_20
REMARK    7  A    between atoms: C_22  and  O_26
REMARK    8  A    between atoms: C_23  and  O_28
REMARK                            x       y       z     vdW  Elec       q    Type
REMARK                         _______ _______ _______ _____ _____    ______ ____
ROOT
ATOM      1  C   UNL     1     -10.537  48.030  25.241  0.00  0.00    +0.000 C 
ATOM      2  C   UNL     1      -9.693  47.065  24.618  0.00  0.00    +0.000 C 
ATOM      3  O   UNL     1     -10.157  46.310  23.776  0.00  0.00    +0.000 OA
ATOM      4  C   UNL     1     -11.382  48.992  25.867  0.00  0.00    +0.000 C 
ATOM      5  O   UNL     1     -11.026  49.528  26.907  0.00  0.00    +0.000 OA
ENDROOT
BRANCH   2   6
ATOM      6  C   UNL     1      -8.301  46.989  24.981  0.00  0.00    +0.000 C 
ATOM      7  C   UNL     1      -7.140  46.925  25.282  0.00  0.00    +0.000 C 
BRANCH   7   8
ATOM      8  C   UNL     1      -5.761  46.851  25.640  0.00  0.00    +0.000 A 
ATOM      9  C   UNL     1      -5.123  47.966  26.182  0.00  0.00    +0.000 A 
ATOM     10  C   UNL     1      -3.773  47.911  26.540  0.00  0.00    +0.000 A 
ATOM     11  C   UNL     1      -3.074  46.716  26.343  0.00  0.00    +0.000 A 
ATOM     12  C   UNL     1      -3.709  45.600  25.801  0.00  0.00    +0.000 A 
ATOM     13  C   UNL     1      -5.055  45.668  25.449  0.00  0.00    +0.000 A 
BRANCH  10  14
ATOM     14  O   UNL     1      -3.080  48.966  27.079  0.00  0.00    +0.000 OA
ATOM     15  C   UNL     1      -3.785  50.169  27.201  0.00  0.00    +0.000 C 
ENDBRANCH  10  14
BRANCH  11  16
ATOM     16  O   UNL     1      -1.752  46.568  26.661  0.00  0.00    +0.000 OA
ATOM     17  H   UNL     1      -1.255  47.375  26.448  0.00  0.00    +0.000 HD
ENDBRANCH  11  16
ENDBRANCH   7   8
ENDBRANCH   2   6
BRANCH   4  18
ATOM     18  C   UNL     1     -12.650  49.326  25.270  0.00  0.00    +0.000 C 
ATOM     19  C   UNL     1     -13.707  49.610  24.773  0.00  0.00    +0.000 C 
BRANCH  19  20
ATOM     20  C   UNL     1     -14.960  49.949  24.185  0.00  0.00    +0.000 A 
ATOM     21  C   UNL     1     -16.104  49.227  24.524  0.00  0.00    +0.000 A 
ATOM     22  C   UNL     1     -17.340  49.547  23.957  0.00  0.00    +0.000 A 
ATOM     23  C   UNL     1     -17.407  50.604  23.044  0.00  0.00    +0.000 A 
ATOM     24  C   UNL     1     -16.266  51.328  22.701  0.00  0.00    +0.000 A 
ATOM     25  C   UNL     1     -15.041  50.999  23.273  0.00  0.00    +0.000 A 
BRANCH  22  26
ATOM     26  O   UNL     1     -18.514  48.889  24.235  0.00  0.00    +0.000 OA
ATOM     27  C   UNL     1     -18.812  48.735  25.598  0.00  0.00    +0.000 C 
ENDBRANCH  22  26
BRANCH  23  28
ATOM     28  O   UNL     1     -18.608  50.932  22.478  0.00  0.00    +0.000 OA
ATOM     29  H   UNL     1     -19.026  50.120  22.139  0.00  0.00    +0.000 HD
ENDBRANCH  23  28
ENDBRANCH  19  20
ENDBRANCH   4  18
TORSDOF 8
ENDMDL
MODEL 6
REMARK VINA RESULT:      -6.0      4.154     13.819
REMARK  Name = Curcumin.pdbqt.pdb
REMARK  8 active torsions:
REMARK  status: ('A' for Active; 'I' for Inactive)
REMARK    1  A    between atoms: C_2  and  C_4
REMARK    2  A    between atoms: C_5  and  C_6
REMARK    3  A    between atoms: C_8  and  O_12
REMARK    4  A    between atoms: C_9  and  O_14
REMARK    5  A    between atoms: C_16  and  C_18
REMARK    6  A    between atoms: C_19  and  C_20
REMARK    7  A    between atoms: C_22  and  O_26
REMARK    8  A    between atoms: C_23  and  O_28
REMARK                            x       y       z     vdW  Elec       q    Type
REMARK                         _______ _______ _______ _____ _____    ______ ____
ROOT
ATOM      1  C   UNL     1     -10.537  48.083  25.132  0.00  0.00    +0.000 C 
ATOM      2  C   UNL     1      -9.705  47.070  24.573  0.00  0.00    +0.000 C 
ATOM      3  O   UNL     1     -10.175  46.272  23.776  0.00  0.00    +0.000 OA
ATOM      4  C   UNL     1     -11.372  49.093  25.693  0.00  0.00    +0.000 C 
ATOM      5  O   UNL     1     -11.014  49.685  26.701  0.00  0.00    +0.000 OA
ENDROOT
BRANCH   2   6
ATOM      6  C   UNL     1      -8.316  46.995  24.949  0.00  0.00    +0.000 C 
ATOM      7  C   UNL     1      -7.158  46.933  25.261  0.00  0.00    +0.000 C 
BRANCH   7   8
ATOM      8  C   UNL     1      -5.782  46.861  25.632  0.00  0.00    +0.000 A 
ATOM      9  C   UNL     1      -5.152  47.975  26.181  0.00  0.00    +0.000 A 
ATOM     10  C   UNL     1      -3.804  47.923  26.552  0.00  0.00    +0.000 A 
ATOM     11  C   UNL     1      -3.101  46.729  26.360  0.00  0.00    +0.000 A 
ATOM     12  C   UNL     1      -3.730  45.613  25.810  0.00  0.00    +0.000 A 
ATOM     13  C   UNL     1      -5.072  45.679  25.446  0.00  0.00    +0.000 A 
BRANCH  10  14
ATOM     14  O   UNL     1      -3.118  48.978  27.099  0.00  0.00    +0.000 OA
ATOM     15  C   UNL     1      -3.847  50.159  27.282  0.00  0.00    +0.000 C 
ENDBRANCH  10  14
BRANCH  11  16
ATOM     16  O   UNL     1      -1.783  46.582  26.690  0.00  0.00    +0.000 OA
ATOM     17  H   UNL     1      -1.276  46.238  25.936  0.00  0.00    +0.000 HD
ENDBRANCH  11  16
ENDBRANCH   7   8
ENDBRANCH   2   6
BRANCH   4  18
ATOM     18  C   UNL     1     -12.631  49.409  25.068  0.00  0.00    +0.000 C 
ATOM     19  C   UNL     1     -13.680  49.677  24.547  0.00  0.00    +0.000 C 
BRANCH  19  20
ATOM     20  C   UNL     1     -14.924  49.998  23.929  0.00  0.00    +0.000 A 
ATOM     21  C   UNL     1     -14.977  50.993  22.953  0.00  0.00    +0.000 A 
ATOM     22  C   UNL     1     -16.189  51.320  22.338  0.00  0.00    +0.000 A 
ATOM     23  C   UNL     1     -17.343  50.631  22.719  0.00  0.00    +0.000 A 
ATOM     24  C   UNL     1     -17.295  49.635  23.694  0.00  0.00    +0.000 A 
ATOM     25  C   UNL     1     -16.082  49.320  24.300  0.00  0.00    +0.000 A 
BRANCH  22  26
ATOM     26  O   UNL     1     -16.330  52.285  21.370  0.00  0.00    +0.000 OA
ATOM     27  C   UNL     1     -15.457  52.176  20.276  0.00  0.00    +0.000 C 
ENDBRANCH  22  26
BRANCH  23  28
ATOM     28  O   UNL     1     -18.539  50.936  22.129  0.00  0.00    +0.000 OA
ATOM     29  H   UNL     1     -18.658  51.904  22.148  0.00  0.00    +0.000 HD
ENDBRANCH  23  28
ENDBRANCH  19  20
ENDBRANCH   4  18
TORSDOF 8
ENDMDL
MODEL 7
REMARK VINA RESULT:      -5.7      2.635      2.935
REMARK  Name = Curcumin.pdbqt.pdb
REMARK  8 active torsions:
REMARK  status: ('A' for Active; 'I' for Inactive)
REMARK    1  A    between atoms: C_2  and  C_4
REMARK    2  A    between atoms: C_5  and  C_6
REMARK    3  A    between atoms: C_8  and  O_12
REMARK    4  A    between atoms: C_9  and  O_14
REMARK    5  A    between atoms: C_16  and  C_18
REMARK    6  A    between atoms: C_19  and  C_20
REMARK    7  A    between atoms: C_22  and  O_26
REMARK    8  A    between atoms: C_23  and  O_28
REMARK                            x       y       z     vdW  Elec       q    Type
REMARK                         _______ _______ _______ _____ _____    ______ ____
ROOT
ATOM      1  C   UNL     1      -4.051  46.906  28.036  0.00  0.00    +0.000 C 
ATOM      2  C   UNL     1      -4.409  46.572  26.697  0.00  0.00    +0.000 C 
ATOM      3  O   UNL     1      -3.621  45.954  25.997  0.00  0.00    +0.000 OA
ATOM      4  C   UNL     1      -3.691  47.243  29.373  0.00  0.00    +0.000 C 
ATOM      5  O   UNL     1      -4.314  48.109  29.970  0.00  0.00    +0.000 OA
ENDROOT
BRANCH   2   6
ATOM      6  C   UNL     1      -5.696  46.963  26.180  0.00  0.00    +0.000 C 
ATOM      7  C   UNL     1      -6.768  47.290  25.750  0.00  0.00    +0.000 C 
BRANCH   7   8
ATOM      8  C   UNL     1      -8.042  47.679  25.236  0.00  0.00    +0.000 A 
ATOM      9  C   UNL     1      -8.391  49.027  25.190  0.00  0.00    +0.000 A 
ATOM     10  C   UNL     1      -9.634  49.425  24.690  0.00  0.00    +0.000 A 
ATOM     11  C   UNL     1     -10.522  48.444  24.237  0.00  0.00    +0.000 A 
ATOM     12  C   UNL     1     -10.175  47.094  24.282  0.00  0.00    +0.000 A 
ATOM     13  C   UNL     1      -8.933  46.711  24.783  0.00  0.00    +0.000 A 
BRANCH  10  14
ATOM     14  O   UNL     1     -10.046  50.732  24.613  0.00  0.00    +0.000 OA
ATOM     15  C   UNL     1     -10.180  51.409  25.830  0.00  0.00    +0.000 C 
ENDBRANCH  10  14
BRANCH  11  16
ATOM     16  O   UNL     1     -11.758  48.736  23.732  0.00  0.00    +0.000 OA
ATOM     17  H   UNL     1     -11.850  48.392  22.827  0.00  0.00    +0.000 HD
ENDBRANCH  11  16
ENDBRANCH   7   8
ENDBRANCH   2   6
BRANCH   4  18
ATOM     18  C   UNL     1      -2.595  46.560  30.011  0.00  0.00    +0.000 C 
ATOM     19  C   UNL     1      -1.683  45.989  30.547  0.00  0.00    +0.000 C 
BRANCH  19  20
ATOM     20  C   UNL     1      -0.604  45.311  31.186  0.00  0.00    +0.000 A 
ATOM     21  C   UNL     1       0.662  45.316  30.602  0.00  0.00    +0.000 A 
ATOM     22  C   UNL     1       1.730  44.656  31.215  0.00  0.00    +0.000 A 
ATOM     23  C   UNL     1       1.504  43.992  32.424  0.00  0.00    +0.000 A 
ATOM     24  C   UNL     1       0.240  43.984  33.012  0.00  0.00    +0.000 A 
ATOM     25  C   UNL     1      -0.815  44.645  32.391  0.00  0.00    +0.000 A 
BRANCH  22  26
ATOM     26  O   UNL     1       3.007  44.612  30.708  0.00  0.00    +0.000 OA
ATOM     27  C   UNL     1       3.632  45.856  30.534  0.00  0.00    +0.000 C 
ENDBRANCH  22  26
BRANCH  23  28
ATOM     28  O   UNL     1       2.537  43.340  33.039  0.00  0.00    +0.000 OA
ATOM     29  H   UNL     1       3.292  43.952  33.114  0.00  0.00    +0.000 HD
ENDBRANCH  23  28
ENDBRANCH  19  20
ENDBRANCH   4  18
TORSDOF 8
ENDMDL
MODEL 8
REMARK VINA RESULT:      -5.6      2.085     11.739
REMARK  Name = Curcumin.pdbqt.pdb
REMARK  8 active torsions:
REMARK  status: ('A' for Active; 'I' for Inactive)
REMARK    1  A    between atoms: C_2  and  C_4
REMARK    2  A    between atoms: C_5  and  C_6
REMARK    3  A    between atoms: C_8  and  O_12
REMARK    4  A    between atoms: C_9  and  O_14
REMARK    5  A    between atoms: C_16  and  C_18
REMARK    6  A    between atoms: C_19  and  C_20
REMARK    7  A    between atoms: C_22  and  O_26
REMARK    8  A    between atoms: C_23  and  O_28
REMARK                            x       y       z     vdW  Elec       q    Type
REMARK                         _______ _______ _______ _____ _____    ______ ____
ROOT
ATOM      1  C   UNL     1      -2.884  48.163  26.662  0.00  0.00    +0.000 C 
ATOM      2  C   UNL     1      -2.028  49.256  26.985  0.00  0.00    +0.000 C 
ATOM      3  O   UNL     1      -2.323  50.384  26.619  0.00  0.00    +0.000 OA
ATOM      4  C   UNL     1      -3.739  47.071  26.334  0.00  0.00    +0.000 C 
ATOM      5  O   UNL     1      -3.318  45.926  26.413  0.00  0.00    +0.000 OA
ENDROOT
BRANCH   2   6
ATOM      6  C   UNL     1      -0.825  49.024  27.743  0.00  0.00    +0.000 C 
ATOM      7  C   UNL     1       0.180  48.831  28.372  0.00  0.00    +0.000 C 
BRANCH   7   8
ATOM      8  C   UNL     1       1.372  48.604  29.122  0.00  0.00    +0.000 A 
ATOM      9  C   UNL     1       1.372  47.681  30.165  0.00  0.00    +0.000 A 
ATOM     10  C   UNL     1       2.531  47.445  30.910  0.00  0.00    +0.000 A 
ATOM     11  C   UNL     1       3.692  48.154  30.588  0.00  0.00    +0.000 A 
ATOM     12  C   UNL     1       3.696  49.079  29.544  0.00  0.00    +0.000 A 
ATOM     13  C   UNL     1       2.534  49.304  28.810  0.00  0.00    +0.000 A 
BRANCH  10  14
ATOM     14  O   UNL     1       2.606  46.551  31.949  0.00  0.00    +0.000 OA
ATOM     15  C   UNL     1       1.722  46.767  33.013  0.00  0.00    +0.000 C 
ENDBRANCH  10  14
BRANCH  11  16
ATOM     16  O   UNL     1       4.873  47.992  31.258  0.00  0.00    +0.000 OA
ATOM     17  H   UNL     1       5.415  48.796  31.198  0.00  0.00    +0.000 HD
ENDBRANCH  11  16
ENDBRANCH   7   8
ENDBRANCH   2   6
BRANCH   4  18
ATOM     18  C   UNL     1      -5.094  47.324  25.914  0.00  0.00    +0.000 C 
ATOM     19  C   UNL     1      -6.223  47.539  25.562  0.00  0.00    +0.000 C 
BRANCH  19  20
ATOM     20  C   UNL     1      -7.561  47.798  25.146  0.00  0.00    +0.000 A 
ATOM     21  C   UNL     1      -8.015  49.113  25.048  0.00  0.00    +0.000 A 
ATOM     22  C   UNL     1      -9.324  49.384  24.642  0.00  0.00    +0.000 A 
ATOM     23  C   UNL     1     -10.168  48.312  24.335  0.00  0.00    +0.000 A 
ATOM     24  C   UNL     1      -9.719  46.996  24.432  0.00  0.00    +0.000 A 
ATOM     25  C   UNL     1      -8.413  46.740  24.839  0.00  0.00    +0.000 A 
BRANCH  22  26
ATOM     26  O   UNL     1      -9.851  50.647  24.518  0.00  0.00    +0.000 OA
ATOM     27  C   UNL     1     -10.064  51.334  25.724  0.00  0.00    +0.000 C 
ENDBRANCH  22  26
BRANCH  23  28
ATOM     28  O   UNL     1     -11.453  48.557  23.936  0.00  0.00    +0.000 OA
ATOM     29  H   UNL     1     -11.562  49.516  23.806  0.00  0.00    +0.000 HD
ENDBRANCH  23  28
ENDBRANCH  19  20
ENDBRANCH   4  18
TORSDOF 8
ENDMDL
MODEL 9
REMARK VINA RESULT:      -5.5     16.633     20.486
REMARK  Name = Curcumin.pdbqt.pdb
REMARK  8 active torsions:
REMARK  status: ('A' for Active; 'I' for Inactive)
REMARK    1  A    between atoms: C_2  and  C_4
REMARK    2  A    between atoms: C_5  and  C_6
REMARK    3  A    between atoms: C_8  and  O_12
REMARK    4  A    between atoms: C_9  and  O_14
REMARK    5  A    between atoms: C_16  and  C_18
REMARK    6  A    between atoms: C_19  and  C_20
REMARK    7  A    between atoms: C_22  and  O_26
REMARK    8  A    between atoms: C_23  and  O_28
REMARK                            x       y       z     vdW  Elec       q    Type
REMARK                         _______ _______ _______ _____ _____    ______ ____
ROOT
ATOM      1  C   UNL     1       6.203  32.472  26.245  0.00  0.00    +0.000 C 
ATOM      2  C   UNL     1       7.442  31.921  25.806  0.00  0.00    +0.000 C 
ATOM      3  O   UNL     1       7.639  30.719  25.906  0.00  0.00    +0.000 OA
ATOM      4  C   UNL     1       4.965  33.021  26.688  0.00  0.00    +0.000 C 
ATOM      5  O   UNL     1       4.871  34.224  26.886  0.00  0.00    +0.000 OA
ENDROOT
BRANCH   2   6
ATOM      6  C   UNL     1       8.451  32.783  25.247  0.00  0.00    +0.000 C 
ATOM      7  C   UNL     1       9.294  33.501  24.779  0.00  0.00    +0.000 C 
BRANCH   7   8
ATOM      8  C   UNL     1      10.293  34.353  24.223  0.00  0.00    +0.000 A 
ATOM      9  C   UNL     1      11.381  34.747  24.998  0.00  0.00    +0.000 A 
ATOM     10  C   UNL     1      12.371  35.582  24.469  0.00  0.00    +0.000 A 
ATOM     11  C   UNL     1      12.246  36.016  23.146  0.00  0.00    +0.000 A 
ATOM     12  C   UNL     1      11.157  35.623  22.367  0.00  0.00    +0.000 A 
ATOM     13  C   UNL     1      10.180  34.791  22.907  0.00  0.00    +0.000 A 
BRANCH  10  14
ATOM     14  O   UNL     1      13.469  36.009  25.172  0.00  0.00    +0.000 OA
ATOM     15  C   UNL     1      13.242  37.012  26.121  0.00  0.00    +0.000 C 
ENDBRANCH  10  14
BRANCH  11  16
ATOM     16  O   UNL     1      13.161  36.833  22.542  0.00  0.00    +0.000 OA
ATOM     17  H   UNL     1      14.060  36.481  22.651  0.00  0.00    +0.000 HD
ENDBRANCH  11  16
ENDBRANCH   7   8
ENDBRANCH   2   6
BRANCH   4  18
ATOM     18  C   UNL     1       3.833  32.156  26.899  0.00  0.00    +0.000 C 
ATOM     19  C   UNL     1       2.886  31.435  27.071  0.00  0.00    +0.000 C 
BRANCH  19  20
ATOM     20  C   UNL     1       1.763  30.581  27.271  0.00  0.00    +0.000 A 
ATOM     21  C   UNL     1       1.925  29.366  27.935  0.00  0.00    +0.000 A 
ATOM     22  C   UNL     1       0.833  28.517  28.140  0.00  0.00    +0.000 A 
ATOM     23  C   UNL     1      -0.422  28.911  27.668  0.00  0.00    +0.000 A 
ATOM     24  C   UNL     1      -0.589  30.126  27.003  0.00  0.00    +0.000 A 
ATOM     25  C   UNL     1       0.506  30.961  26.806  0.00  0.00    +0.000 A 
BRANCH  22  26
ATOM     26  O   UNL     1       0.905  27.304  28.782  0.00  0.00    +0.000 OA
ATOM     27  C   UNL     1       1.263  27.359  30.138  0.00  0.00    +0.000 C 
ENDBRANCH  22  26
BRANCH  23  28
ATOM     28  O   UNL     1      -1.502  28.095  27.858  0.00  0.00    +0.000 OA
ATOM     29  H   UNL     1      -1.276  27.200  27.545  0.00  0.00    +0.000 HD
ENDBRANCH  23  28
ENDBRANCH  19  20
ENDBRANCH   4  18
TORSDOF 8
ENDMDL
