MODEL 1
REMARK VINA RESULT:      -9.8      0.000      0.000
REMARK  Name = Cyclosporin_A.pdbqt.pdb
REMARK  4 active torsions:
REMARK  status: ('A' for Active; 'I' for Inactive)
REMARK    1  A    between atoms: N_13  and  C_36
REMARK    2  A    between atoms: C_36  and  O_70
REMARK    3  A    between atoms: C_72  and  C_73
REMARK    4  A    between atoms: C_75  and  C_76
REMARK                            x       y       z     vdW  Elec       q    Type
REMARK                         _______ _______ _______ _____ _____    ______ ____
ROOT
ATOM      1  O   UNL     1      10.775  46.178  30.972  0.00  0.00    +0.000 OA
ATOM      2  O   UNL     1      12.843  49.161  27.347  0.00  0.00    +0.000 OA
ATOM      3  O   UNL     1       9.356  49.214  24.067  0.00  0.00    +0.000 OA
ATOM      4  O   UNL     1       7.807  42.523  29.616  0.00  0.00    +0.000 OA
ATOM      5  O   UNL     1      10.202  52.364  27.952  0.00  0.00    +0.000 OA
ATOM      6  O   UNL     1      -0.902  51.975  29.861  0.00  0.00    +0.000 OA
ATOM      7  O   UNL     1       6.389  45.579  34.059  0.00  0.00    +0.000 OA
ATOM      8  O   UNL     1      -0.272  47.092  29.706  0.00  0.00    +0.000 OA
ATOM      9  O   UNL     1       2.473  54.830  27.876  0.00  0.00    +0.000 OA
ATOM     10  O   UNL     1       2.252  45.415  32.479  0.00  0.00    +0.000 OA
ATOM     11  O   UNL     1       6.426  53.966  29.368  0.00  0.00    +0.000 OA
ATOM     12  N   UNL     1      11.541  47.939  28.097  0.00  0.00    +0.000 NA
ATOM     13  N   UNL     1       9.455  45.823  28.992  0.00  0.00    +0.000 NA
ATOM     14  N   UNL     1      10.882  49.449  25.314  0.00  0.00    +0.000 NA
ATOM     15  N   UNL     1       8.782  51.771  25.870  0.00  0.00    +0.000 NA
ATOM     16  N   UNL     1       6.976  44.670  30.420  0.00  0.00    +0.000 NA
ATOM     17  N   UNL     1       0.382  51.616  27.920  0.00  0.00    +0.000 N 
ATOM     18  N   UNL     1       1.053  49.005  29.458  0.00  0.00    +0.000 N 
ATOM     19  N   UNL     1       2.030  46.969  31.285  0.00  0.00    +0.000 NA
ATOM     20  N   UNL     1       5.648  46.727  32.241  0.00  0.00    +0.000 NA
ATOM     21  N   UNL     1       6.680  51.924  27.979  0.00  0.00    +0.000 NA
ATOM     22  N   UNL     1       3.263  52.630  28.482  0.00  0.00    +0.000 NA
ATOM     23  C   UNL     1      11.219  47.656  29.392  0.00  0.00    +0.000 C 
ATOM     24  C   UNL     1      10.640  48.594  26.312  0.00  0.00    +0.000 C 
ATOM     25  C   UNL     1       9.168  44.491  29.222  0.00  0.00    +0.000 C 
ATOM     26  C   UNL     1      12.060  47.916  30.459  0.00  0.00    +0.000 C 
ATOM     27  C   UNL     1      10.402  47.398  25.472  0.00  0.00    +0.000 C 
ATOM     28  C   UNL     1      10.420  46.568  29.677  0.00  0.00    +0.000 C 
ATOM     29  C   UNL     1      11.578  48.993  27.203  0.00  0.00    +0.000 C 
ATOM     30  C   UNL     1       9.862  51.268  25.338  0.00  0.00    +0.000 C 
ATOM     31  C   UNL     1       9.659  49.942  25.100  0.00  0.00    +0.000 C 
ATOM     32  C   UNL     1       7.806  43.959  29.527  0.00  0.00    +0.000 C 
ATOM     33  C   UNL     1      13.225  48.359  29.760  0.00  0.00    +0.000 C 
ATOM     34  C   UNL     1      11.901  46.891  31.332  0.00  0.00    +0.000 C 
ATOM     35  C   UNL     1      12.772  48.456  28.453  0.00  0.00    +0.000 C 
ATOM     36  C   UNL     1      10.600  48.566  24.236  0.00  0.00    +0.000 C 
ATOM     37  C   UNL     1       6.949  44.498  31.827  0.00  0.00    +0.000 C 
ATOM     38  C   UNL     1       0.183  49.994  29.843  0.00  0.00    +0.000 A 
ATOM     39  C   UNL     1       9.218  51.760  27.125  0.00  0.00    +0.000 C 
ATOM     40  C   UNL     1       0.996  52.889  27.809  0.00  0.00    +0.000 C 
ATOM     41  C   UNL     1       1.656  46.636  30.027  0.00  0.00    +0.000 C 
ATOM     42  C   UNL     1       8.997  53.007  25.075  0.00  0.00    +0.000 C 
ATOM     43  C   UNL     1      -0.626  50.085  31.016  0.00  0.00    +0.000 A 
ATOM     44  C   UNL     1      -0.348  53.777  26.979  0.00  0.00    +0.000 C 
ATOM     45  C   UNL     1       7.976  51.946  27.930  0.00  0.00    +0.000 C 
ATOM     46  C   UNL     1       0.351  45.908  30.209  0.00  0.00    +0.000 C 
ATOM     47  C   UNL     1       7.617  43.316  32.268  0.00  0.00    +0.000 C 
ATOM     48  C   UNL     1      -0.041  51.177  29.146  0.00  0.00    +0.000 A 
ATOM     49  C   UNL     1       6.406  45.452  32.624  0.00  0.00    +0.000 C 
ATOM     50  C   UNL     1       0.869  47.724  29.687  0.00  0.00    +0.000 C 
ATOM     51  C   UNL     1       2.217  53.449  28.101  0.00  0.00    +0.000 C 
ATOM     52  C   UNL     1       4.308  46.391  31.753  0.00  0.00    +0.000 C 
ATOM     53  C   UNL     1      -0.728  49.130  32.176  0.00  0.00    +0.000 C 
ATOM     54  C   UNL     1      -1.258  51.301  30.988  0.00  0.00    +0.000 A 
ATOM     55  C   UNL     1       2.980  45.995  31.450  0.00  0.00    +0.000 C 
ATOM     56  C   UNL     1       4.458  53.027  28.776  0.00  0.00    +0.000 C 
ATOM     57  C   UNL     1       9.101  52.434  28.538  0.00  0.00    +0.000 C 
ATOM     58  C   UNL     1      -0.473  52.444  27.278  0.00  0.00    +0.000 C 
ATOM     59  C   UNL     1       8.266  42.382  31.892  0.00  0.00    +0.000 C 
ATOM     60  C   UNL     1       5.953  52.809  28.645  0.00  0.00    +0.000 C 
ATOM     61  C   UNL     1       1.014  46.091  32.092  0.00  0.00    +0.000 C 
ATOM     62  C   UNL     1       5.816  46.543  33.537  0.00  0.00    +0.000 C 
ATOM     63  C   UNL     1       5.185  54.009  29.364  0.00  0.00    +0.000 C 
ATOM     64  H   UNL     1       6.975  45.668  30.209  0.00  0.00    +0.000 HD
ATOM     65  H   UNL     1       1.983  49.309  29.182  0.00  0.00    +0.000 HD
ATOM     66  H   UNL     1       6.198  51.361  27.282  0.00  0.00    +0.000 HD
ATOM     67  H   UNL     1       3.120  51.678  28.157  0.00  0.00    +0.000 HD
ATOM     68  C   UNL     1      10.079  43.625  29.573  0.00  0.00    +0.000 C 
ATOM     69  C   UNL     1      10.106  42.367  30.237  0.00  0.00    +0.000 C 
ATOM     70  C   UNL     1       8.723  41.989  30.592  0.00  0.00    +0.000 C 
ATOM     71  C   UNL     1      11.279  46.213  24.682  0.00  0.00    +0.000 C 
ATOM     72  C   UNL     1      10.943  44.931  24.550  0.00  0.00    +0.000 C 
ATOM     73  C   UNL     1      11.092  47.363  23.911  0.00  0.00    +0.000 C 
ATOM     74  C   UNL     1      10.109  52.391  24.422  0.00  0.00    +0.000 C 
ATOM     75  C   UNL     1      10.208  53.762  24.612  0.00  0.00    +0.000 C 
ATOM     76  C   UNL     1      10.211  54.740  23.418  0.00  0.00    +0.000 C 
ATOM     77  C   UNL     1       9.383  54.216  25.623  0.00  0.00    +0.000 C 
ATOM     78  C   UNL     1      -0.290  44.484  30.556  0.00  0.00    +0.000 C 
ATOM     79  C   UNL     1      -1.422  43.861  30.237  0.00  0.00    +0.000 C 
ATOM     80  C   UNL     1       0.250  45.018  31.727  0.00  0.00    +0.000 C 
ATOM     81  C   UNL     1       0.068  55.036  26.826  0.00  0.00    +0.000 C 
ATOM     82  C   UNL     1      -0.772  56.078  26.166  0.00  0.00    +0.000 C 
ATOM     83  C   UNL     1       1.372  55.316  27.303  0.00  0.00    +0.000 C 
ENDROOT
BRANCH  69  84
ATOM     84  C   UNL     1      11.238  41.766  30.836  0.00  0.00    +0.000 C 
ATOM     85  C   UNL     1      12.200  41.251  31.338  0.00  0.00    +0.000 C 
BRANCH  85  86
ATOM     86  C   UNL     1      13.427  40.591  31.975  0.00  0.00    +0.000 C 
ATOM     87  C   UNL     1      14.496  40.015  32.524  0.00  0.00    +0.000 C 
ENDBRANCH  85  86
ENDBRANCH  69  84
BRANCH  13  88
ATOM     88  C   UNL     1       8.506  46.571  28.184  0.00  0.00    +0.000 C 
BRANCH  88  89
ATOM     89  O   UNL     1       7.623  47.237  27.452  0.00  0.00    +0.000 OA
ATOM     90  H   UNL     1       7.090  47.819  28.022  0.00  0.00    +0.000 HD
ENDBRANCH  88  89
ENDBRANCH  13  88
TORSDOF 4
ENDMDL
MODEL 2
REMARK VINA RESULT:      -9.5      7.636     15.373
REMARK  Name = Cyclosporin_A.pdbqt.pdb
REMARK  4 active torsions:
REMARK  status: ('A' for Active; 'I' for Inactive)
REMARK    1  A    between atoms: N_13  and  C_36
REMARK    2  A    between atoms: C_36  and  O_70
REMARK    3  A    between atoms: C_72  and  C_73
REMARK    4  A    between atoms: C_75  and  C_76
REMARK                            x       y       z     vdW  Elec       q    Type
REMARK                         _______ _______ _______ _____ _____    ______ ____
ROOT
ATOM      1  O   UNL     1      -8.211  50.236  30.571  0.00  0.00    +0.000 OA
ATOM      2  O   UNL     1      -3.965  47.432  31.215  0.00  0.00    +0.000 OA
ATOM      3  O   UNL     1      -2.086  47.540  26.813  0.00  0.00    +0.000 OA
ATOM      4  O   UNL     1     -10.532  50.056  26.259  0.00  0.00    +0.000 OA
ATOM      5  O   UNL     1      -1.319  50.652  30.744  0.00  0.00    +0.000 OA
ATOM      6  O   UNL     1      -1.907  59.128  23.332  0.00  0.00    +0.000 OA
ATOM      7  O   UNL     1      -9.981  55.005  28.767  0.00  0.00    +0.000 OA
ATOM      8  O   UNL     1      -6.109  56.972  21.929  0.00  0.00    +0.000 OA
ATOM      9  O   UNL     1       1.339  56.523  25.814  0.00  0.00    +0.000 OA
ATOM     10  O   UNL     1      -9.087  56.614  24.735  0.00  0.00    +0.000 OA
ATOM     11  O   UNL     1      -0.392  54.632  29.282  0.00  0.00    +0.000 OA
ATOM     12  N   UNL     1      -5.314  48.386  30.205  0.00  0.00    +0.000 NA
ATOM     13  N   UNL     1      -7.462  49.655  28.360  0.00  0.00    +0.000 NA
ATOM     14  N   UNL     1      -2.592  47.452  28.730  0.00  0.00    +0.000 NA
ATOM     15  N   UNL     1      -0.720  49.988  28.314  0.00  0.00    +0.000 NA
ATOM     16  N   UNL     1      -9.013  51.864  26.867  0.00  0.00    +0.000 NA
ATOM     17  N   UNL     1      -1.343  56.854  23.093  0.00  0.00    +0.000 N 
ATOM     18  N   UNL     1      -4.408  56.573  23.487  0.00  0.00    +0.000 N 
ATOM     19  N   UNL     1      -7.136  56.477  24.481  0.00  0.00    +0.000 NA
ATOM     20  N   UNL     1      -8.042  54.654  27.630  0.00  0.00    +0.000 NA
ATOM     21  N   UNL     1      -1.496  52.846  27.958  0.00  0.00    +0.000 NA
ATOM     22  N   UNL     1      -0.919  55.673  25.934  0.00  0.00    +0.000 NA
ATOM     23  C   UNL     1      -6.177  49.375  30.575  0.00  0.00    +0.000 C 
ATOM     24  C   UNL     1      -3.810  47.998  28.786  0.00  0.00    +0.000 C 
ATOM     25  C   UNL     1      -8.714  49.552  27.783  0.00  0.00    +0.000 C 
ATOM     26  C   UNL     1      -6.530  49.626  31.888  0.00  0.00    +0.000 C 
ATOM     27  C   UNL     1      -4.420  47.188  27.706  0.00  0.00    +0.000 C 
ATOM     28  C   UNL     1      -7.212  49.729  29.734  0.00  0.00    +0.000 C 
ATOM     29  C   UNL     1      -3.961  48.112  30.126  0.00  0.00    +0.000 C 
ATOM     30  C   UNL     1      -0.961  48.750  28.646  0.00  0.00    +0.000 C 
ATOM     31  C   UNL     1      -1.983  48.279  27.876  0.00  0.00    +0.000 C 
ATOM     32  C   UNL     1      -9.241  50.478  26.736  0.00  0.00    +0.000 C 
ATOM     33  C   UNL     1      -5.873  48.536  32.538  0.00  0.00    +0.000 C 
ATOM     34  C   UNL     1      -7.840  49.975  31.875  0.00  0.00    +0.000 C 
ATOM     35  C   UNL     1      -5.117  47.987  31.513  0.00  0.00    +0.000 C 
ATOM     36  C   UNL     1      -2.810  46.616  27.601  0.00  0.00    +0.000 C 
ATOM     37  C   UNL     1      -9.853  52.771  27.560  0.00  0.00    +0.000 C 
ATOM     38  C   UNL     1      -3.686  57.736  23.410  0.00  0.00    +0.000 A 
ATOM     39  C   UNL     1      -1.374  50.543  29.329  0.00  0.00    +0.000 C 
ATOM     40  C   UNL     1      -0.221  56.802  23.958  0.00  0.00    +0.000 C 
ATOM     41  C   UNL     1      -6.783  55.764  23.384  0.00  0.00    +0.000 C 
ATOM     42  C   UNL     1       0.732  49.726  28.490  0.00  0.00    +0.000 C 
ATOM     43  C   UNL     1      -4.135  59.090  23.484  0.00  0.00    +0.000 A 
ATOM     44  C   UNL     1       1.042  57.426  22.818  0.00  0.00    +0.000 C 
ATOM     45  C   UNL     1      -1.533  51.965  28.910  0.00  0.00    +0.000 C 
ATOM     46  C   UNL     1      -7.422  56.503  22.240  0.00  0.00    +0.000 C 
ATOM     47  C   UNL     1     -11.138  52.232  27.870  0.00  0.00    +0.000 C 
ATOM     48  C   UNL     1      -2.302  57.812  23.291  0.00  0.00    +0.000 A 
ATOM     49  C   UNL     1      -9.384  53.985  27.942  0.00  0.00    +0.000 C 
ATOM     50  C   UNL     1      -5.621  56.419  23.006  0.00  0.00    +0.000 C 
ATOM     51  C   UNL     1       0.045  56.380  25.240  0.00  0.00    +0.000 C 
ATOM     52  C   UNL     1      -8.010  55.097  26.234  0.00  0.00    +0.000 C 
ATOM     53  C   UNL     1      -5.528  59.619  23.697  0.00  0.00    +0.000 C 
ATOM     54  C   UNL     1      -3.026  59.896  23.440  0.00  0.00    +0.000 A 
ATOM     55  C   UNL     1      -8.122  55.635  24.926  0.00  0.00    +0.000 C 
ATOM     56  C   UNL     1      -0.793  55.216  27.137  0.00  0.00    +0.000 C 
ATOM     57  C   UNL     1      -1.478  51.797  30.267  0.00  0.00    +0.000 C 
ATOM     58  C   UNL     1      -0.255  57.264  22.402  0.00  0.00    +0.000 C 
ATOM     59  C   UNL     1     -11.804  51.238  27.807  0.00  0.00    +0.000 C 
ATOM     60  C   UNL     1      -1.010  54.069  28.105  0.00  0.00    +0.000 C 
ATOM     61  C   UNL     1      -8.233  57.395  23.842  0.00  0.00    +0.000 C 
ATOM     62  C   UNL     1      -8.851  55.354  28.403  0.00  0.00    +0.000 C 
ATOM     63  C   UNL     1      -0.275  55.462  28.365  0.00  0.00    +0.000 C 
ATOM     64  H   UNL     1      -8.042  52.057  27.116  0.00  0.00    +0.000 HD
ATOM     65  H   UNL     1      -4.066  55.876  24.144  0.00  0.00    +0.000 HD
ATOM     66  H   UNL     1      -1.611  52.505  27.006  0.00  0.00    +0.000 HD
ATOM     67  H   UNL     1      -1.575  55.230  25.298  0.00  0.00    +0.000 HD
ATOM     68  C   UNL     1      -9.695  48.898  28.342  0.00  0.00    +0.000 C 
ATOM     69  C   UNL     1     -11.116  48.906  28.267  0.00  0.00    +0.000 C 
ATOM     70  C   UNL     1     -11.533  49.930  27.288  0.00  0.00    +0.000 C 
ATOM     71  C   UNL     1      -5.114  45.681  27.493  0.00  0.00    +0.000 C 
ATOM     72  C   UNL     1      -6.141  45.384  26.698  0.00  0.00    +0.000 C 
ATOM     73  C   UNL     1      -3.723  45.671  27.349  0.00  0.00    +0.000 C 
ATOM     74  C   UNL     1       0.449  48.347  28.737  0.00  0.00    +0.000 C 
ATOM     75  C   UNL     1       1.540  48.869  29.418  0.00  0.00    +0.000 C 
ATOM     76  C   UNL     1       2.977  48.391  29.121  0.00  0.00    +0.000 C 
ATOM     77  C   UNL     1       1.487  50.246  29.524  0.00  0.00    +0.000 C 
ATOM     78  C   UNL     1      -8.791  56.683  21.429  0.00  0.00    +0.000 C 
ATOM     79  C   UNL     1      -9.103  57.006  20.177  0.00  0.00    +0.000 C 
ATOM     80  C   UNL     1      -8.938  57.295  22.675  0.00  0.00    +0.000 C 
ATOM     81  C   UNL     1       2.184  57.470  23.508  0.00  0.00    +0.000 C 
ATOM     82  C   UNL     1       3.466  57.929  22.896  0.00  0.00    +0.000 C 
ATOM     83  C   UNL     1       2.112  57.026  24.851  0.00  0.00    +0.000 C 
ENDROOT
BRANCH  69  84
ATOM     84  C   UNL     1     -12.003  48.362  29.226  0.00  0.00    +0.000 C 
ATOM     85  C   UNL     1     -12.760  47.907  30.040  0.00  0.00    +0.000 C 
BRANCH  85  86
ATOM     86  C   UNL     1     -13.727  47.332  31.080  0.00  0.00    +0.000 C 
ATOM     87  C   UNL     1     -14.568  46.836  31.986  0.00  0.00    +0.000 C 
ENDBRANCH  85  86
ENDBRANCH  69  84
BRANCH  13  88
ATOM     88  C   UNL     1      -6.356  49.987  27.477  0.00  0.00    +0.000 C 
BRANCH  88  89
ATOM     89  O   UNL     1      -5.337  50.267  26.676  0.00  0.00    +0.000 OA
ATOM     90  H   UNL     1      -4.530  50.411  27.202  0.00  0.00    +0.000 HD
ENDBRANCH  88  89
ENDBRANCH  13  88
TORSDOF 4
ENDMDL
MODEL 3
REMARK VINA RESULT:      -9.3     32.981     37.165
REMARK  Name = Cyclosporin_A.pdbqt.pdb
REMARK  4 active torsions:
REMARK  status: ('A' for Active; 'I' for Inactive)
REMARK    1  A    between atoms: N_13  and  C_36
REMARK    2  A    between atoms: C_36  and  O_70
REMARK    3  A    between atoms: C_72  and  C_73
REMARK    4  A    between atoms: C_75  and  C_76
REMARK                            x       y       z     vdW  Elec       q    Type
REMARK                         _______ _______ _______ _____ _____    ______ ____
ROOT
ATOM      1  O   UNL     1     -20.360  37.650   2.750  0.00  0.00    +0.000 OA
ATOM      2  O   UNL     1     -19.224  42.381   1.125  0.00  0.00    +0.000 OA
ATOM      3  O   UNL     1     -14.989  43.111   3.233  0.00  0.00    +0.000 OA
ATOM      4  O   UNL     1     -18.901  36.272   7.219  0.00  0.00    +0.000 OA
ATOM      5  O   UNL     1     -16.047  41.176  -1.334  0.00  0.00    +0.000 OA
ATOM      6  O   UNL     1      -8.123  33.448   0.808  0.00  0.00    +0.000 OA
ATOM      7  O   UNL     1     -18.422  32.621   3.032  0.00  0.00    +0.000 OA
ATOM      8  O   UNL     1     -10.575  32.802   5.032  0.00  0.00    +0.000 OA
ATOM      9  O   UNL     1      -8.796  37.550  -1.681  0.00  0.00    +0.000 OA
ATOM     10  O   UNL     1     -14.488  31.579   4.787  0.00  0.00    +0.000 OA
ATOM     11  O   UNL     1     -12.969  38.328  -2.450  0.00  0.00    +0.000 OA
ATOM     12  N   UNL     1     -19.008  40.784   2.198  0.00  0.00    +0.000 NA
ATOM     13  N   UNL     1     -18.593  38.434   4.181  0.00  0.00    +0.000 NA
ATOM     14  N   UNL     1     -16.655  43.003   2.161  0.00  0.00    +0.000 NA
ATOM     15  N   UNL     1     -14.253  41.932   0.373  0.00  0.00    +0.000 NA
ATOM     16  N   UNL     1     -17.696  35.660   5.189  0.00  0.00    +0.000 NA
ATOM     17  N   UNL     1      -8.463  35.630   1.622  0.00  0.00    +0.000 N 
ATOM     18  N   UNL     1     -10.742  34.167   3.137  0.00  0.00    +0.000 N 
ATOM     19  N   UNL     1     -13.154  32.771   3.956  0.00  0.00    +0.000 NA
ATOM     20  N   UNL     1     -16.569  33.937   2.937  0.00  0.00    +0.000 NA
ATOM     21  N   UNL     1     -13.414  39.116  -0.138  0.00  0.00    +0.000 NA
ATOM     22  N   UNL     1     -10.599  36.995  -0.173  0.00  0.00    +0.000 NA
ATOM     23  C   UNL     1     -19.426  39.502   1.990  0.00  0.00    +0.000 C 
ATOM     24  C   UNL     1     -17.244  41.872   2.561  0.00  0.00    +0.000 C 
ATOM     25  C   UNL     1     -19.011  37.787   5.328  0.00  0.00    +0.000 C 
ATOM     26  C   UNL     1     -20.454  39.166   1.128  0.00  0.00    +0.000 C 
ATOM     27  C   UNL     1     -17.184  42.142   4.015  0.00  0.00    +0.000 C 
ATOM     28  C   UNL     1     -19.356  38.585   3.019  0.00  0.00    +0.000 C 
ATOM     29  C   UNL     1     -18.217  41.764   1.626  0.00  0.00    +0.000 C 
ATOM     30  C   UNL     1     -15.097  42.838   0.783  0.00  0.00    +0.000 C 
ATOM     31  C   UNL     1     -15.378  42.614   2.098  0.00  0.00    +0.000 C 
ATOM     32  C   UNL     1     -18.270  36.671   5.989  0.00  0.00    +0.000 C 
ATOM     33  C   UNL     1     -20.903  40.470   0.753  0.00  0.00    +0.000 C 
ATOM     34  C   UNL     1     -21.126  38.143   1.710  0.00  0.00    +0.000 C 
ATOM     35  C   UNL     1     -19.936  41.293   1.309  0.00  0.00    +0.000 C 
ATOM     36  C   UNL     1     -16.327  43.511   3.447  0.00  0.00    +0.000 C 
ATOM     37  C   UNL     1     -18.353  34.476   4.770  0.00  0.00    +0.000 C 
ATOM     38  C   UNL     1      -9.803  33.606   2.310  0.00  0.00    +0.000 A 
ATOM     39  C   UNL     1     -15.149  41.161  -0.234  0.00  0.00    +0.000 C 
ATOM     40  C   UNL     1      -8.383  36.348   0.402  0.00  0.00    +0.000 C 
ATOM     41  C   UNL     1     -12.448  33.500   4.854  0.00  0.00    +0.000 C 
ATOM     42  C   UNL     1     -13.572  42.972  -0.441  0.00  0.00    +0.000 C 
ATOM     43  C   UNL     1      -9.623  32.239   1.937  0.00  0.00    +0.000 A 
ATOM     44  C   UNL     1      -6.580  36.479   0.272  0.00  0.00    +0.000 C 
ATOM     45  C   UNL     1     -14.424  39.874  -0.438  0.00  0.00    +0.000 C 
ATOM     46  C   UNL     1     -11.780  32.470   5.724  0.00  0.00    +0.000 C 
ATOM     47  C   UNL     1     -19.567  34.218   5.476  0.00  0.00    +0.000 C 
ATOM     48  C   UNL     1      -8.834  34.312   1.605  0.00  0.00    +0.000 A 
ATOM     49  C   UNL     1     -17.869  33.755   3.728  0.00  0.00    +0.000 C 
ATOM     50  C   UNL     1     -11.221  33.590   4.216  0.00  0.00    +0.000 C 
ATOM     51  C   UNL     1      -9.258  36.914  -0.496  0.00  0.00    +0.000 C 
ATOM     52  C   UNL     1     -15.422  33.516   3.745  0.00  0.00    +0.000 C 
ATOM     53  C   UNL     1     -10.435  31.033   2.327  0.00  0.00    +0.000 C 
ATOM     54  C   UNL     1      -8.602  32.192   1.023  0.00  0.00    +0.000 A 
ATOM     55  C   UNL     1     -14.389  32.938   4.528  0.00  0.00    +0.000 C 
ATOM     56  C   UNL     1     -11.521  37.507  -0.922  0.00  0.00    +0.000 C 
ATOM     57  C   UNL     1     -15.387  40.115  -1.380  0.00  0.00    +0.000 C 
ATOM     58  C   UNL     1      -7.159  35.865   1.353  0.00  0.00    +0.000 C 
ATOM     59  C   UNL     1     -20.310  34.664   6.303  0.00  0.00    +0.000 C 
ATOM     60  C   UNL     1     -12.754  38.384  -1.023  0.00  0.00    +0.000 C 
ATOM     61  C   UNL     1     -13.050  31.364   4.637  0.00  0.00    +0.000 C 
ATOM     62  C   UNL     1     -17.340  32.947   2.529  0.00  0.00    +0.000 C 
ATOM     63  C   UNL     1     -11.953  37.659  -2.197  0.00  0.00    +0.000 C 
ATOM     64  H   UNL     1     -17.193  36.057   4.395  0.00  0.00    +0.000 HD
ATOM     65  H   UNL     1     -11.244  34.970   2.766  0.00  0.00    +0.000 HD
ATOM     66  H   UNL     1     -12.959  39.283   0.756  0.00  0.00    +0.000 HD
ATOM     67  H   UNL     1     -10.736  36.960   0.833  0.00  0.00    +0.000 HD
ATOM     68  C   UNL     1     -20.251  37.808   5.736  0.00  0.00    +0.000 C 
ATOM     69  C   UNL     1     -21.078  37.002   6.567  0.00  0.00    +0.000 C 
ATOM     70  C   UNL     1     -20.278  35.870   7.077  0.00  0.00    +0.000 C 
ATOM     71  C   UNL     1     -18.035  42.988   5.181  0.00  0.00    +0.000 C 
ATOM     72  C   UNL     1     -18.237  42.616   6.444  0.00  0.00    +0.000 C 
ATOM     73  C   UNL     1     -17.077  43.768   4.526  0.00  0.00    +0.000 C 
ATOM     74  C   UNL     1     -14.437  43.966   0.112  0.00  0.00    +0.000 C 
ATOM     75  C   UNL     1     -14.033  44.181  -1.199  0.00  0.00    +0.000 C 
ATOM     76  C   UNL     1     -13.116  45.366  -1.573  0.00  0.00    +0.000 C 
ATOM     77  C   UNL     1     -13.620  43.019  -1.822  0.00  0.00    +0.000 C 
ATOM     78  C   UNL     1     -12.003  31.513   6.987  0.00  0.00    +0.000 C 
ATOM     79  C   UNL     1     -11.214  31.005   7.930  0.00  0.00    +0.000 C 
ATOM     80  C   UNL     1     -12.721  30.991   5.910  0.00  0.00    +0.000 C 
ATOM     81  C   UNL     1      -6.329  37.119  -0.872  0.00  0.00    +0.000 C 
ATOM     82  C   UNL     1      -4.940  37.425  -1.326  0.00  0.00    +0.000 C 
ATOM     83  C   UNL     1      -7.465  37.517  -1.619  0.00  0.00    +0.000 C 
ENDROOT
BRANCH  69  84
ATOM     84  C   UNL     1     -22.492  37.005   6.589  0.00  0.00    +0.000 C 
ATOM     85  C   UNL     1     -23.693  37.013   6.600  0.00  0.00    +0.000 C 
BRANCH  85  86
ATOM     86  C   UNL     1     -25.226  37.027   6.612  0.00  0.00    +0.000 C 
ATOM     87  C   UNL     1     -26.557  37.033   6.622  0.00  0.00    +0.000 C 
ENDBRANCH  85  86
ENDBRANCH  69  84
BRANCH  13  88
ATOM     88  C   UNL     1     -17.174  38.732   4.074  0.00  0.00    +0.000 C 
BRANCH  88  89
ATOM     89  O   UNL     1     -15.882  39.018   3.997  0.00  0.00    +0.000 OA
ATOM     90  H   UNL     1     -15.653  39.284   3.089  0.00  0.00    +0.000 HD
ENDBRANCH  88  89
ENDBRANCH  13  88
TORSDOF 4
ENDMDL
MODEL 4
REMARK VINA RESULT:      -9.1     24.758     29.682
REMARK  Name = Cyclosporin_A.pdbqt.pdb
REMARK  4 active torsions:
REMARK  status: ('A' for Active; 'I' for Inactive)
REMARK    1  A    between atoms: N_13  and  C_36
REMARK    2  A    between atoms: C_36  and  O_70
REMARK    3  A    between atoms: C_72  and  C_73
REMARK    4  A    between atoms: C_75  and  C_76
REMARK                            x       y       z     vdW  Elec       q    Type
REMARK                         _______ _______ _______ _____ _____    ______ ____
ROOT
ATOM      1  O   UNL     1       0.522  23.891  14.977  0.00  0.00    +0.000 OA
ATOM      2  O   UNL     1       0.811  24.502  20.062  0.00  0.00    +0.000 OA
ATOM      3  O   UNL     1      -2.431  27.950  20.784  0.00  0.00    +0.000 OA
ATOM      4  O   UNL     1      -0.454  27.793  12.180  0.00  0.00    +0.000 OA
ATOM      5  O   UNL     1      -2.990  22.909  20.843  0.00  0.00    +0.000 OA
ATOM      6  O   UNL     1     -12.545  24.536  15.086  0.00  0.00    +0.000 OA
ATOM      7  O   UNL     1      -2.948  22.959  10.950  0.00  0.00    +0.000 OA
ATOM      8  O   UNL     1      -9.720  27.252  12.102  0.00  0.00    +0.000 OA
ATOM      9  O   UNL     1     -10.974  23.594  19.572  0.00  0.00    +0.000 OA
ATOM     10  O   UNL     1      -6.594  25.370  10.216  0.00  0.00    +0.000 OA
ATOM     11  O   UNL     1      -7.015  21.882  19.590  0.00  0.00    +0.000 OA
ATOM     12  N   UNL     1       0.260  24.946  18.259  0.00  0.00    +0.000 NA
ATOM     13  N   UNL     1      -0.561  25.986  15.453  0.00  0.00    +0.000 NA
ATOM     14  N   UNL     1      -1.140  26.443  20.761  0.00  0.00    +0.000 NA
ATOM     15  N   UNL     1      -4.055  25.245  21.182  0.00  0.00    +0.000 NA
ATOM     16  N   UNL     1      -2.156  26.168  12.820  0.00  0.00    +0.000 NA
ATOM     17  N   UNL     1     -11.323  25.922  16.545  0.00  0.00    +0.000 N 
ATOM     18  N   UNL     1      -9.451  26.018  14.072  0.00  0.00    +0.000 N 
ATOM     19  N   UNL     1      -7.563  25.484  11.930  0.00  0.00    +0.000 NA
ATOM     20  N   UNL     1      -4.213  23.927  12.575  0.00  0.00    +0.000 NA
ATOM     21  N   UNL     1      -5.897  24.057  19.161  0.00  0.00    +0.000 NA
ATOM     22  N   UNL     1      -9.226  24.156  18.004  0.00  0.00    +0.000 NA
ATOM     23  C   UNL     1       0.161  24.176  17.138  0.00  0.00    +0.000 C 
ATOM     24  C   UNL     1      -0.915  26.208  19.465  0.00  0.00    +0.000 C 
ATOM     25  C   UNL     1      -0.184  26.634  14.293  0.00  0.00    +0.000 C 
ATOM     26  C   UNL     1       0.828  22.974  16.978  0.00  0.00    +0.000 C 
ATOM     27  C   UNL     1      -0.602  27.603  19.080  0.00  0.00    +0.000 C 
ATOM     28  C   UNL     1      -0.026  24.777  15.911  0.00  0.00    +0.000 C 
ATOM     29  C   UNL     1      -0.235  25.040  19.547  0.00  0.00    +0.000 C 
ATOM     30  C   UNL     1      -2.888  25.662  21.589  0.00  0.00    +0.000 C 
ATOM     31  C   UNL     1      -2.459  26.651  20.755  0.00  0.00    +0.000 C 
ATOM     32  C   UNL     1      -1.128  27.051  13.212  0.00  0.00    +0.000 C 
ATOM     33  C   UNL     1       1.622  22.967  18.166  0.00  0.00    +0.000 C 
ATOM     34  C   UNL     1       1.200  22.911  15.676  0.00  0.00    +0.000 C 
ATOM     35  C   UNL     1       1.123  24.053  18.868  0.00  0.00    +0.000 C 
ATOM     36  C   UNL     1      -1.022  27.859  20.720  0.00  0.00    +0.000 C 
ATOM     37  C   UNL     1      -2.041  25.171  11.819  0.00  0.00    +0.000 C 
ATOM     38  C   UNL     1     -10.664  25.386  14.169  0.00  0.00    +0.000 A 
ATOM     39  C   UNL     1      -3.613  24.154  20.565  0.00  0.00    +0.000 C 
ATOM     40  C   UNL     1     -11.379  25.129  17.719  0.00  0.00    +0.000 C 
ATOM     41  C   UNL     1      -7.790  26.755  12.340  0.00  0.00    +0.000 C 
ATOM     42  C   UNL     1      -4.474  25.112  22.602  0.00  0.00    +0.000 C 
ATOM     43  C   UNL     1     -11.373  24.628  13.188  0.00  0.00    +0.000 A 
ATOM     44  C   UNL     1     -13.014  25.629  18.318  0.00  0.00    +0.000 C 
ATOM     45  C   UNL     1      -4.764  23.744  19.709  0.00  0.00    +0.000 C 
ATOM     46  C   UNL     1      -8.597  27.364  11.225  0.00  0.00    +0.000 C 
ATOM     47  C   UNL     1      -0.882  25.319  10.999  0.00  0.00    +0.000 C 
ATOM     48  C   UNL     1     -11.442  25.321  15.320  0.00  0.00    +0.000 A 
ATOM     49  C   UNL     1      -2.933  24.150  11.763  0.00  0.00    +0.000 C 
ATOM     50  C   UNL     1      -9.007  26.611  12.987  0.00  0.00    +0.000 C 
ATOM     51  C   UNL     1     -10.547  24.265  18.393  0.00  0.00    +0.000 C 
ATOM     52  C   UNL     1      -5.261  24.849  12.130  0.00  0.00    +0.000 C 
ATOM     53  C   UNL     1     -10.971  24.286  11.778  0.00  0.00    +0.000 C 
ATOM     54  C   UNL     1     -12.500  24.128  13.789  0.00  0.00    +0.000 A 
ATOM     55  C   UNL     1      -6.263  25.657  11.532  0.00  0.00    +0.000 C 
ATOM     56  C   UNL     1      -8.342  23.390  18.555  0.00  0.00    +0.000 C 
ATOM     57  C   UNL     1      -3.972  22.699  20.100  0.00  0.00    +0.000 C 
ATOM     58  C   UNL     1     -12.491  26.180  17.176  0.00  0.00    +0.000 C 
ATOM     59  C   UNL     1       0.111  25.972  10.848  0.00  0.00    +0.000 C 
ATOM     60  C   UNL     1      -6.925  23.225  19.069  0.00  0.00    +0.000 C 
ATOM     61  C   UNL     1      -8.018  25.614  10.437  0.00  0.00    +0.000 C 
ATOM     62  C   UNL     1      -3.925  22.973  11.710  0.00  0.00    +0.000 C 
ATOM     63  C   UNL     1      -8.133  22.185  19.141  0.00  0.00    +0.000 C 
ATOM     64  H   UNL     1      -2.631  25.769  13.631  0.00  0.00    +0.000 HD
ATOM     65  H   UNL     1      -8.781  25.819  14.812  0.00  0.00    +0.000 HD
ATOM     66  H   UNL     1      -6.090  25.046  19.024  0.00  0.00    +0.000 HD
ATOM     67  H   UNL     1      -8.922  24.986  17.502  0.00  0.00    +0.000 HD
ATOM     68  C   UNL     1       1.038  26.610  13.838  0.00  0.00    +0.000 C 
ATOM     69  C   UNL     1       1.676  26.794  12.580  0.00  0.00    +0.000 C 
ATOM     70  C   UNL     1       0.645  27.092  11.565  0.00  0.00    +0.000 C 
ATOM     71  C   UNL     1       0.692  28.662  19.104  0.00  0.00    +0.000 C 
ATOM     72  C   UNL     1       0.987  29.577  18.182  0.00  0.00    +0.000 C 
ATOM     73  C   UNL     1      -0.041  28.664  20.294  0.00  0.00    +0.000 C 
ATOM     74  C   UNL     1      -3.231  25.680  23.018  0.00  0.00    +0.000 C 
ATOM     75  C   UNL     1      -3.774  24.731  23.872  0.00  0.00    +0.000 C 
ATOM     76  C   UNL     1      -4.276  25.111  25.282  0.00  0.00    +0.000 C 
ATOM     77  C   UNL     1      -4.674  23.898  23.234  0.00  0.00    +0.000 C 
ATOM     78  C   UNL     1      -8.486  28.065   9.791  0.00  0.00    +0.000 C 
ATOM     79  C   UNL     1      -9.210  28.962   9.126  0.00  0.00    +0.000 C 
ATOM     80  C   UNL     1      -8.209  26.706   9.636  0.00  0.00    +0.000 C 
ATOM     81  C   UNL     1     -13.238  24.928  19.432  0.00  0.00    +0.000 C 
ATOM     82  C   UNL     1     -14.494  25.075  20.226  0.00  0.00    +0.000 C 
ATOM     83  C   UNL     1     -12.197  24.056  19.833  0.00  0.00    +0.000 C 
ENDROOT
BRANCH  69  84
ATOM     84  C   UNL     1       2.981  26.369  12.237  0.00  0.00    +0.000 C 
ATOM     85  C   UNL     1       4.088  26.001  11.949  0.00  0.00    +0.000 C 
BRANCH  85  86
ATOM     86  C   UNL     1       5.499  25.528  11.584  0.00  0.00    +0.000 C 
ATOM     87  C   UNL     1       6.724  25.111  11.270  0.00  0.00    +0.000 C 
ENDBRANCH  85  86
ENDBRANCH  69  84
BRANCH  13  88
ATOM     88  C   UNL     1      -1.781  26.444  16.097  0.00  0.00    +0.000 C 
BRANCH  88  89
ATOM     89  O   UNL     1      -2.897  26.840  16.695  0.00  0.00    +0.000 OA
ATOM     90  H   UNL     1      -2.688  27.240  17.558  0.00  0.00    +0.000 HD
ENDBRANCH  88  89
ENDBRANCH  13  88
TORSDOF 4
ENDMDL
MODEL 5
REMARK VINA RESULT:      -9.0     13.464     20.106
REMARK  Name = Cyclosporin_A.pdbqt.pdb
REMARK  4 active torsions:
REMARK  status: ('A' for Active; 'I' for Inactive)
REMARK    1  A    between atoms: N_13  and  C_36
REMARK    2  A    between atoms: C_36  and  O_70
REMARK    3  A    between atoms: C_72  and  C_73
REMARK    4  A    between atoms: C_75  and  C_76
REMARK                            x       y       z     vdW  Elec       q    Type
REMARK                         _______ _______ _______ _____ _____    ______ ____
ROOT
ATOM      1  O   UNL     1      -8.202  51.730  30.273  0.00  0.00    +0.000 OA
ATOM      2  O   UNL     1      -9.455  52.520  25.362  0.00  0.00    +0.000 OA
ATOM      3  O   UNL     1     -11.887  48.522  24.354  0.00  0.00    +0.000 OA
ATOM      4  O   UNL     1      -7.305  47.153  31.777  0.00  0.00    +0.000 OA
ATOM      5  O   UNL     1     -13.559  52.982  26.096  0.00  0.00    +0.000 OA
ATOM      6  O   UNL     1     -20.088  47.068  33.132  0.00  0.00    +0.000 OA
ATOM      7  O   UNL     1     -10.286  50.498  35.096  0.00  0.00    +0.000 OA
ATOM      8  O   UNL     1     -15.908  44.725  34.274  0.00  0.00    +0.000 OA
ATOM      9  O   UNL     1     -20.320  49.536  28.968  0.00  0.00    +0.000 OA
ATOM     10  O   UNL     1     -12.849  46.963  35.856  0.00  0.00    +0.000 OA
ATOM     11  O   UNL     1     -17.078  52.351  28.555  0.00  0.00    +0.000 OA
ATOM     12  N   UNL     1      -9.273  51.493  26.994  0.00  0.00    +0.000 NA
ATOM     13  N   UNL     1      -8.878  49.588  29.411  0.00  0.00    +0.000 NA
ATOM     14  N   UNL     1     -11.035  50.302  24.558  0.00  0.00    +0.000 NA
ATOM     15  N   UNL     1     -14.119  50.591  25.276  0.00  0.00    +0.000 NA
ATOM     16  N   UNL     1      -9.443  48.268  32.141  0.00  0.00    +0.000 NA
ATOM     17  N   UNL     1     -19.128  46.542  31.047  0.00  0.00    +0.000 N 
ATOM     18  N   UNL     1     -16.582  46.429  32.817  0.00  0.00    +0.000 N 
ATOM     19  N   UNL     1     -14.272  46.980  34.490  0.00  0.00    +0.000 NA
ATOM     20  N   UNL     1     -11.758  49.617  33.602  0.00  0.00    +0.000 NA
ATOM     21  N   UNL     1     -15.421  50.601  27.959  0.00  0.00    +0.000 NA
ATOM     22  N   UNL     1     -18.077  49.180  29.789  0.00  0.00    +0.000 NA
ATOM     23  C   UNL     1      -9.172  51.891  28.295  0.00  0.00    +0.000 C 
ATOM     24  C   UNL     1     -10.460  50.267  25.763  0.00  0.00    +0.000 C 
ATOM     25  C   UNL     1      -8.008  48.824  30.165  0.00  0.00    +0.000 C 
ATOM     26  C   UNL     1      -8.780  53.161  28.676  0.00  0.00    +0.000 C 
ATOM     27  C   UNL     1      -9.732  48.991  25.579  0.00  0.00    +0.000 C 
ATOM     28  C   UNL     1      -8.809  50.977  29.263  0.00  0.00    +0.000 C 
ATOM     29  C   UNL     1     -10.125  51.571  25.908  0.00  0.00    +0.000 C 
ATOM     30  C   UNL     1     -13.086  50.675  24.484  0.00  0.00    +0.000 C 
ATOM     31  C   UNL     1     -12.197  49.696  24.815  0.00  0.00    +0.000 C 
ATOM     32  C   UNL     1      -8.428  47.878  31.242  0.00  0.00    +0.000 C 
ATOM     33  C   UNL     1      -8.440  53.711  27.401  0.00  0.00    +0.000 C 
ATOM     34  C   UNL     1      -8.028  53.014  29.793  0.00  0.00    +0.000 C 
ATOM     35  C   UNL     1      -8.881  52.733  26.524  0.00  0.00    +0.000 C 
ATOM     36  C   UNL     1     -10.594  49.031  24.100  0.00  0.00    +0.000 C 
ATOM     37  C   UNL     1      -9.237  48.970  33.355  0.00  0.00    +0.000 C 
ATOM     38  C   UNL     1     -17.870  46.652  33.232  0.00  0.00    +0.000 A 
ATOM     39  C   UNL     1     -13.758  51.576  26.092  0.00  0.00    +0.000 C 
ATOM     40  C   UNL     1     -19.741  47.543  30.251  0.00  0.00    +0.000 C 
ATOM     41  C   UNL     1     -14.326  45.845  33.753  0.00  0.00    +0.000 C 
ATOM     42  C   UNL     1     -14.996  50.933  24.126  0.00  0.00    +0.000 C 
ATOM     43  C   UNL     1     -18.373  46.882  34.549  0.00  0.00    +0.000 A 
ATOM     44  C   UNL     1     -21.324  46.720  29.936  0.00  0.00    +0.000 C 
ATOM     45  C   UNL     1     -14.629  51.379  27.286  0.00  0.00    +0.000 C 
ATOM     46  C   UNL     1     -14.567  44.757  34.764  0.00  0.00    +0.000 C 
ATOM     47  C   UNL     1      -7.873  48.995  33.774  0.00  0.00    +0.000 C 
ATOM     48  C   UNL     1     -18.974  46.753  32.391  0.00  0.00    +0.000 A 
ATOM     49  C   UNL     1     -10.268  49.613  33.959  0.00  0.00    +0.000 C 
ATOM     50  C   UNL     1     -15.687  45.755  33.504  0.00  0.00    +0.000 C 
ATOM     51  C   UNL     1     -19.392  48.762  29.719  0.00  0.00    +0.000 C 
ATOM     52  C   UNL     1     -12.367  48.333  33.959  0.00  0.00    +0.000 C 
ATOM     53  C   UNL     1     -17.622  46.971  35.850  0.00  0.00    +0.000 C 
ATOM     54  C   UNL     1     -19.716  47.136  34.439  0.00  0.00    +0.000 A 
ATOM     55  C   UNL     1     -12.909  47.130  34.480  0.00  0.00    +0.000 C 
ATOM     56  C   UNL     1     -17.618  50.297  29.324  0.00  0.00    +0.000 C 
ATOM     57  C   UNL     1     -14.266  52.683  27.082  0.00  0.00    +0.000 C 
ATOM     58  C   UNL     1     -20.348  46.096  30.670  0.00  0.00    +0.000 C 
ATOM     59  C   UNL     1      -6.764  48.671  33.455  0.00  0.00    +0.000 C 
ATOM     60  C   UNL     1     -16.522  51.019  28.566  0.00  0.00    +0.000 C 
ATOM     61  C   UNL     1     -14.174  46.347  35.920  0.00  0.00    +0.000 C 
ATOM     62  C   UNL     1     -11.427  50.367  34.636  0.00  0.00    +0.000 C 
ATOM     63  C   UNL     1     -17.890  51.611  29.136  0.00  0.00    +0.000 C 
ATOM     64  H   UNL     1     -10.233  48.686  31.648  0.00  0.00    +0.000 HD
ATOM     65  H   UNL     1     -16.253  47.004  32.046  0.00  0.00    +0.000 HD
ATOM     66  H   UNL     1     -15.329  49.601  27.805  0.00  0.00    +0.000 HD
ATOM     67  H   UNL     1     -17.447  48.390  29.900  0.00  0.00    +0.000 HD
ATOM     68  C   UNL     1      -6.742  49.117  30.291  0.00  0.00    +0.000 C 
ATOM     69  C   UNL     1      -5.705  48.836  31.224  0.00  0.00    +0.000 C 
ATOM     70  C   UNL     1      -6.254  47.989  32.302  0.00  0.00    +0.000 C 
ATOM     71  C   UNL     1      -8.312  48.432  24.894  0.00  0.00    +0.000 C 
ATOM     72  C   UNL     1      -7.534  47.457  25.362  0.00  0.00    +0.000 C 
ATOM     73  C   UNL     1      -9.372  48.494  23.985  0.00  0.00    +0.000 C 
ATOM     74  C   UNL     1     -13.862  50.905  23.257  0.00  0.00    +0.000 C 
ATOM     75  C   UNL     1     -14.854  51.816  22.922  0.00  0.00    +0.000 C 
ATOM     76  C   UNL     1     -15.688  51.659  21.633  0.00  0.00    +0.000 C 
ATOM     77  C   UNL     1     -15.659  52.139  23.998  0.00  0.00    +0.000 C 
ATOM     78  C   UNL     1     -13.839  43.794  35.816  0.00  0.00    +0.000 C 
ATOM     79  C   UNL     1     -14.084  42.580  36.302  0.00  0.00    +0.000 C 
ATOM     80  C   UNL     1     -13.842  45.089  36.338  0.00  0.00    +0.000 C 
ATOM     81  C   UNL     1     -22.052  47.568  29.205  0.00  0.00    +0.000 C 
ATOM     82  C   UNL     1     -23.430  47.236  28.737  0.00  0.00    +0.000 C 
ATOM     83  C   UNL     1     -21.423  48.794  28.875  0.00  0.00    +0.000 C 
ENDROOT
BRANCH  69  84
ATOM     84  C   UNL     1      -4.491  49.550  31.360  0.00  0.00    +0.000 C 
ATOM     85  C   UNL     1      -3.459  50.155  31.468  0.00  0.00    +0.000 C 
BRANCH  85  86
ATOM     86  C   UNL     1      -2.141  50.924  31.601  0.00  0.00    +0.000 C 
ATOM     87  C   UNL     1      -0.993  51.590  31.712  0.00  0.00    +0.000 C 
ENDBRANCH  85  86
ENDBRANCH  69  84
BRANCH  13  88
ATOM     88  C   UNL     1     -10.104  48.945  28.969  0.00  0.00    +0.000 C 
BRANCH  88  89
ATOM     89  O   UNL     1     -11.233  48.361  28.588  0.00  0.00    +0.000 OA
ATOM     90  H   UNL     1     -11.231  47.426  28.858  0.00  0.00    +0.000 HD
ENDBRANCH  88  89
ENDBRANCH  13  88
TORSDOF 4
ENDMDL
MODEL 6
REMARK VINA RESULT:      -8.8     21.082     29.264
REMARK  Name = Cyclosporin_A.pdbqt.pdb
REMARK  4 active torsions:
REMARK  status: ('A' for Active; 'I' for Inactive)
REMARK    1  A    between atoms: N_13  and  C_36
REMARK    2  A    between atoms: C_36  and  O_70
REMARK    3  A    between atoms: C_72  and  C_73
REMARK    4  A    between atoms: C_75  and  C_76
REMARK                            x       y       z     vdW  Elec       q    Type
REMARK                         _______ _______ _______ _____ _____    ______ ____
ROOT
ATOM      1  O   UNL     1     -16.507  59.223  10.240  0.00  0.00    +0.000 OA
ATOM      2  O   UNL     1     -19.836  55.324  10.423  0.00  0.00    +0.000 OA
ATOM      3  O   UNL     1     -17.202  51.932  12.536  0.00  0.00    +0.000 OA
ATOM      4  O   UNL     1     -11.746  58.238   9.632  0.00  0.00    +0.000 OA
ATOM      5  O   UNL     1     -20.273  55.405  14.594  0.00  0.00    +0.000 OA
ATOM      6  O   UNL     1     -12.287  56.913  22.407  0.00  0.00    +0.000 OA
ATOM      7  O   UNL     1     -13.190  62.188  13.294  0.00  0.00    +0.000 OA
ATOM      8  O   UNL     1      -9.275  57.418  18.541  0.00  0.00    +0.000 OA
ATOM      9  O   UNL     1     -16.554  54.707  21.772  0.00  0.00    +0.000 OA
ATOM     10  O   UNL     1     -10.052  60.482  15.918  0.00  0.00    +0.000 OA
ATOM     11  O   UNL     1     -18.830  56.452  18.550  0.00  0.00    +0.000 OA
ATOM     12  N   UNL     1     -18.104  56.175  10.582  0.00  0.00    +0.000 NA
ATOM     13  N   UNL     1     -15.197  57.256  10.691  0.00  0.00    +0.000 NA
ATOM     14  N   UNL     1     -18.525  53.196  11.768  0.00  0.00    +0.000 NA
ATOM     15  N   UNL     1     -18.717  53.363  14.938  0.00  0.00    +0.000 NA
ATOM     16  N   UNL     1     -12.727  58.723  11.812  0.00  0.00    +0.000 NA
ATOM     17  N   UNL     1     -12.813  55.087  21.017  0.00  0.00    +0.000 N 
ATOM     18  N   UNL     1     -11.544  56.976  18.908  0.00  0.00    +0.000 N 
ATOM     19  N   UNL     1     -10.916  59.089  17.016  0.00  0.00    +0.000 NA
ATOM     20  N   UNL     1     -13.360  60.208  14.401  0.00  0.00    +0.000 NA
ATOM     21  N   UNL     1     -17.478  55.351  16.783  0.00  0.00    +0.000 NA
ATOM     22  N   UNL     1     -15.598  55.625  19.753  0.00  0.00    +0.000 NA
ATOM     23  C   UNL     1     -17.762  57.483  10.767  0.00  0.00    +0.000 C 
ATOM     24  C   UNL     1     -17.815  54.286  11.464  0.00  0.00    +0.000 C 
ATOM     25  C   UNL     1     -14.070  57.645   9.994  0.00  0.00    +0.000 C 
ATOM     26  C   UNL     1     -18.608  58.539  10.480  0.00  0.00    +0.000 C 
ATOM     27  C   UNL     1     -16.750  53.601  10.698  0.00  0.00    +0.000 C 
ATOM     28  C   UNL     1     -16.449  57.875  10.609  0.00  0.00    +0.000 C 
ATOM     29  C   UNL     1     -18.816  55.154  11.184  0.00  0.00    +0.000 C 
ATOM     30  C   UNL     1     -19.091  52.944  13.760  0.00  0.00    +0.000 C 
ATOM     31  C   UNL     1     -17.995  52.872  12.951  0.00  0.00    +0.000 C 
ATOM     32  C   UNL     1     -12.753  57.963  10.623  0.00  0.00    +0.000 C 
ATOM     33  C   UNL     1     -19.697  57.834   9.882  0.00  0.00    +0.000 C 
ATOM     34  C   UNL     1     -17.829  59.531   9.983  0.00  0.00    +0.000 C 
ATOM     35  C   UNL     1     -19.361  56.509  10.114  0.00  0.00    +0.000 C 
ATOM     36  C   UNL     1     -17.633  52.232  11.224  0.00  0.00    +0.000 C 
ATOM     37  C   UNL     1     -12.678  60.138  11.879  0.00  0.00    +0.000 C 
ATOM     38  C   UNL     1     -11.653  57.195  20.257  0.00  0.00    +0.000 A 
ATOM     39  C   UNL     1     -19.099  54.625  14.772  0.00  0.00    +0.000 C 
ATOM     40  C   UNL     1     -14.138  54.835  21.457  0.00  0.00    +0.000 C 
ATOM     41  C   UNL     1     -10.335  57.871  16.898  0.00  0.00    +0.000 C 
ATOM     42  C   UNL     1     -19.690  52.423  15.552  0.00  0.00    +0.000 C 
ATOM     43  C   UNL     1     -11.223  58.314  21.033  0.00  0.00    +0.000 A 
ATOM     44  C   UNL     1     -13.762  53.845  22.927  0.00  0.00    +0.000 C 
ATOM     45  C   UNL     1     -18.405  55.350  15.875  0.00  0.00    +0.000 C 
ATOM     46  C   UNL     1      -8.913  58.094  17.336  0.00  0.00    +0.000 C 
ATOM     47  C   UNL     1     -12.344  60.755  10.636  0.00  0.00    +0.000 C 
ATOM     48  C   UNL     1     -12.285  56.342  21.157  0.00  0.00    +0.000 A 
ATOM     49  C   UNL     1     -13.019  60.783  13.022  0.00  0.00    +0.000 C 
ATOM     50  C   UNL     1     -10.526  57.361  18.173  0.00  0.00    +0.000 C 
ATOM     51  C   UNL     1     -15.414  55.099  21.017  0.00  0.00    +0.000 C 
ATOM     52  C   UNL     1     -12.145  59.716  15.057  0.00  0.00    +0.000 C 
ATOM     53  C   UNL     1     -10.552  59.583  20.579  0.00  0.00    +0.000 C 
ATOM     54  C   UNL     1     -11.632  58.104  22.325  0.00  0.00    +0.000 A 
ATOM     55  C   UNL     1     -10.908  59.416  15.685  0.00  0.00    +0.000 C 
ATOM     56  C   UNL     1     -16.741  55.911  19.218  0.00  0.00    +0.000 C 
ATOM     57  C   UNL     1     -19.583  55.933  15.492  0.00  0.00    +0.000 C 
ATOM     58  C   UNL     1     -12.753  54.310  22.123  0.00  0.00    +0.000 C 
ATOM     59  C   UNL     1     -12.118  60.529   9.481  0.00  0.00    +0.000 C 
ATOM     60  C   UNL     1     -17.634  55.867  17.994  0.00  0.00    +0.000 C 
ATOM     61  C   UNL     1      -9.631  59.962  17.219  0.00  0.00    +0.000 C 
ATOM     62  C   UNL     1     -13.432  61.523  14.308  0.00  0.00    +0.000 C 
ATOM     63  C   UNL     1     -17.985  56.394  19.459  0.00  0.00    +0.000 C 
ATOM     64  H   UNL     1     -13.417  58.385  12.483  0.00  0.00    +0.000 HD
ATOM     65  H   UNL     1     -12.398  56.699  18.428  0.00  0.00    +0.000 HD
ATOM     66  H   UNL     1     -16.697  54.715  16.649  0.00  0.00    +0.000 HD
ATOM     67  H   UNL     1     -14.805  55.420  19.152  0.00  0.00    +0.000 HD
ATOM     68  C   UNL     1     -14.125  58.141   8.788  0.00  0.00    +0.000 C 
ATOM     69  C   UNL     1     -13.299  58.963   7.972  0.00  0.00    +0.000 C 
ATOM     70  C   UNL     1     -12.079  59.310   8.728  0.00  0.00    +0.000 C 
ATOM     71  C   UNL     1     -16.480  53.006   9.158  0.00  0.00    +0.000 C 
ATOM     72  C   UNL     1     -15.330  53.029   8.487  0.00  0.00    +0.000 C 
ATOM     73  C   UNL     1     -17.110  52.085  10.000  0.00  0.00    +0.000 C 
ATOM     74  C   UNL     1     -19.997  51.900  14.258  0.00  0.00    +0.000 C 
ATOM     75  C   UNL     1     -21.047  51.914  15.166  0.00  0.00    +0.000 C 
ATOM     76  C   UNL     1     -21.662  50.604  15.703  0.00  0.00    +0.000 C 
ATOM     77  C   UNL     1     -20.851  52.825  16.187  0.00  0.00    +0.000 C 
ATOM     78  C   UNL     1      -7.477  58.599  16.839  0.00  0.00    +0.000 C 
ATOM     79  C   UNL     1      -6.219  58.319  17.168  0.00  0.00    +0.000 C 
ATOM     80  C   UNL     1      -8.311  59.711  16.969  0.00  0.00    +0.000 C 
ATOM     81  C   UNL     1     -14.935  53.546  23.491  0.00  0.00    +0.000 C 
ATOM     82  C   UNL     1     -15.035  52.724  24.733  0.00  0.00    +0.000 C 
ATOM     83  C   UNL     1     -16.083  54.033  22.821  0.00  0.00    +0.000 C 
ENDROOT
BRANCH  69  84
ATOM     84  C   UNL     1     -13.712  59.679   6.823  0.00  0.00    +0.000 C 
ATOM     85  C   UNL     1     -14.066  60.293   5.853  0.00  0.00    +0.000 C 
BRANCH  85  86
ATOM     86  C   UNL     1     -14.521  61.078   4.619  0.00  0.00    +0.000 C 
ATOM     87  C   UNL     1     -14.919  61.763   3.549  0.00  0.00    +0.000 C 
ENDBRANCH  85  86
ENDBRANCH  69  84
BRANCH  13  88
ATOM     88  C   UNL     1     -15.003  56.321  11.787  0.00  0.00    +0.000 C 
BRANCH  88  89
ATOM     89  O   UNL     1     -14.823  55.487  12.802  0.00  0.00    +0.000 OA
ATOM     90  H   UNL     1     -15.674  55.096  13.067  0.00  0.00    +0.000 HD
ENDBRANCH  88  89
ENDBRANCH  13  88
TORSDOF 4
ENDMDL
MODEL 7
REMARK VINA RESULT:      -8.7      2.285     13.232
REMARK  Name = Cyclosporin_A.pdbqt.pdb
REMARK  4 active torsions:
REMARK  status: ('A' for Active; 'I' for Inactive)
REMARK    1  A    between atoms: N_13  and  C_36
REMARK    2  A    between atoms: C_36  and  O_70
REMARK    3  A    between atoms: C_72  and  C_73
REMARK    4  A    between atoms: C_75  and  C_76
REMARK                            x       y       z     vdW  Elec       q    Type
REMARK                         _______ _______ _______ _____ _____    ______ ____
ROOT
ATOM      1  O   UNL     1      -0.136  51.263  31.595  0.00  0.00    +0.000 OA
ATOM      2  O   UNL     1      -2.628  46.922  32.717  0.00  0.00    +0.000 OA
ATOM      3  O   UNL     1      -0.632  43.862  29.625  0.00  0.00    +0.000 OA
ATOM      4  O   UNL     1       1.237  52.070  26.961  0.00  0.00    +0.000 OA
ATOM      5  O   UNL     1       0.707  45.000  34.383  0.00  0.00    +0.000 OA
ATOM      6  O   UNL     1      11.360  45.080  30.692  0.00  0.00    +0.000 OA
ATOM      7  O   UNL     1       4.805  53.364  31.046  0.00  0.00    +0.000 OA
ATOM      8  O   UNL     1       9.624  48.102  27.211  0.00  0.00    +0.000 OA
ATOM      9  O   UNL     1       8.241  42.269  33.112  0.00  0.00    +0.000 OA
ATOM     10  O   UNL     1       7.950  51.647  28.437  0.00  0.00    +0.000 OA
ATOM     11  O   UNL     1       4.998  44.533  34.832  0.00  0.00    +0.000 OA
ATOM     12  N   UNL     1      -1.458  48.070  31.685  0.00  0.00    +0.000 NA
ATOM     13  N   UNL     1       0.271  49.772  29.751  0.00  0.00    +0.000 NA
ATOM     14  N   UNL     1      -1.515  44.895  31.071  0.00  0.00    +0.000 NA
ATOM     15  N   UNL     1       1.114  43.564  32.266  0.00  0.00    +0.000 NA
ATOM     16  N   UNL     1       2.765  51.224  28.664  0.00  0.00    +0.000 NA
ATOM     17  N   UNL     1       9.421  44.003  29.901  0.00  0.00    +0.000 N 
ATOM     18  N   UNL     1       8.771  46.912  29.036  0.00  0.00    +0.000 N 
ATOM     19  N   UNL     1       8.076  49.728  28.876  0.00  0.00    +0.000 NA
ATOM     20  N   UNL     1       5.086  51.143  30.642  0.00  0.00    +0.000 NA
ATOM     21  N   UNL     1       3.808  44.779  32.667  0.00  0.00    +0.000 NA
ATOM     22  N   UNL     1       7.243  44.224  32.104  0.00  0.00    +0.000 NA
ATOM     23  C   UNL     1      -0.768  49.193  32.036  0.00  0.00    +0.000 C 
ATOM     24  C   UNL     1      -1.132  46.159  30.867  0.00  0.00    +0.000 C 
ATOM     25  C   UNL     1       0.310  50.738  28.764  0.00  0.00    +0.000 C 
ATOM     26  C   UNL     1      -1.089  49.973  33.132  0.00  0.00    +0.000 C 
ATOM     27  C   UNL     1      -1.489  46.227  29.432  0.00  0.00    +0.000 C 
ATOM     28  C   UNL     1      -0.190  49.973  31.056  0.00  0.00    +0.000 C 
ATOM     29  C   UNL     1      -1.572  46.731  32.012  0.00  0.00    +0.000 C 
ATOM     30  C   UNL     1      -0.169  43.629  32.038  0.00  0.00    +0.000 C 
ATOM     31  C   UNL     1      -0.371  44.244  30.839  0.00  0.00    +0.000 C 
ATOM     32  C   UNL     1       1.532  51.105  27.987  0.00  0.00    +0.000 C 
ATOM     33  C   UNL     1      -2.293  49.330  33.554  0.00  0.00    +0.000 C 
ATOM     34  C   UNL     1      -0.865  51.259  32.768  0.00  0.00    +0.000 C 
ATOM     35  C   UNL     1      -2.329  48.200  32.751  0.00  0.00    +0.000 C 
ATOM     36  C   UNL     1      -1.845  44.578  29.725  0.00  0.00    +0.000 C 
ATOM     37  C   UNL     1       3.253  52.407  29.273  0.00  0.00    +0.000 C 
ATOM     38  C   UNL     1       9.920  46.462  29.633  0.00  0.00    +0.000 A 
ATOM     39  C   UNL     1       1.166  44.598  33.101  0.00  0.00    +0.000 C 
ATOM     40  C   UNL     1       9.115  43.213  31.038  0.00  0.00    +0.000 C 
ATOM     41  C   UNL     1       7.889  48.916  27.807  0.00  0.00    +0.000 C 
ATOM     42  C   UNL     1       0.916  42.214  32.853  0.00  0.00    +0.000 C 
ATOM     43  C   UNL     1      11.093  47.187  30.004  0.00  0.00    +0.000 A 
ATOM     44  C   UNL     1      10.236  41.825  30.725  0.00  0.00    +0.000 C 
ATOM     45  C   UNL     1       2.621  44.918  33.173  0.00  0.00    +0.000 C 
ATOM     46  C   UNL     1       8.971  49.318  26.842  0.00  0.00    +0.000 C 
ATOM     47  C   UNL     1       2.538  53.582  28.891  0.00  0.00    +0.000 C 
ATOM     48  C   UNL     1      10.143  45.156  30.058  0.00  0.00    +0.000 A 
ATOM     49  C   UNL     1       4.247  52.344  30.195  0.00  0.00    +0.000 C 
ATOM     50  C   UNL     1       8.727  47.860  28.127  0.00  0.00    +0.000 C 
ATOM     51  C   UNL     1       8.239  43.266  32.098  0.00  0.00    +0.000 C 
ATOM     52  C   UNL     1       6.049  50.781  29.598  0.00  0.00    +0.000 C 
ATOM     53  C   UNL     1      11.384  48.658  29.867  0.00  0.00    +0.000 C 
ATOM     54  C   UNL     1      11.933  46.314  30.647  0.00  0.00    +0.000 A 
ATOM     55  C   UNL     1       7.054  50.602  28.612  0.00  0.00    +0.000 C 
ATOM     56  C   UNL     1       6.356  44.377  33.033  0.00  0.00    +0.000 C 
ATOM     57  C   UNL     1       1.931  45.244  34.309  0.00  0.00    +0.000 C 
ATOM     58  C   UNL     1      10.154  42.869  29.839  0.00  0.00    +0.000 C 
ATOM     59  C   UNL     1       1.603  53.972  28.250  0.00  0.00    +0.000 C 
ATOM     60  C   UNL     1       4.905  44.631  33.395  0.00  0.00    +0.000 C 
ATOM     61  C   UNL     1       9.086  50.747  28.244  0.00  0.00    +0.000 C 
ATOM     62  C   UNL     1       5.356  52.276  31.261  0.00  0.00    +0.000 C 
ATOM     63  C   UNL     1       6.131  44.320  34.369  0.00  0.00    +0.000 C 
ATOM     64  H   UNL     1       2.917  50.439  29.297  0.00  0.00    +0.000 HD
ATOM     65  H   UNL     1       7.898  46.647  29.486  0.00  0.00    +0.000 HD
ATOM     66  H   UNL     1       3.866  44.525  31.685  0.00  0.00    +0.000 HD
ATOM     67  H   UNL     1       7.040  44.547  31.163  0.00  0.00    +0.000 HD
ATOM     68  C   UNL     1      -0.586  51.682  28.666  0.00  0.00    +0.000 C 
ATOM     69  C   UNL     1      -0.658  52.981  28.090  0.00  0.00    +0.000 C 
ATOM     70  C   UNL     1       0.635  53.286  27.446  0.00  0.00    +0.000 C 
ATOM     71  C   UNL     1      -2.835  46.489  28.474  0.00  0.00    +0.000 C 
ATOM     72  C   UNL     1      -2.869  47.140  27.312  0.00  0.00    +0.000 C 
ATOM     73  C   UNL     1      -2.680  45.152  28.849  0.00  0.00    +0.000 C 
ATOM     74  C   UNL     1      -0.465  42.261  32.487  0.00  0.00    +0.000 C 
ATOM     75  C   UNL     1      -0.175  41.565  33.652  0.00  0.00    +0.000 C 
ATOM     76  C   UNL     1      -0.383  40.038  33.749  0.00  0.00    +0.000 C 
ATOM     77  C   UNL     1       1.037  41.936  34.202  0.00  0.00    +0.000 C 
ATOM     78  C   UNL     1       9.352  50.381  25.707  0.00  0.00    +0.000 C 
ATOM     79  C   UNL     1      10.122  50.359  24.622  0.00  0.00    +0.000 C 
ATOM     80  C   UNL     1       9.404  51.025  26.944  0.00  0.00    +0.000 C 
ATOM     81  C   UNL     1      10.090  40.982  31.750  0.00  0.00    +0.000 C 
ATOM     82  C   UNL     1      10.852  39.702  31.844  0.00  0.00    +0.000 C 
ATOM     83  C   UNL     1       9.144  41.364  32.732  0.00  0.00    +0.000 C 
ENDROOT
BRANCH  69  84
ATOM     84  C   UNL     1      -1.606  53.982  28.410  0.00  0.00    +0.000 C 
ATOM     85  C   UNL     1      -2.416  54.827  28.678  0.00  0.00    +0.000 C 
BRANCH  85  86
ATOM     86  C   UNL     1      -3.453  55.903  29.017  0.00  0.00    +0.000 C 
ATOM     87  C   UNL     1      -4.350  56.842  29.313  0.00  0.00    +0.000 C 
ENDBRANCH  85  86
ENDBRANCH  69  84
BRANCH  13  88
ATOM     88  C   UNL     1       1.011  48.546  29.502  0.00  0.00    +0.000 C 
BRANCH  88  89
ATOM     89  O   UNL     1       1.699  47.439  29.258  0.00  0.00    +0.000 OA
ATOM     90  H   UNL     1       1.161  46.823  28.729  0.00  0.00    +0.000 HD
ENDBRANCH  88  89
ENDBRANCH  13  88
TORSDOF 4
ENDMDL
MODEL 8
REMARK VINA RESULT:      -8.6     30.402     34.316
REMARK  Name = Cyclosporin_A.pdbqt.pdb
REMARK  4 active torsions:
REMARK  status: ('A' for Active; 'I' for Inactive)
REMARK    1  A    between atoms: N_13  and  C_36
REMARK    2  A    between atoms: C_36  and  O_70
REMARK    3  A    between atoms: C_72  and  C_73
REMARK    4  A    between atoms: C_75  and  C_76
REMARK                            x       y       z     vdW  Elec       q    Type
REMARK                         _______ _______ _______ _____ _____    ______ ____
ROOT
ATOM      1  O   UNL     1      -7.377  43.764  -5.489  0.00  0.00    +0.000 OA
ATOM      2  O   UNL     1      -4.269  47.845  -5.493  0.00  0.00    +0.000 OA
ATOM      3  O   UNL     1      -2.975  48.050  -0.888  0.00  0.00    +0.000 OA
ATOM      4  O   UNL     1     -10.098  42.869  -1.515  0.00  0.00    +0.000 OA
ATOM      5  O   UNL     1      -0.770  45.647  -4.772  0.00  0.00    +0.000 OA
ATOM      6  O   UNL     1       0.672  36.948   2.253  0.00  0.00    +0.000 OA
ATOM      7  O   UNL     1      -7.641  38.564  -4.070  0.00  0.00    +0.000 OA
ATOM      8  O   UNL     1      -4.139  37.500   3.156  0.00  0.00    +0.000 OA
ATOM      9  O   UNL     1       3.120  40.642   0.293  0.00  0.00    +0.000 OA
ATOM     10  O   UNL     1      -6.726  37.058  -0.003  0.00  0.00    +0.000 OA
ATOM     11  O   UNL     1       1.263  42.100  -3.317  0.00  0.00    +0.000 OA
ATOM     12  N   UNL     1      -5.327  46.433  -4.695  0.00  0.00    +0.000 NA
ATOM     13  N   UNL     1      -7.122  44.402  -3.184  0.00  0.00    +0.000 NA
ATOM     14  N   UNL     1      -3.260  48.102  -2.851  0.00  0.00    +0.000 NA
ATOM     15  N   UNL     1      -0.707  46.298  -2.267  0.00  0.00    +0.000 NA
ATOM     16  N   UNL     1      -8.003  41.707  -1.970  0.00  0.00    +0.000 NA
ATOM     17  N   UNL     1       0.413  39.258   2.629  0.00  0.00    +0.000 N 
ATOM     18  N   UNL     1      -2.504  38.544   1.846  0.00  0.00    +0.000 N 
ATOM     19  N   UNL     1      -4.976  37.809   0.508  0.00  0.00    +0.000 NA
ATOM     20  N   UNL     1      -6.074  39.451  -2.680  0.00  0.00    +0.000 NA
ATOM     21  N   UNL     1      -0.518  43.326  -2.097  0.00  0.00    +0.000 NA
ATOM     22  N   UNL     1       0.738  40.710  -0.097  0.00  0.00    +0.000 NA
ATOM     23  C   UNL     1      -5.761  45.243  -5.203  0.00  0.00    +0.000 C 
ATOM     24  C   UNL     1      -4.211  47.192  -3.081  0.00  0.00    +0.000 C 
ATOM     25  C   UNL     1      -8.392  44.047  -2.773  0.00  0.00    +0.000 C 
ATOM     26  C   UNL     1      -5.858  44.984  -6.558  0.00  0.00    +0.000 C 
ATOM     27  C   UNL     1      -5.175  47.678  -2.068  0.00  0.00    +0.000 C 
ATOM     28  C   UNL     1      -6.707  44.511  -4.515  0.00  0.00    +0.000 C 
ATOM     29  C   UNL     1      -4.161  47.129  -4.432  0.00  0.00    +0.000 C 
ATOM     30  C   UNL     1      -1.310  47.408  -2.592  0.00  0.00    +0.000 C 
ATOM     31  C   UNL     1      -2.510  47.462  -1.949  0.00  0.00    +0.000 C 
ATOM     32  C   UNL     1      -8.695  42.928  -1.830  0.00  0.00    +0.000 C 
ATOM     33  C   UNL     1      -5.534  46.272  -7.085  0.00  0.00    +0.000 C 
ATOM     34  C   UNL     1      -6.968  44.224  -6.726  0.00  0.00    +0.000 C 
ATOM     35  C   UNL     1      -5.127  46.965  -5.955  0.00  0.00    +0.000 C 
ATOM     36  C   UNL     1      -3.872  48.738  -1.737  0.00  0.00    +0.000 C 
ATOM     37  C   UNL     1      -8.407  40.625  -2.793  0.00  0.00    +0.000 C 
ATOM     38  C   UNL     1      -1.448  37.680   1.984  0.00  0.00    +0.000 A 
ATOM     39  C   UNL     1      -1.019  45.632  -3.374  0.00  0.00    +0.000 C 
ATOM     40  C   UNL     1       1.543  39.737   1.920  0.00  0.00    +0.000 C 
ATOM     41  C   UNL     1      -5.008  38.519   1.661  0.00  0.00    +0.000 C 
ATOM     42  C   UNL     1       0.583  47.034  -2.244  0.00  0.00    +0.000 C 
ATOM     43  C   UNL     1      -1.407  36.263   1.813  0.00  0.00    +0.000 A 
ATOM     44  C   UNL     1       2.804  39.483   3.196  0.00  0.00    +0.000 C 
ATOM     45  C   UNL     1      -0.739  44.211  -3.020  0.00  0.00    +0.000 C 
ATOM     46  C   UNL     1      -5.489  37.532   2.690  0.00  0.00    +0.000 C 
ATOM     47  C   UNL     1      -9.754  40.733  -3.253  0.00  0.00    +0.000 C 
ATOM     48  C   UNL     1      -0.142  38.055   2.280  0.00  0.00    +0.000 A 
ATOM     49  C   UNL     1      -7.519  39.662  -3.145  0.00  0.00    +0.000 C 
ATOM     50  C   UNL     1      -3.745  38.257   2.169  0.00  0.00    +0.000 C 
ATOM     51  C   UNL     1       1.797  40.311   0.696  0.00  0.00    +0.000 C 
ATOM     52  C   UNL     1      -6.055  38.946  -1.304  0.00  0.00    +0.000 C 
ATOM     53  C   UNL     1      -2.509  35.323   1.405  0.00  0.00    +0.000 C 
ATOM     54  C   UNL     1      -0.105  35.865   1.978  0.00  0.00    +0.000 A 
ATOM     55  C   UNL     1      -6.129  38.310  -0.038  0.00  0.00    +0.000 C 
ATOM     56  C   UNL     1       0.839  41.266  -1.260  0.00  0.00    +0.000 C 
ATOM     57  C   UNL     1      -0.590  44.483  -4.353  0.00  0.00    +0.000 C 
ATOM     58  C   UNL     1       1.489  39.181   3.445  0.00  0.00    +0.000 C 
ATOM     59  C   UNL     1     -10.717  41.446  -3.248  0.00  0.00    +0.000 C 
ATOM     60  C   UNL     1       0.363  42.344  -2.215  0.00  0.00    +0.000 C 
ATOM     61  C   UNL     1      -5.767  36.539   0.971  0.00  0.00    +0.000 C 
ATOM     62  C   UNL     1      -6.509  38.581  -3.571  0.00  0.00    +0.000 C 
ATOM     63  C   UNL     1       1.546  41.292  -2.416  0.00  0.00    +0.000 C 
ATOM     64  H   UNL     1      -7.002  41.861  -2.096  0.00  0.00    +0.000 HD
ATOM     65  H   UNL     1      -2.343  39.360   1.260  0.00  0.00    +0.000 HD
ATOM     66  H   UNL     1      -0.848  43.542  -1.160  0.00  0.00    +0.000 HD
ATOM     67  H   UNL     1      -0.097  40.867   0.460  0.00  0.00    +0.000 HD
ATOM     68  C   UNL     1      -9.465  44.380  -3.437  0.00  0.00    +0.000 C 
ATOM     69  C   UNL     1     -10.800  43.901  -3.548  0.00  0.00    +0.000 C 
ATOM     70  C   UNL     1     -10.960  42.731  -2.662  0.00  0.00    +0.000 C 
ATOM     71  C   UNL     1      -6.352  48.855  -1.904  0.00  0.00    +0.000 C 
ATOM     72  C   UNL     1      -7.503  48.741  -1.243  0.00  0.00    +0.000 C 
ATOM     73  C   UNL     1      -5.072  49.311  -1.580  0.00  0.00    +0.000 C 
ATOM     74  C   UNL     1      -0.115  48.257  -2.487  0.00  0.00    +0.000 C 
ATOM     75  C   UNL     1       1.158  48.172  -3.034  0.00  0.00    +0.000 C 
ATOM     76  C   UNL     1       2.308  49.073  -2.538  0.00  0.00    +0.000 C 
ATOM     77  C   UNL     1       1.581  46.865  -3.186  0.00  0.00    +0.000 C 
ATOM     78  C   UNL     1      -6.801  36.857   3.310  0.00  0.00    +0.000 C 
ATOM     79  C   UNL     1      -7.128  36.362   4.501  0.00  0.00    +0.000 C 
ATOM     80  C   UNL     1      -6.592  36.320   2.039  0.00  0.00    +0.000 C 
ATOM     81  C   UNL     1       3.965  39.865   2.661  0.00  0.00    +0.000 C 
ATOM     82  C   UNL     1       5.249  39.810   3.421  0.00  0.00    +0.000 C 
ATOM     83  C   UNL     1       3.902  40.354   1.334  0.00  0.00    +0.000 C 
ENDROOT
BRANCH  69  84
ATOM     84  C   UNL     1     -11.704  44.190  -4.598  0.00  0.00    +0.000 C 
ATOM     85  C   UNL     1     -12.464  44.435  -5.495  0.00  0.00    +0.000 C 
BRANCH  85  86
ATOM     86  C   UNL     1     -13.431  44.749  -6.642  0.00  0.00    +0.000 C 
ATOM     87  C   UNL     1     -14.267  45.020  -7.642  0.00  0.00    +0.000 C 
ENDBRANCH  85  86
ENDBRANCH  69  84
BRANCH  13  88
ATOM     88  C   UNL     1      -6.076  44.390  -2.174  0.00  0.00    +0.000 C 
BRANCH  88  89
ATOM     89  O   UNL     1      -5.113  44.359  -1.263  0.00  0.00    +0.000 OA
ATOM     90  H   UNL     1      -5.310  44.990  -0.548  0.00  0.00    +0.000 HD
ENDBRANCH  88  89
ENDBRANCH  13  88
TORSDOF 4
ENDMDL
MODEL 9
REMARK VINA RESULT:      -8.6     34.117     38.504
REMARK  Name = Cyclosporin_A.pdbqt.pdb
REMARK  4 active torsions:
REMARK  status: ('A' for Active; 'I' for Inactive)
REMARK    1  A    between atoms: N_13  and  C_36
REMARK    2  A    between atoms: C_36  and  O_70
REMARK    3  A    between atoms: C_72  and  C_73
REMARK    4  A    between atoms: C_75  and  C_76
REMARK                            x       y       z     vdW  Elec       q    Type
REMARK                         _______ _______ _______ _____ _____    ______ ____
ROOT
ATOM      1  O   UNL     1     -18.156  40.527   0.617  0.00  0.00    +0.000 OA
ATOM      2  O   UNL     1     -19.034  36.192   3.214  0.00  0.00    +0.000 OA
ATOM      3  O   UNL     1     -19.604  37.859   7.666  0.00  0.00    +0.000 OA
ATOM      4  O   UNL     1     -15.749  44.169   2.841  0.00  0.00    +0.000 OA
ATOM      5  O   UNL     1     -23.055  37.060   4.035  0.00  0.00    +0.000 OA
ATOM      6  O   UNL     1     -27.578  46.938   7.043  0.00  0.00    +0.000 OA
ATOM      7  O   UNL     1     -20.153  45.450  -0.330  0.00  0.00    +0.000 OA
ATOM      8  O   UNL     1     -22.983  48.645   6.555  0.00  0.00    +0.000 OA
ATOM      9  O   UNL     1     -28.253  42.172   7.594  0.00  0.00    +0.000 OA
ATOM     10  O   UNL     1     -21.228  48.341   2.854  0.00  0.00    +0.000 OA
ATOM     11  O   UNL     1     -26.321  39.879   4.494  0.00  0.00    +0.000 OA
ATOM     12  N   UNL     1     -18.662  38.081   3.007  0.00  0.00    +0.000 NA
ATOM     13  N   UNL     1     -17.849  41.075   2.939  0.00  0.00    +0.000 NA
ATOM     14  N   UNL     1     -19.533  36.943   5.906  0.00  0.00    +0.000 NA
ATOM     15  N   UNL     1     -22.552  37.764   6.476  0.00  0.00    +0.000 NA
ATOM     16  N   UNL     1     -18.178  44.126   2.630  0.00  0.00    +0.000 NA
ATOM     17  N   UNL     1     -26.253  45.384   8.215  0.00  0.00    +0.000 N 
ATOM     18  N   UNL     1     -24.085  46.590   6.350  0.00  0.00    +0.000 N 
ATOM     19  N   UNL     1     -22.377  47.381   4.137  0.00  0.00    +0.000 NA
ATOM     20  N   UNL     1     -20.987  44.884   1.709  0.00  0.00    +0.000 NA
ATOM     21  N   UNL     1     -24.060  40.139   5.487  0.00  0.00    +0.000 NA
ATOM     22  N   UNL     1     -26.159  42.765   6.549  0.00  0.00    +0.000 NA
ATOM     23  C   UNL     1     -18.875  38.926   1.957  0.00  0.00    +0.000 C 
ATOM     24  C   UNL     1     -19.133  37.886   5.049  0.00  0.00    +0.000 C 
ATOM     25  C   UNL     1     -16.847  42.008   2.757  0.00  0.00    +0.000 C 
ATOM     26  C   UNL     1     -19.049  38.493   0.655  0.00  0.00    +0.000 C 
ATOM     27  C   UNL     1     -17.954  38.343   5.819  0.00  0.00    +0.000 C 
ATOM     28  C   UNL     1     -18.304  40.182   1.964  0.00  0.00    +0.000 C 
ATOM     29  C   UNL     1     -19.346  37.248   3.874  0.00  0.00    +0.000 C 
ATOM     30  C   UNL     1     -21.546  36.934   6.455  0.00  0.00    +0.000 C 
ATOM     31  C   UNL     1     -20.394  37.634   6.659  0.00  0.00    +0.000 C 
ATOM     32  C   UNL     1     -16.993  43.471   3.027  0.00  0.00    +0.000 C 
ATOM     33  C   UNL     1     -18.801  37.096   0.819  0.00  0.00    +0.000 C 
ATOM     34  C   UNL     1     -18.435  39.404  -0.138  0.00  0.00    +0.000 C 
ATOM     35  C   UNL     1     -18.726  36.963   2.197  0.00  0.00    +0.000 C 
ATOM     36  C   UNL     1     -18.586  37.208   6.933  0.00  0.00    +0.000 C 
ATOM     37  C   UNL     1     -18.401  44.719   1.362  0.00  0.00    +0.000 C 
ATOM     38  C   UNL     1     -25.398  46.972   6.449  0.00  0.00    +0.000 A 
ATOM     39  C   UNL     1     -22.696  37.853   5.157  0.00  0.00    +0.000 C 
ATOM     40  C   UNL     1     -27.106  44.254   8.145  0.00  0.00    +0.000 C 
ATOM     41  C   UNL     1     -21.904  47.401   5.407  0.00  0.00    +0.000 C 
ATOM     42  C   UNL     1     -23.352  36.737   7.190  0.00  0.00    +0.000 C 
ATOM     43  C   UNL     1     -26.101  47.997   5.745  0.00  0.00    +0.000 A 
ATOM     44  C   UNL     1     -28.203  44.644   9.534  0.00  0.00    +0.000 C 
ATOM     45  C   UNL     1     -23.557  39.057   4.978  0.00  0.00    +0.000 C 
ATOM     46  C   UNL     1     -21.824  48.864   5.748  0.00  0.00    +0.000 C 
ATOM     47  C   UNL     1     -17.210  44.880   0.592  0.00  0.00    +0.000 C 
ATOM     48  C   UNL     1     -26.350  46.360   7.259  0.00  0.00    +0.000 A 
ATOM     49  C   UNL     1     -19.663  44.994   0.946  0.00  0.00    +0.000 C 
ATOM     50  C   UNL     1     -23.086  47.416   6.130  0.00  0.00    +0.000 C 
ATOM     51  C   UNL     1     -27.194  43.101   7.400  0.00  0.00    +0.000 C 
ATOM     52  C   UNL     1     -21.092  45.960   2.698  0.00  0.00    +0.000 C 
ATOM     53  C   UNL     1     -25.600  48.929   4.675  0.00  0.00    +0.000 C 
ATOM     54  C   UNL     1     -27.416  47.936   6.130  0.00  0.00    +0.000 A 
ATOM     55  C   UNL     1     -21.187  47.119   3.511  0.00  0.00    +0.000 C 
ATOM     56  C   UNL     1     -26.115  41.710   5.801  0.00  0.00    +0.000 C 
ATOM     57  C   UNL     1     -23.702  38.127   3.984  0.00  0.00    +0.000 C 
ATOM     58  C   UNL     1     -27.154  45.470   9.219  0.00  0.00    +0.000 C 
ATOM     59  C   UNL     1     -16.033  44.655   0.584  0.00  0.00    +0.000 C 
ATOM     60  C   UNL     1     -25.300  40.550   5.263  0.00  0.00    +0.000 C 
ATOM     61  C   UNL     1     -22.211  48.897   3.782  0.00  0.00    +0.000 C 
ATOM     62  C   UNL     1     -21.094  45.285   0.457  0.00  0.00    +0.000 C 
ATOM     63  C   UNL     1     -26.847  40.867   5.033  0.00  0.00    +0.000 C 
ATOM     64  H   UNL     1     -19.005  43.589   2.894  0.00  0.00    +0.000 HD
ATOM     65  H   UNL     1     -23.915  45.596   6.223  0.00  0.00    +0.000 HD
ATOM     66  H   UNL     1     -23.573  40.549   6.279  0.00  0.00    +0.000 HD
ATOM     67  H   UNL     1     -25.292  43.211   6.833  0.00  0.00    +0.000 HD
ATOM     68  C   UNL     1     -15.816  41.793   1.987  0.00  0.00    +0.000 C 
ATOM     69  C   UNL     1     -14.867  42.588   1.286  0.00  0.00    +0.000 C 
ATOM     70  C   UNL     1     -15.170  44.013   1.530  0.00  0.00    +0.000 C 
ATOM     71  C   UNL     1     -16.359  37.907   6.069  0.00  0.00    +0.000 C 
ATOM     72  C   UNL     1     -15.326  38.731   6.237  0.00  0.00    +0.000 C 
ATOM     73  C   UNL     1     -17.248  37.254   6.928  0.00  0.00    +0.000 C 
ATOM     74  C   UNL     1     -22.201  35.892   7.256  0.00  0.00    +0.000 C 
ATOM     75  C   UNL     1     -23.421  35.239   7.144  0.00  0.00    +0.000 C 
ATOM     76  C   UNL     1     -23.973  34.364   8.289  0.00  0.00    +0.000 C 
ATOM     77  C   UNL     1     -24.408  36.051   6.619  0.00  0.00    +0.000 C 
ATOM     78  C   UNL     1     -20.910  50.170   5.605  0.00  0.00    +0.000 C 
ATOM     79  C   UNL     1     -20.724  51.269   6.332  0.00  0.00    +0.000 C 
ATOM     80  C   UNL     1     -21.471  49.892   4.359  0.00  0.00    +0.000 C 
ATOM     81  C   UNL     1     -29.109  43.665   9.585  0.00  0.00    +0.000 C 
ATOM     82  C   UNL     1     -30.189  43.634  10.616  0.00  0.00    +0.000 C 
ATOM     83  C   UNL     1     -28.967  42.641   8.618  0.00  0.00    +0.000 C 
ENDROOT
BRANCH  69  84
ATOM     84  C   UNL     1     -14.047  42.157   0.217  0.00  0.00    +0.000 C 
ATOM     85  C   UNL     1     -13.343  41.794  -0.686  0.00  0.00    +0.000 C 
BRANCH  85  86
ATOM     86  C   UNL     1     -12.442  41.334  -1.837  0.00  0.00    +0.000 C 
ATOM     87  C   UNL     1     -11.656  40.937  -2.836  0.00  0.00    +0.000 C 
ENDBRANCH  85  86
ENDBRANCH  69  84
BRANCH  13  88
ATOM     88  C   UNL     1     -18.673  41.217   4.128  0.00  0.00    +0.000 C 
BRANCH  88  89
ATOM     89  O   UNL     1     -19.429  41.370   5.207  0.00  0.00    +0.000 OA
ATOM     90  H   UNL     1     -19.518  42.316   5.420  0.00  0.00    +0.000 HD
ENDBRANCH  88  89
ENDBRANCH  13  88
TORSDOF 4
ENDMDL
