REMARK  Name = Danazol.pdbqt.pdb
REMARK  2 active torsions:
REMARK  status: ('A' for Active; 'I' for Inactive)
REMARK    1  A    between atoms: C_9  and  O_23
REMARK    2  A    between atoms: C_9  and  C_25
REMARK                            x       y       z     vdW  Elec       q    Type
REMARK                         _______ _______ _______ _____ _____    ______ ____
ROOT
ATOM      1  O   UNL     1      -5.021  -0.042   1.652  0.00  0.00    +0.000 OA
ATOM      2  N   UNL     1      -5.253  -1.429   1.766  0.00  0.00    +0.000 NA
ATOM      3  C   UNL     1       2.221   1.075  -0.409  0.00  0.00    +0.000 C 
ATOM      4  C   UNL     1       3.068  -0.221  -0.877  0.00  0.00    +0.000 C 
ATOM      5  C   UNL     1       0.752   1.154  -0.523  0.00  0.00    +0.000 C 
ATOM      6  C   UNL     1      -0.170   0.036  -0.928  0.00  0.00    +0.000 C 
ATOM      7  C   UNL     1      -1.689   0.209  -1.164  0.00  0.00    +0.000 C 
ATOM      8  C   UNL     1       2.060  -1.263  -1.125  0.00  0.00    +0.000 C 
ATOM      9  C   UNL     1       4.085  -0.490   0.371  0.00  0.00    +0.000 C 
ATOM     10  C   UNL     1       0.556  -1.162  -1.171  0.00  0.00    +0.000 C 
ATOM     11  C   UNL     1       2.922   1.738   0.638  0.00  0.00    +0.000 C 
ATOM     12  C   UNL     1       0.047   2.313  -0.125  0.00  0.00    +0.000 C 
ATOM     13  C   UNL     1       4.026   0.815   1.062  0.00  0.00    +0.000 C 
ATOM     14  C   UNL     1      -2.363   1.536  -0.429  0.00  0.00    +0.000 C 
ATOM     15  C   UNL     1       3.782   0.194  -2.215  0.00  0.00    +0.000 C 
ATOM     16  C   UNL     1      -1.434   2.540  -0.061  0.00  0.00    +0.000 C 
ATOM     17  C   UNL     1      -2.439  -0.952  -0.565  0.00  0.00    +0.000 C 
ATOM     18  C   UNL     1      -1.963   0.342  -2.689  0.00  0.00    +0.000 C 
ATOM     19  C   UNL     1      -3.384   1.312   0.369  0.00  0.00    +0.000 C 
ATOM     20  C   UNL     1      -3.533  -1.085   0.339  0.00  0.00    +0.000 A 
ATOM     21  C   UNL     1      -4.003   0.115   0.798  0.00  0.00    +0.000 A 
ATOM     22  C   UNL     1      -4.348  -2.026   0.961  0.00  0.00    +0.000 A 
ENDROOT
BRANCH   9  23
ATOM     23  O   UNL     1       5.444  -0.762  -0.005  0.00  0.00    +0.000 OA
ATOM     24  H   UNL     1       5.990  -0.698   0.798  0.00  0.00    +0.000 HD
ENDBRANCH   9  23
BRANCH   9  25
ATOM     25  C   UNL     1       3.588  -1.582   1.244  0.00  0.00    +0.000 C 
ATOM     26  C   UNL     1       3.195  -2.447   1.969  0.00  0.00    +0.000 C 
ENDBRANCH   9  25
TORSDOF 2
