MODEL 1
REMARK VINA RESULT:      -6.4      0.000      0.000
REMARK  Name = Danazol.pdbqt.pdb
REMARK  2 active torsions:
REMARK  status: ('A' for Active; 'I' for Inactive)
REMARK    1  A    between atoms: C_9  and  O_23
REMARK    2  A    between atoms: C_9  and  C_25
REMARK                            x       y       z     vdW  Elec       q    Type
REMARK                         _______ _______ _______ _____ _____    ______ ____
ROOT
ATOM      1  O   UNL     1     -15.948  33.816   3.645  0.00  0.00    +0.000 OA
ATOM      2  N   UNL     1     -17.097  33.476   2.899  0.00  0.00    +0.000 NA
ATOM      3  C   UNL     1     -16.278  41.207   5.432  0.00  0.00    +0.000 C 
ATOM      4  C   UNL     1     -17.674  41.976   5.157  0.00  0.00    +0.000 C 
ATOM      5  C   UNL     1     -16.200  39.755   5.681  0.00  0.00    +0.000 C 
ATOM      6  C   UNL     1     -17.334  38.772   5.571  0.00  0.00    +0.000 C 
ATOM      7  C   UNL     1     -17.230  37.282   5.976  0.00  0.00    +0.000 C 
ATOM      8  C   UNL     1     -18.662  40.906   4.952  0.00  0.00    +0.000 C 
ATOM      9  C   UNL     1     -17.351  42.912   3.860  0.00  0.00    +0.000 C 
ATOM     10  C   UNL     1     -18.530  39.417   5.155  0.00  0.00    +0.000 C 
ATOM     11  C   UNL     1     -15.223  41.907   4.780  0.00  0.00    +0.000 C 
ATOM     12  C   UNL     1     -14.963  39.121   5.941  0.00  0.00    +0.000 C 
ATOM     13  C   UNL     1     -15.874  42.919   3.884  0.00  0.00    +0.000 C 
ATOM     14  C   UNL     1     -15.686  36.676   6.018  0.00  0.00    +0.000 C 
ATOM     15  C   UNL     1     -17.987  42.779   6.472  0.00  0.00    +0.000 C 
ATOM     16  C   UNL     1     -14.670  37.660   6.106  0.00  0.00    +0.000 C 
ATOM     17  C   UNL     1     -17.925  36.421   4.953  0.00  0.00    +0.000 C 
ATOM     18  C   UNL     1     -17.837  37.089   7.394  0.00  0.00    +0.000 C 
ATOM     19  C   UNL     1     -15.453  35.606   5.291  0.00  0.00    +0.000 C 
ATOM     20  C   UNL     1     -17.558  35.280   4.182  0.00  0.00    +0.000 A 
ATOM     21  C   UNL     1     -16.266  34.881   4.390  0.00  0.00    +0.000 A 
ATOM     22  C   UNL     1     -18.046  34.370   3.249  0.00  0.00    +0.000 A 
ENDROOT
BRANCH   9  23
ATOM     23  O   UNL     1     -17.830  44.263   3.955  0.00  0.00    +0.000 OA
ATOM     24  H   UNL     1     -18.474  44.296   4.683  0.00  0.00    +0.000 HD
ENDBRANCH   9  23
BRANCH   9  25
ATOM     25  C   UNL     1     -17.865  42.296   2.611  0.00  0.00    +0.000 C 
ATOM     26  C   UNL     1     -18.255  41.784   1.604  0.00  0.00    +0.000 C 
ENDBRANCH   9  25
TORSDOF 2
ENDMDL
MODEL 2
REMARK VINA RESULT:      -6.0      4.039      7.628
REMARK  Name = Danazol.pdbqt.pdb
REMARK  2 active torsions:
REMARK  status: ('A' for Active; 'I' for Inactive)
REMARK    1  A    between atoms: C_9  and  O_23
REMARK    2  A    between atoms: C_9  and  C_25
REMARK                            x       y       z     vdW  Elec       q    Type
REMARK                         _______ _______ _______ _____ _____    ______ ____
ROOT
ATOM      1  O   UNL     1     -19.462  36.591   7.644  0.00  0.00    +0.000 OA
ATOM      2  N   UNL     1     -20.350  35.528   7.374  0.00  0.00    +0.000 NA
ATOM      3  C   UNL     1     -12.585  34.804   4.914  0.00  0.00    +0.000 C 
ATOM      4  C   UNL     1     -12.481  33.506   3.955  0.00  0.00    +0.000 C 
ATOM      5  C   UNL     1     -13.823  35.595   5.058  0.00  0.00    +0.000 C 
ATOM      6  C   UNL     1     -15.171  35.249   4.486  0.00  0.00    +0.000 C 
ATOM      7  C   UNL     1     -16.404  36.181   4.550  0.00  0.00    +0.000 C 
ATOM      8  C   UNL     1     -13.869  33.209   3.567  0.00  0.00    +0.000 C 
ATOM      9  C   UNL     1     -11.746  32.390   4.893  0.00  0.00    +0.000 C 
ATOM     10  C   UNL     1     -15.127  34.012   3.787  0.00  0.00    +0.000 C 
ATOM     11  C   UNL     1     -11.662  34.666   5.989  0.00  0.00    +0.000 C 
ATOM     12  C   UNL     1     -13.869  36.739   5.887  0.00  0.00    +0.000 C 
ATOM     13  C   UNL     1     -11.162  33.252   5.942  0.00  0.00    +0.000 C 
ATOM     14  C   UNL     1     -16.345  37.334   5.743  0.00  0.00    +0.000 C 
ATOM     15  C   UNL     1     -11.638  33.960   2.708  0.00  0.00    +0.000 C 
ATOM     16  C   UNL     1     -15.047  37.596   6.245  0.00  0.00    +0.000 C 
ATOM     17  C   UNL     1     -17.636  35.382   4.885  0.00  0.00    +0.000 C 
ATOM     18  C   UNL     1     -16.557  36.930   3.196  0.00  0.00    +0.000 C 
ATOM     19  C   UNL     1     -17.354  37.362   6.586  0.00  0.00    +0.000 C 
ATOM     20  C   UNL     1     -18.665  35.482   5.866  0.00  0.00    +0.000 A 
ATOM     21  C   UNL     1     -18.488  36.529   6.729  0.00  0.00    +0.000 A 
ATOM     22  C   UNL     1     -19.846  34.886   6.297  0.00  0.00    +0.000 A 
ENDROOT
BRANCH   9  23
ATOM     23  O   UNL     1     -10.693  31.658   4.247  0.00  0.00    +0.000 OA
ATOM     24  H   UNL     1      -9.965  32.280   4.074  0.00  0.00    +0.000 HD
ENDBRANCH   9  23
BRANCH   9  25
ATOM     25  C   UNL     1     -12.728  31.437   5.466  0.00  0.00    +0.000 C 
ATOM     26  C   UNL     1     -13.498  30.654   5.937  0.00  0.00    +0.000 C 
ENDBRANCH   9  25
TORSDOF 2
ENDMDL
MODEL 3
REMARK VINA RESULT:      -5.9      8.508     10.914
REMARK  Name = Danazol.pdbqt.pdb
REMARK  2 active torsions:
REMARK  status: ('A' for Active; 'I' for Inactive)
REMARK    1  A    between atoms: C_9  and  O_23
REMARK    2  A    between atoms: C_9  and  C_25
REMARK                            x       y       z     vdW  Elec       q    Type
REMARK                         _______ _______ _______ _____ _____    ______ ____
ROOT
ATOM      1  O   UNL     1     -11.591  30.672   8.171  0.00  0.00    +0.000 OA
ATOM      2  N   UNL     1     -10.865  29.469   8.299  0.00  0.00    +0.000 NA
ATOM      3  C   UNL     1      -8.190  35.049   2.954  0.00  0.00    +0.000 C 
ATOM      4  C   UNL     1      -7.026  34.370   2.060  0.00  0.00    +0.000 C 
ATOM      5  C   UNL     1      -9.285  34.272   3.565  0.00  0.00    +0.000 C 
ATOM      6  C   UNL     1      -9.407  32.772   3.587  0.00  0.00    +0.000 C 
ATOM      7  C   UNL     1     -10.644  32.012   4.121  0.00  0.00    +0.000 C 
ATOM      8  C   UNL     1      -7.187  32.922   2.265  0.00  0.00    +0.000 C 
ATOM      9  C   UNL     1      -5.653  35.028   2.647  0.00  0.00    +0.000 C 
ATOM     10  C   UNL     1      -8.291  32.160   2.954  0.00  0.00    +0.000 C 
ATOM     11  C   UNL     1      -7.678  36.224   3.573  0.00  0.00    +0.000 C 
ATOM     12  C   UNL     1     -10.299  34.903   4.322  0.00  0.00    +0.000 C 
ATOM     13  C   UNL     1      -6.193  36.206   3.358  0.00  0.00    +0.000 C 
ATOM     14  C   UNL     1     -11.598  32.878   5.168  0.00  0.00    +0.000 C 
ATOM     15  C   UNL     1      -7.346  34.761   0.571  0.00  0.00    +0.000 C 
ATOM     16  C   UNL     1     -11.418  34.281   5.104  0.00  0.00    +0.000 C 
ATOM     17  C   UNL     1     -10.205  30.823   4.936  0.00  0.00    +0.000 C 
ATOM     18  C   UNL     1     -11.544  31.586   2.927  0.00  0.00    +0.000 C 
ATOM     19  C   UNL     1     -11.826  32.334   6.343  0.00  0.00    +0.000 C 
ATOM     20  C   UNL     1     -10.494  30.338   6.245  0.00  0.00    +0.000 A 
ATOM     21  C   UNL     1     -11.347  31.147   6.944  0.00  0.00    +0.000 A 
ATOM     22  C   UNL     1     -10.223  29.294   7.124  0.00  0.00    +0.000 A 
ENDROOT
BRANCH   9  23
ATOM     23  O   UNL     1      -4.720  35.469   1.648  0.00  0.00    +0.000 OA
ATOM     24  H   UNL     1      -3.932  34.902   1.711  0.00  0.00    +0.000 HD
ENDBRANCH   9  23
BRANCH   9  25
ATOM     25  C   UNL     1      -4.970  34.103   3.584  0.00  0.00    +0.000 C 
ATOM     26  C   UNL     1      -4.411  33.378   4.352  0.00  0.00    +0.000 C 
ENDBRANCH   9  25
TORSDOF 2
ENDMDL
MODEL 4
REMARK VINA RESULT:      -5.9      1.749      2.203
REMARK  Name = Danazol.pdbqt.pdb
REMARK  2 active torsions:
REMARK  status: ('A' for Active; 'I' for Inactive)
REMARK    1  A    between atoms: C_9  and  O_23
REMARK    2  A    between atoms: C_9  and  C_25
REMARK                            x       y       z     vdW  Elec       q    Type
REMARK                         _______ _______ _______ _____ _____    ______ ____
ROOT
ATOM      1  O   UNL     1     -19.233  33.767   3.930  0.00  0.00    +0.000 OA
ATOM      2  N   UNL     1     -19.975  33.901   2.737  0.00  0.00    +0.000 NA
ATOM      3  C   UNL     1     -16.621  40.618   5.978  0.00  0.00    +0.000 C 
ATOM      4  C   UNL     1     -17.207  41.902   5.188  0.00  0.00    +0.000 C 
ATOM      5  C   UNL     1     -17.372  39.356   6.120  0.00  0.00    +0.000 C 
ATOM      6  C   UNL     1     -18.678  39.018   5.454  0.00  0.00    +0.000 C 
ATOM      7  C   UNL     1     -19.492  37.735   5.744  0.00  0.00    +0.000 C 
ATOM      8  C   UNL     1     -18.404  41.405   4.493  0.00  0.00    +0.000 C 
ATOM      9  C   UNL     1     -15.967  42.370   4.236  0.00  0.00    +0.000 C 
ATOM     10  C   UNL     1     -19.113  40.080   4.614  0.00  0.00    +0.000 C 
ATOM     11  C   UNL     1     -15.199  40.632   5.903  0.00  0.00    +0.000 C 
ATOM     12  C   UNL     1     -16.837  38.261   6.838  0.00  0.00    +0.000 C 
ATOM     13  C   UNL     1     -14.837  41.684   4.896  0.00  0.00    +0.000 C 
ATOM     14  C   UNL     1     -18.617  36.487   6.402  0.00  0.00    +0.000 C 
ATOM     15  C   UNL     1     -17.599  42.945   6.298  0.00  0.00    +0.000 C 
ATOM     16  C   UNL     1     -17.392  36.877   6.997  0.00  0.00    +0.000 C 
ATOM     17  C   UNL     1     -20.024  37.160   4.457  0.00  0.00    +0.000 C 
ATOM     18  C   UNL     1     -20.639  38.065   6.741  0.00  0.00    +0.000 C 
ATOM     19  C   UNL     1     -18.659  35.338   5.764  0.00  0.00    +0.000 C 
ATOM     20  C   UNL     1     -19.979  35.879   3.833  0.00  0.00    +0.000 A 
ATOM     21  C   UNL     1     -19.266  34.955   4.546  0.00  0.00    +0.000 A 
ATOM     22  C   UNL     1     -20.414  35.178   2.712  0.00  0.00    +0.000 A 
ENDROOT
BRANCH   9  23
ATOM     23  O   UNL     1     -15.716  43.783   4.222  0.00  0.00    +0.000 OA
ATOM     24  H   UNL     1     -15.664  44.082   5.146  0.00  0.00    +0.000 HD
ENDBRANCH   9  23
BRANCH   9  25
ATOM     25  C   UNL     1     -16.147  41.888   2.844  0.00  0.00    +0.000 C 
ATOM     26  C   UNL     1     -16.309  41.521   1.718  0.00  0.00    +0.000 C 
ENDBRANCH   9  25
TORSDOF 2
ENDMDL
MODEL 5
REMARK VINA RESULT:      -5.7     27.986     31.001
REMARK  Name = Danazol.pdbqt.pdb
REMARK  2 active torsions:
REMARK  status: ('A' for Active; 'I' for Inactive)
REMARK    1  A    between atoms: C_9  and  O_23
REMARK    2  A    between atoms: C_9  and  C_25
REMARK                            x       y       z     vdW  Elec       q    Type
REMARK                         _______ _______ _______ _____ _____    ______ ____
ROOT
ATOM      1  O   UNL     1       4.184  62.440  16.409  0.00  0.00    +0.000 OA
ATOM      2  N   UNL     1       4.592  62.717  17.731  0.00  0.00    +0.000 NA
ATOM      3  C   UNL     1       4.101  54.897  15.391  0.00  0.00    +0.000 C 
ATOM      4  C   UNL     1       4.265  53.969  16.705  0.00  0.00    +0.000 C 
ATOM      5  C   UNL     1       3.547  56.264  15.442  0.00  0.00    +0.000 C 
ATOM      6  C   UNL     1       3.206  57.040  16.685  0.00  0.00    +0.000 C 
ATOM      7  C   UNL     1       2.501  58.417  16.680  0.00  0.00    +0.000 C 
ATOM      8  C   UNL     1       4.022  54.873  17.840  0.00  0.00    +0.000 C 
ATOM      9  C   UNL     1       5.779  53.374  16.573  0.00  0.00    +0.000 C 
ATOM     10  C   UNL     1       3.515  56.293  17.854  0.00  0.00    +0.000 C 
ATOM     11  C   UNL     1       5.089  54.530  14.434  0.00  0.00    +0.000 C 
ATOM     12  C   UNL     1       3.397  57.038  14.268  0.00  0.00    +0.000 C 
ATOM     13  C   UNL     1       6.047  53.617  15.140  0.00  0.00    +0.000 C 
ATOM     14  C   UNL     1       2.624  59.259  15.255  0.00  0.00    +0.000 C 
ATOM     15  C   UNL     1       3.133  52.882  16.606  0.00  0.00    +0.000 C 
ATOM     16  C   UNL     1       2.964  58.467  14.130  0.00  0.00    +0.000 C 
ATOM     17  C   UNL     1       3.143  59.329  17.692  0.00  0.00    +0.000 C 
ATOM     18  C   UNL     1       0.985  58.221  16.966  0.00  0.00    +0.000 C 
ATOM     19  C   UNL     1       3.120  60.475  15.330  0.00  0.00    +0.000 C 
ATOM     20  C   UNL     1       3.691  60.644  17.657  0.00  0.00    +0.000 A 
ATOM     21  C   UNL     1       3.654  61.212  16.413  0.00  0.00    +0.000 A 
ATOM     22  C   UNL     1       4.277  61.622  18.456  0.00  0.00    +0.000 A 
ENDROOT
BRANCH   9  23
ATOM     23  O   UNL     1       5.902  51.969  16.843  0.00  0.00    +0.000 OA
ATOM     24  H   UNL     1       5.090  51.537  16.527  0.00  0.00    +0.000 HD
ENDBRANCH   9  23
BRANCH   9  25
ATOM     25  C   UNL     1       6.729  54.126  17.431  0.00  0.00    +0.000 C 
ATOM     26  C   UNL     1       7.507  54.738  18.100  0.00  0.00    +0.000 C 
ENDBRANCH   9  25
TORSDOF 2
ENDMDL
MODEL 6
REMARK VINA RESULT:      -5.6      3.038      6.712
REMARK  Name = Danazol.pdbqt.pdb
REMARK  2 active torsions:
REMARK  status: ('A' for Active; 'I' for Inactive)
REMARK    1  A    between atoms: C_9  and  O_23
REMARK    2  A    between atoms: C_9  and  C_25
REMARK                            x       y       z     vdW  Elec       q    Type
REMARK                         _______ _______ _______ _____ _____    ______ ____
ROOT
ATOM      1  O   UNL     1     -16.559  44.790   0.985  0.00  0.00    +0.000 OA
ATOM      2  N   UNL     1     -15.988  44.182  -0.153  0.00  0.00    +0.000 NA
ATOM      3  C   UNL     1     -18.409  39.369   5.999  0.00  0.00    +0.000 C 
ATOM      4  C   UNL     1     -17.861  37.875   5.713  0.00  0.00    +0.000 C 
ATOM      5  C   UNL     1     -17.728  40.580   5.502  0.00  0.00    +0.000 C 
ATOM      6  C   UNL     1     -16.554  40.617   4.560  0.00  0.00    +0.000 C 
ATOM      7  C   UNL     1     -15.791  41.907   4.178  0.00  0.00    +0.000 C 
ATOM      8  C   UNL     1     -16.809  38.045   4.698  0.00  0.00    +0.000 C 
ATOM      9  C   UNL     1     -19.192  37.059   5.235  0.00  0.00    +0.000 C 
ATOM     10  C   UNL     1     -16.177  39.305   4.163  0.00  0.00    +0.000 C 
ATOM     11  C   UNL     1     -19.823  39.325   6.159  0.00  0.00    +0.000 C 
ATOM     12  C   UNL     1     -18.224  41.872   5.792  0.00  0.00    +0.000 C 
ATOM     13  C   UNL     1     -20.258  37.955   5.732  0.00  0.00    +0.000 C 
ATOM     14  C   UNL     1     -16.642  43.315   4.406  0.00  0.00    +0.000 C 
ATOM     15  C   UNL     1     -17.249  37.375   7.072  0.00  0.00    +0.000 C 
ATOM     16  C   UNL     1     -17.741  43.201   5.291  0.00  0.00    +0.000 C 
ATOM     17  C   UNL     1     -15.486  41.908   2.703  0.00  0.00    +0.000 C 
ATOM     18  C   UNL     1     -14.495  42.013   5.031  0.00  0.00    +0.000 C 
ATOM     19  C   UNL     1     -16.764  44.104   3.361  0.00  0.00    +0.000 C 
ATOM     20  C   UNL     1     -15.701  42.822   1.631  0.00  0.00    +0.000 A 
ATOM     21  C   UNL     1     -16.362  43.957   2.014  0.00  0.00    +0.000 A 
ATOM     22  C   UNL     1     -15.476  43.006   0.270  0.00  0.00    +0.000 A 
ENDROOT
BRANCH   9  23
ATOM     23  O   UNL     1     -19.352  35.763   5.832  0.00  0.00    +0.000 OA
ATOM     24  H   UNL     1     -19.222  35.099   5.132  0.00  0.00    +0.000 HD
ENDBRANCH   9  23
BRANCH   9  25
ATOM     25  C   UNL     1     -19.243  36.931   3.758  0.00  0.00    +0.000 C 
ATOM     26  C   UNL     1     -19.279  36.802   2.571  0.00  0.00    +0.000 C 
ENDBRANCH   9  25
TORSDOF 2
ENDMDL
MODEL 7
REMARK VINA RESULT:      -5.5      3.260      4.135
REMARK  Name = Danazol.pdbqt.pdb
REMARK  2 active torsions:
REMARK  status: ('A' for Active; 'I' for Inactive)
REMARK    1  A    between atoms: C_9  and  O_23
REMARK    2  A    between atoms: C_9  and  C_25
REMARK                            x       y       z     vdW  Elec       q    Type
REMARK                         _______ _______ _______ _____ _____    ______ ____
ROOT
ATOM      1  O   UNL     1     -23.281  36.760   3.150  0.00  0.00    +0.000 OA
ATOM      2  N   UNL     1     -24.387  37.619   3.323  0.00  0.00    +0.000 NA
ATOM      3  C   UNL     1     -16.915  40.595   4.798  0.00  0.00    +0.000 C 
ATOM      4  C   UNL     1     -17.081  42.042   5.501  0.00  0.00    +0.000 C 
ATOM      5  C   UNL     1     -17.923  39.525   4.923  0.00  0.00    +0.000 C 
ATOM      6  C   UNL     1     -19.279  39.651   5.564  0.00  0.00    +0.000 C 
ATOM      7  C   UNL     1     -20.243  38.462   5.790  0.00  0.00    +0.000 C 
ATOM      8  C   UNL     1     -18.474  42.076   5.975  0.00  0.00    +0.000 C 
ATOM      9  C   UNL     1     -16.703  43.096   4.313  0.00  0.00    +0.000 C 
ATOM     10  C   UNL     1     -19.503  40.975   6.029  0.00  0.00    +0.000 C 
ATOM     11  C   UNL     1     -16.121  40.735   3.625  0.00  0.00    +0.000 C 
ATOM     12  C   UNL     1     -17.733  38.264   4.313  0.00  0.00    +0.000 C 
ATOM     13  C   UNL     1     -15.986  42.208   3.374  0.00  0.00    +0.000 C 
ATOM     14  C   UNL     1     -19.970  37.146   4.816  0.00  0.00    +0.000 C 
ATOM     15  C   UNL     1     -16.080  42.047   6.713  0.00  0.00    +0.000 C 
ATOM     16  C   UNL     1     -18.679  37.103   4.234  0.00  0.00    +0.000 C 
ATOM     17  C   UNL     1     -21.653  38.871   5.453  0.00  0.00    +0.000 C 
ATOM     18  C   UNL     1     -20.125  37.974   7.262  0.00  0.00    +0.000 C 
ATOM     19  C   UNL     1     -20.988  36.722   4.100  0.00  0.00    +0.000 C 
ATOM     20  C   UNL     1     -22.681  38.346   4.617  0.00  0.00    +0.000 A 
ATOM     21  C   UNL     1     -22.300  37.223   3.934  0.00  0.00    +0.000 A 
ATOM     22  C   UNL     1     -23.996  38.555   4.214  0.00  0.00    +0.000 A 
ENDROOT
BRANCH   9  23
ATOM     23  O   UNL     1     -15.829  44.164   4.710  0.00  0.00    +0.000 OA
ATOM     24  H   UNL     1     -16.385  44.895   5.031  0.00  0.00    +0.000 HD
ENDBRANCH   9  23
BRANCH   9  25
ATOM     25  C   UNL     1     -17.923  43.664   3.689  0.00  0.00    +0.000 C 
ATOM     26  C   UNL     1     -18.890  44.138   3.171  0.00  0.00    +0.000 C 
ENDBRANCH   9  25
TORSDOF 2
ENDMDL
MODEL 8
REMARK VINA RESULT:      -5.4      3.716      5.688
REMARK  Name = Danazol.pdbqt.pdb
REMARK  2 active torsions:
REMARK  status: ('A' for Active; 'I' for Inactive)
REMARK    1  A    between atoms: C_9  and  O_23
REMARK    2  A    between atoms: C_9  and  C_25
REMARK                            x       y       z     vdW  Elec       q    Type
REMARK                         _______ _______ _______ _____ _____    ______ ____
ROOT
ATOM      1  O   UNL     1     -13.260  34.555   2.604  0.00  0.00    +0.000 OA
ATOM      2  N   UNL     1     -12.676  33.647   3.513  0.00  0.00    +0.000 NA
ATOM      3  C   UNL     1     -19.674  37.299   5.648  0.00  0.00    +0.000 C 
ATOM      4  C   UNL     1     -19.951  36.981   7.209  0.00  0.00    +0.000 C 
ATOM      5  C   UNL     1     -18.317  37.352   5.070  0.00  0.00    +0.000 C 
ATOM      6  C   UNL     1     -17.038  36.983   5.771  0.00  0.00    +0.000 C 
ATOM      7  C   UNL     1     -15.629  37.186   5.165  0.00  0.00    +0.000 C 
ATOM      8  C   UNL     1     -18.657  36.522   7.737  0.00  0.00    +0.000 C 
ATOM      9  C   UNL     1     -21.145  35.869   7.172  0.00  0.00    +0.000 C 
ATOM     10  C   UNL     1     -17.292  36.530   7.094  0.00  0.00    +0.000 C 
ATOM     11  C   UNL     1     -20.793  36.871   4.878  0.00  0.00    +0.000 C 
ATOM     12  C   UNL     1     -18.113  37.657   3.705  0.00  0.00    +0.000 C 
ATOM     13  C   UNL     1     -21.655  36.057   5.798  0.00  0.00    +0.000 C 
ATOM     14  C   UNL     1     -15.593  37.315   3.510  0.00  0.00    +0.000 C 
ATOM     15  C   UNL     1     -20.364  38.351   7.860  0.00  0.00    +0.000 C 
ATOM     16  C   UNL     1     -16.836  37.650   2.919  0.00  0.00    +0.000 C 
ATOM     17  C   UNL     1     -14.767  35.984   5.449  0.00  0.00    +0.000 C 
ATOM     18  C   UNL     1     -15.003  38.489   5.739  0.00  0.00    +0.000 C 
ATOM     19  C   UNL     1     -14.807  36.477   2.871  0.00  0.00    +0.000 C 
ATOM     20  C   UNL     1     -13.969  35.108   4.658  0.00  0.00    +0.000 A 
ATOM     21  C   UNL     1     -14.008  35.400   3.322  0.00  0.00    +0.000 A 
ATOM     22  C   UNL     1     -13.117  34.010   4.737  0.00  0.00    +0.000 A 
ENDROOT
BRANCH   9  23
ATOM     23  O   UNL     1     -22.212  36.097   8.105  0.00  0.00    +0.000 OA
ATOM     24  H   UNL     1     -22.368  37.056   8.145  0.00  0.00    +0.000 HD
ENDBRANCH   9  23
BRANCH   9  25
ATOM     25  C   UNL     1     -20.609  34.498   7.362  0.00  0.00    +0.000 C 
ATOM     26  C   UNL     1     -20.203  33.385   7.521  0.00  0.00    +0.000 C 
ENDBRANCH   9  25
TORSDOF 2
ENDMDL
MODEL 9
REMARK VINA RESULT:      -5.4      2.468      3.393
REMARK  Name = Danazol.pdbqt.pdb
REMARK  2 active torsions:
REMARK  status: ('A' for Active; 'I' for Inactive)
REMARK    1  A    between atoms: C_9  and  O_23
REMARK    2  A    between atoms: C_9  and  C_25
REMARK                            x       y       z     vdW  Elec       q    Type
REMARK                         _______ _______ _______ _____ _____    ______ ____
ROOT
ATOM      1  O   UNL     1     -21.635  35.546   5.245  0.00  0.00    +0.000 OA
ATOM      2  N   UNL     1     -22.341  35.984   6.386  0.00  0.00    +0.000 NA
ATOM      3  C   UNL     1     -16.180  40.607   3.643  0.00  0.00    +0.000 C 
ATOM      4  C   UNL     1     -15.879  41.749   4.748  0.00  0.00    +0.000 C 
ATOM      5  C   UNL     1     -16.747  39.290   3.988  0.00  0.00    +0.000 C 
ATOM      6  C   UNL     1     -17.259  38.869   5.339  0.00  0.00    +0.000 C 
ATOM      7  C   UNL     1     -17.717  37.431   5.682  0.00  0.00    +0.000 C 
ATOM      8  C   UNL     1     -16.530  41.269   5.976  0.00  0.00    +0.000 C 
ATOM      9  C   UNL     1     -16.506  43.103   4.086  0.00  0.00    +0.000 C 
ATOM     10  C   UNL     1     -17.160  39.932   6.277  0.00  0.00    +0.000 C 
ATOM     11  C   UNL     1     -16.453  41.229   2.391  0.00  0.00    +0.000 C 
ATOM     12  C   UNL     1     -16.975  38.307   2.998  0.00  0.00    +0.000 C 
ATOM     13  C   UNL     1     -16.614  42.694   2.670  0.00  0.00    +0.000 C 
ATOM     14  C   UNL     1     -18.141  36.503   4.372  0.00  0.00    +0.000 C 
ATOM     15  C   UNL     1     -14.316  41.777   4.920  0.00  0.00    +0.000 C 
ATOM     16  C   UNL     1     -17.637  36.968   3.133  0.00  0.00    +0.000 C 
ATOM     17  C   UNL     1     -18.973  37.475   6.512  0.00  0.00    +0.000 C 
ATOM     18  C   UNL     1     -16.569  36.685   6.419  0.00  0.00    +0.000 C 
ATOM     19  C   UNL     1     -19.343  35.970   4.393  0.00  0.00    +0.000 C 
ATOM     20  C   UNL     1     -20.262  36.872   6.421  0.00  0.00    +0.000 A 
ATOM     21  C   UNL     1     -20.414  36.089   5.309  0.00  0.00    +0.000 A 
ATOM     22  C   UNL     1     -21.487  36.771   7.073  0.00  0.00    +0.000 A 
ENDROOT
BRANCH   9  23
ATOM     23  O   UNL     1     -15.666  44.265   4.177  0.00  0.00    +0.000 OA
ATOM     24  H   UNL     1     -15.716  44.732   3.325  0.00  0.00    +0.000 HD
ENDBRANCH   9  23
BRANCH   9  25
ATOM     25  C   UNL     1     -17.839  43.414   4.659  0.00  0.00    +0.000 C 
ATOM     26  C   UNL     1     -18.924  43.649   5.100  0.00  0.00    +0.000 C 
ENDBRANCH   9  25
TORSDOF 2
ENDMDL
