MODEL 1
REMARK VINA RESULT:      -6.6      0.000      0.000
REMARK  Name = Dasatinib.pdbqt.pdb
REMARK  5 active torsions:
REMARK  status: ('A' for Active; 'I' for Inactive)
REMARK    1  A    between atoms: N_1  and  C_3
REMARK    2  A    between atoms: N_13  and  C_16
REMARK    3  A    between atoms: C_17  and  O_18
REMARK    4  A    between atoms: C_22  and  C_25
REMARK    5  A    between atoms: N_27  and  C_29
REMARK                            x       y       z     vdW  Elec       q    Type
REMARK                         _______ _______ _______ _____ _____    ______ ____
ROOT
ATOM      1  N   UNL     1     -11.213  50.636  25.752  0.00  0.00    +0.000 N 
ATOM      2  H   UNL     1     -11.170  51.321  26.497  0.00  0.00    +0.000 HD
ATOM      3  C   UNL     1     -10.227  49.709  25.733  0.00  0.00    +0.000 A 
ATOM      4  S   UNL     1      -8.921  49.854  26.858  0.00  0.00    +0.000 S 
ATOM      5  C   UNL     1      -8.192  48.447  26.205  0.00  0.00    +0.000 A 
ATOM      6  C   UNL     1      -8.980  47.980  25.181  0.00  0.00    +0.000 A 
ATOM      7  N   UNL     1     -10.109  48.703  24.895  0.00  0.00    +0.000 NA
ENDROOT
BRANCH   1   8
ATOM      8  C   UNL     1     -12.526  50.418  25.279  0.00  0.00    +0.000 A 
ATOM      9  N   UNL     1     -13.438  49.771  26.012  0.00  0.00    +0.000 NA
ATOM     10  C   UNL     1     -14.637  49.564  25.455  0.00  0.00    +0.000 A 
ATOM     11  N   UNL     1     -15.005  49.966  24.233  0.00  0.00    +0.000 NA
ATOM     12  C   UNL     1     -15.672  48.855  26.279  0.00  0.00    +0.000 C 
ATOM     13  C   UNL     1     -14.088  50.630  23.507  0.00  0.00    +0.000 A 
ATOM     14  C   UNL     1     -12.815  50.866  24.003  0.00  0.00    +0.000 A 
ATOM     15  N   UNL     1     -14.393  51.050  22.185  0.00  0.00    +0.000 N 
ATOM     16  C   UNL     1     -13.797  52.323  21.696  0.00  0.00    +0.000 C 
ATOM     17  C   UNL     1     -14.519  53.518  21.016  0.00  0.00    +0.000 C 
ATOM     18  N   UNL     1     -15.943  53.770  20.659  0.00  0.00    +0.000 N 
ATOM     19  C   UNL     1     -16.480  52.475  21.164  0.00  0.00    +0.000 C 
ATOM     20  C   UNL     1     -15.827  51.246  21.848  0.00  0.00    +0.000 C 
BRANCH  18  21
ATOM     21  C   UNL     1     -16.025  53.718  19.206  0.00  0.00    +0.000 C 
ATOM     22  C   UNL     1     -16.110  53.666  17.675  0.00  0.00    +0.000 C 
BRANCH  22  23
ATOM     23  O   UNL     1     -16.184  53.623  16.350  0.00  0.00    +0.000 OA
ATOM     24  H   UNL     1     -16.642  52.816  16.062  0.00  0.00    +0.000 HD
ENDBRANCH  22  23
ENDBRANCH  18  21
ENDBRANCH   1   8
BRANCH   5  25
ATOM     25  C   UNL     1      -6.955  47.928  26.743  0.00  0.00    +0.000 C 
ATOM     26  O   UNL     1      -6.892  47.294  27.794  0.00  0.00    +0.000 OA
ATOM     27  N   UNL     1      -5.823  48.275  26.016  0.00  0.00    +0.000 N 
ATOM     28  H   UNL     1      -5.869  49.171  25.532  0.00  0.00    +0.000 HD
BRANCH  27  29
ATOM     29  C   UNL     1      -4.500  47.859  26.356  0.00  0.00    +0.000 A 
ATOM     30  C   UNL     1      -3.636  48.814  26.931  0.00  0.00    +0.000 A 
ATOM     31  C   UNL     1      -2.340  48.481  27.322  0.00  0.00    +0.000 A 
ATOM     32  C   UNL     1      -4.104  50.237  27.160  0.00  0.00    +0.000 C 
ATOM     33  C   UNL     1      -1.870  47.189  27.127  0.00  0.00    +0.000 A 
ATOM     34  C   UNL     1      -2.682  46.250  26.499  0.00  0.00    +0.000 A 
ATOM     35  C   UNL     1      -3.983  46.577  26.105  0.00  0.00    +0.000 A 
ATOM     36 CL   UNL     1      -4.768  45.409  25.101  0.00  0.00    +0.000 Cl
ENDBRANCH  27  29
ENDBRANCH   5  25
TORSDOF 5
ENDMDL
MODEL 2
REMARK VINA RESULT:      -6.2     24.715     27.533
REMARK  Name = Dasatinib.pdbqt.pdb
REMARK  5 active torsions:
REMARK  status: ('A' for Active; 'I' for Inactive)
REMARK    1  A    between atoms: N_1  and  C_3
REMARK    2  A    between atoms: N_13  and  C_16
REMARK    3  A    between atoms: C_17  and  O_18
REMARK    4  A    between atoms: C_22  and  C_25
REMARK    5  A    between atoms: N_27  and  C_29
REMARK                            x       y       z     vdW  Elec       q    Type
REMARK                         _______ _______ _______ _____ _____    ______ ____
ROOT
ATOM      1  N   UNL     1       8.053  43.833   4.914  0.00  0.00    +0.000 N 
ATOM      2  H   UNL     1       8.774  43.840   4.203  0.00  0.00    +0.000 HD
ATOM      3  C   UNL     1       7.089  42.893   4.779  0.00  0.00    +0.000 A 
ATOM      4  S   UNL     1       7.077  41.905   3.359  0.00  0.00    +0.000 S 
ATOM      5  C   UNL     1       5.676  41.096   3.923  0.00  0.00    +0.000 A 
ATOM      6  C   UNL     1       5.314  41.638   5.133  0.00  0.00    +0.000 A 
ATOM      7  N   UNL     1       6.090  42.667   5.602  0.00  0.00    +0.000 NA
ENDROOT
BRANCH   1   8
ATOM      8  C   UNL     1       8.492  44.358   6.149  0.00  0.00    +0.000 A 
ATOM      9  N   UNL     1       9.281  43.656   6.971  0.00  0.00    +0.000 NA
ATOM     10  C   UNL     1       9.596  44.217   8.143  0.00  0.00    +0.000 A 
ATOM     11  N   UNL     1       9.203  45.428   8.556  0.00  0.00    +0.000 NA
ATOM     12  C   UNL     1      10.497  43.443   9.062  0.00  0.00    +0.000 C 
ATOM     13  C   UNL     1       8.423  46.134   7.720  0.00  0.00    +0.000 A 
ATOM     14  C   UNL     1       8.033  45.616   6.495  0.00  0.00    +0.000 A 
ATOM     15  N   UNL     1       7.932  47.410   8.108  0.00  0.00    +0.000 N 
ATOM     16  C   UNL     1       7.764  48.448   7.056  0.00  0.00    +0.000 C 
ATOM     17  C   UNL     1       8.277  49.913   7.067  0.00  0.00    +0.000 C 
ATOM     18  N   UNL     1       9.057  50.705   8.060  0.00  0.00    +0.000 N 
ATOM     19  C   UNL     1       9.190  49.625   9.077  0.00  0.00    +0.000 C 
ATOM     20  C   UNL     1       8.708  48.152   9.136  0.00  0.00    +0.000 C 
BRANCH  18  21
ATOM     21  C   UNL     1       8.143  51.694   8.616  0.00  0.00    +0.000 C 
ATOM     22  C   UNL     1       7.182  52.737   9.201  0.00  0.00    +0.000 C 
BRANCH  22  23
ATOM     23  O   UNL     1       6.353  53.641   9.708  0.00  0.00    +0.000 OA
ATOM     24  H   UNL     1       5.957  53.314  10.533  0.00  0.00    +0.000 HD
ENDBRANCH  22  23
ENDBRANCH  18  21
ENDBRANCH   1   8
BRANCH   5  25
ATOM     25  C   UNL     1       5.075  40.023   3.164  0.00  0.00    +0.000 C 
ATOM     26  O   UNL     1       5.279  39.851   1.964  0.00  0.00    +0.000 OA
ATOM     27  N   UNL     1       4.178  39.245   3.885  0.00  0.00    +0.000 N 
ATOM     28  H   UNL     1       3.678  39.727   4.630  0.00  0.00    +0.000 HD
BRANCH  27  29
ATOM     29  C   UNL     1       3.481  38.123   3.340  0.00  0.00    +0.000 A 
ATOM     30  C   UNL     1       2.105  38.271   3.068  0.00  0.00    +0.000 A 
ATOM     31  C   UNL     1       1.359  37.236   2.506  0.00  0.00    +0.000 A 
ATOM     32  C   UNL     1       1.397  39.577   3.365  0.00  0.00    +0.000 C 
ATOM     33  C   UNL     1       1.968  36.021   2.222  0.00  0.00    +0.000 A 
ATOM     34  C   UNL     1       3.307  35.831   2.546  0.00  0.00    +0.000 A 
ATOM     35  C   UNL     1       4.061  36.865   3.109  0.00  0.00    +0.000 A 
ATOM     36 CL   UNL     1       5.617  36.406   3.706  0.00  0.00    +0.000 Cl
ENDBRANCH  27  29
ENDBRANCH   5  25
TORSDOF 5
ENDMDL
MODEL 3
REMARK VINA RESULT:      -6.0     24.818     27.679
REMARK  Name = Dasatinib.pdbqt.pdb
REMARK  5 active torsions:
REMARK  status: ('A' for Active; 'I' for Inactive)
REMARK    1  A    between atoms: N_1  and  C_3
REMARK    2  A    between atoms: N_13  and  C_16
REMARK    3  A    between atoms: C_17  and  O_18
REMARK    4  A    between atoms: C_22  and  C_25
REMARK    5  A    between atoms: N_27  and  C_29
REMARK                            x       y       z     vdW  Elec       q    Type
REMARK                         _______ _______ _______ _____ _____    ______ ____
ROOT
ATOM      1  N   UNL     1      -0.356  26.383  15.373  0.00  0.00    +0.000 N 
ATOM      2  H   UNL     1      -0.842  25.545  15.077  0.00  0.00    +0.000 HD
ATOM      3  C   UNL     1      -0.068  27.282  14.403  0.00  0.00    +0.000 A 
ATOM      4  S   UNL     1      -0.406  26.873  12.757  0.00  0.00    +0.000 S 
ATOM      5  C   UNL     1       0.213  28.386  12.244  0.00  0.00    +0.000 A 
ATOM      6  C   UNL     1       0.638  29.083  13.350  0.00  0.00    +0.000 A 
ATOM      7  N   UNL     1       0.507  28.453  14.561  0.00  0.00    +0.000 NA
ENDROOT
BRANCH   1   8
ATOM      8  C   UNL     1      -0.599  26.713  16.724  0.00  0.00    +0.000 A 
ATOM      9  N   UNL     1       0.223  27.515  17.411  0.00  0.00    +0.000 NA
ATOM     10  C   UNL     1      -0.061  27.723  18.701  0.00  0.00    +0.000 A 
ATOM     11  N   UNL     1      -1.108  27.210  19.358  0.00  0.00    +0.000 NA
ATOM     12  C   UNL     1       0.846  28.637  19.472  0.00  0.00    +0.000 C 
ATOM     13  C   UNL     1      -1.939  26.418  18.659  0.00  0.00    +0.000 A 
ATOM     14  C   UNL     1      -1.703  26.135  17.322  0.00  0.00    +0.000 A 
ATOM     15  N   UNL     1      -3.048  25.804  19.300  0.00  0.00    +0.000 N 
ATOM     16  C   UNL     1      -4.294  25.603  18.513  0.00  0.00    +0.000 C 
ATOM     17  C   UNL     1      -5.746  25.992  18.902  0.00  0.00    +0.000 C 
ATOM     18  N   UNL     1      -6.329  26.652  20.104  0.00  0.00    +0.000 N 
ATOM     19  C   UNL     1      -5.048  26.822  20.847  0.00  0.00    +0.000 C 
ATOM     20  C   UNL     1      -3.575  26.462  20.524  0.00  0.00    +0.000 C 
BRANCH  18  21
ATOM     21  C   UNL     1      -7.091  25.632  20.812  0.00  0.00    +0.000 C 
ATOM     22  C   UNL     1      -7.895  24.560  21.559  0.00  0.00    +0.000 C 
BRANCH  22  23
ATOM     23  O   UNL     1      -8.592  23.634  22.205  0.00  0.00    +0.000 OA
ATOM     24  H   UNL     1      -8.809  22.896  21.611  0.00  0.00    +0.000 HD
ENDBRANCH  22  23
ENDBRANCH  18  21
ENDBRANCH   1   8
BRANCH   5  25
ATOM     25  C   UNL     1       0.217  28.760  10.848  0.00  0.00    +0.000 C 
ATOM     26  O   UNL     1      -0.543  29.602  10.375  0.00  0.00    +0.000 OA
ATOM     27  N   UNL     1       1.096  28.026  10.062  0.00  0.00    +0.000 N 
ATOM     28  H   UNL     1       1.265  27.068  10.367  0.00  0.00    +0.000 HD
BRANCH  27  29
ATOM     29  C   UNL     1       1.275  28.235   8.660  0.00  0.00    +0.000 A 
ATOM     30  C   UNL     1       0.399  27.570   7.777  0.00  0.00    +0.000 A 
ATOM     31  C   UNL     1       0.485  27.746   6.397  0.00  0.00    +0.000 A 
ATOM     32  C   UNL     1      -0.683  26.653   8.311  0.00  0.00    +0.000 C 
ATOM     33  C   UNL     1       1.464  28.576   5.866  0.00  0.00    +0.000 A 
ATOM     34  C   UNL     1       2.381  29.186   6.714  0.00  0.00    +0.000 A 
ATOM     35  C   UNL     1       2.301  29.015   8.099  0.00  0.00    +0.000 A 
ATOM     36 CL   UNL     1       3.655  29.602   8.998  0.00  0.00    +0.000 Cl
ENDBRANCH  27  29
ENDBRANCH   5  25
TORSDOF 5
ENDMDL
MODEL 4
REMARK VINA RESULT:      -6.0      3.089      4.797
REMARK  Name = Dasatinib.pdbqt.pdb
REMARK  5 active torsions:
REMARK  status: ('A' for Active; 'I' for Inactive)
REMARK    1  A    between atoms: N_1  and  C_3
REMARK    2  A    between atoms: N_13  and  C_16
REMARK    3  A    between atoms: C_17  and  O_18
REMARK    4  A    between atoms: C_22  and  C_25
REMARK    5  A    between atoms: N_27  and  C_29
REMARK                            x       y       z     vdW  Elec       q    Type
REMARK                         _______ _______ _______ _____ _____    ______ ____
ROOT
ATOM      1  N   UNL     1     -10.578  51.911  25.381  0.00  0.00    +0.000 N 
ATOM      2  H   UNL     1     -10.498  52.523  26.185  0.00  0.00    +0.000 HD
ATOM      3  C   UNL     1      -9.751  50.840  25.359  0.00  0.00    +0.000 A 
ATOM      4  S   UNL     1      -8.549  50.686  26.593  0.00  0.00    +0.000 S 
ATOM      5  C   UNL     1      -7.990  49.232  25.879  0.00  0.00    +0.000 A 
ATOM      6  C   UNL     1      -8.743  48.976  24.758  0.00  0.00    +0.000 A 
ATOM      7  N   UNL     1      -9.714  49.894  24.448  0.00  0.00    +0.000 NA
ENDROOT
BRANCH   1   8
ATOM      8  C   UNL     1     -11.859  51.946  24.788  0.00  0.00    +0.000 A 
ATOM      9  N   UNL     1     -12.032  52.301  23.510  0.00  0.00    +0.000 NA
ATOM     10  C   UNL     1     -13.289  52.359  23.055  0.00  0.00    +0.000 A 
ATOM     11  N   UNL     1     -14.386  52.074  23.767  0.00  0.00    +0.000 NA
ATOM     12  C   UNL     1     -13.489  52.737  21.617  0.00  0.00    +0.000 C 
ATOM     13  C   UNL     1     -14.204  51.704  25.046  0.00  0.00    +0.000 A 
ATOM     14  C   UNL     1     -12.935  51.640  25.600  0.00  0.00    +0.000 A 
ATOM     15  N   UNL     1     -15.325  51.428  25.875  0.00  0.00    +0.000 N 
ATOM     16  C   UNL     1     -15.189  50.371  26.913  0.00  0.00    +0.000 C 
ATOM     17  C   UNL     1     -16.136  49.173  27.189  0.00  0.00    +0.000 C 
ATOM     18  N   UNL     1     -17.401  48.714  26.549  0.00  0.00    +0.000 N 
ATOM     19  C   UNL     1     -17.484  49.800  25.532  0.00  0.00    +0.000 C 
ATOM     20  C   UNL     1     -16.584  51.019  25.200  0.00  0.00    +0.000 C 
BRANCH  18  21
ATOM     21  C   UNL     1     -18.468  48.957  27.509  0.00  0.00    +0.000 C 
ATOM     22  C   UNL     1     -19.594  49.213  28.520  0.00  0.00    +0.000 C 
BRANCH  22  23
ATOM     23  O   UNL     1     -20.569  49.435  29.393  0.00  0.00    +0.000 OA
ATOM     24  H   UNL     1     -20.434  50.286  29.843  0.00  0.00    +0.000 HD
ENDBRANCH  22  23
ENDBRANCH  18  21
ENDBRANCH   1   8
BRANCH   5  25
ATOM     25  C   UNL     1      -6.904  48.479  26.466  0.00  0.00    +0.000 C 
ATOM     26  O   UNL     1      -7.059  47.688  27.393  0.00  0.00    +0.000 OA
ATOM     27  N   UNL     1      -5.651  48.785  25.951  0.00  0.00    +0.000 N 
ATOM     28  H   UNL     1      -5.531  49.743  25.624  0.00  0.00    +0.000 HD
BRANCH  27  29
ATOM     29  C   UNL     1      -4.441  48.153  26.372  0.00  0.00    +0.000 A 
ATOM     30  C   UNL     1      -3.465  48.953  27.002  0.00  0.00    +0.000 A 
ATOM     31  C   UNL     1      -2.272  48.408  27.473  0.00  0.00    +0.000 A 
ATOM     32  C   UNL     1      -3.698  50.436  27.204  0.00  0.00    +0.000 C 
ATOM     33  C   UNL     1      -2.017  47.053  27.305  0.00  0.00    +0.000 A 
ATOM     34  C   UNL     1      -2.936  46.260  26.625  0.00  0.00    +0.000 A 
ATOM     35  C   UNL     1      -4.135  46.800  26.151  0.00  0.00    +0.000 A 
ATOM     36 CL   UNL     1      -5.044  45.774  25.098  0.00  0.00    +0.000 Cl
ENDBRANCH  27  29
ENDBRANCH   5  25
TORSDOF 5
ENDMDL
MODEL 5
REMARK VINA RESULT:      -5.8     22.910     25.767
REMARK  Name = Dasatinib.pdbqt.pdb
REMARK  5 active torsions:
REMARK  status: ('A' for Active; 'I' for Inactive)
REMARK    1  A    between atoms: N_1  and  C_3
REMARK    2  A    between atoms: N_13  and  C_16
REMARK    3  A    between atoms: C_17  and  O_18
REMARK    4  A    between atoms: C_22  and  C_25
REMARK    5  A    between atoms: N_27  and  C_29
REMARK                            x       y       z     vdW  Elec       q    Type
REMARK                         _______ _______ _______ _____ _____    ______ ____
ROOT
ATOM      1  N   UNL     1     -15.719  43.410   0.462  0.00  0.00    +0.000 N 
ATOM      2  H   UNL     1     -15.957  42.631  -0.140  0.00  0.00    +0.000 HD
ATOM      3  C   UNL     1     -15.745  43.167   1.793  0.00  0.00    +0.000 A 
ATOM      4  S   UNL     1     -16.313  41.633   2.353  0.00  0.00    +0.000 S 
ATOM      5  C   UNL     1     -16.062  42.121   3.976  0.00  0.00    +0.000 A 
ATOM      6  C   UNL     1     -15.579  43.408   3.976  0.00  0.00    +0.000 A 
ATOM      7  N   UNL     1     -15.427  44.008   2.752  0.00  0.00    +0.000 NA
ENDROOT
BRANCH   1   8
ATOM      8  C   UNL     1     -14.875  44.352  -0.164  0.00  0.00    +0.000 A 
ATOM      9  N   UNL     1     -15.156  45.660  -0.159  0.00  0.00    +0.000 NA
ATOM     10  C   UNL     1     -14.326  46.468  -0.828  0.00  0.00    +0.000 A 
ATOM     11  N   UNL     1     -13.228  46.079  -1.487  0.00  0.00    +0.000 NA
ATOM     12  C   UNL     1     -14.625  47.938  -0.810  0.00  0.00    +0.000 C 
ATOM     13  C   UNL     1     -12.942  44.766  -1.476  0.00  0.00    +0.000 A 
ATOM     14  C   UNL     1     -13.764  43.859  -0.824  0.00  0.00    +0.000 A 
ATOM     15  N   UNL     1     -11.816  44.274  -2.189  0.00  0.00    +0.000 N 
ATOM     16  C   UNL     1     -11.079  43.111  -1.625  0.00  0.00    +0.000 C 
ATOM     17  C   UNL     1      -9.552  42.969  -1.389  0.00  0.00    +0.000 C 
ATOM     18  N   UNL     1      -8.402  43.886  -1.625  0.00  0.00    +0.000 N 
ATOM     19  C   UNL     1      -9.194  45.017  -2.185  0.00  0.00    +0.000 C 
ATOM     20  C   UNL     1     -10.707  45.229  -2.449  0.00  0.00    +0.000 C 
BRANCH  18  21
ATOM     21  C   UNL     1      -7.638  43.323  -2.730  0.00  0.00    +0.000 C 
ATOM     22  C   UNL     1      -6.832  42.728  -3.892  0.00  0.00    +0.000 C 
BRANCH  22  23
ATOM     23  O   UNL     1      -6.133  42.213  -4.896  0.00  0.00    +0.000 OA
ATOM     24  H   UNL     1      -5.250  42.616  -4.937  0.00  0.00    +0.000 HD
ENDBRANCH  22  23
ENDBRANCH  18  21
ENDBRANCH   1   8
BRANCH   5  25
ATOM     25  C   UNL     1     -16.336  41.227   5.078  0.00  0.00    +0.000 C 
ATOM     26  O   UNL     1     -15.901  41.406   6.213  0.00  0.00    +0.000 OA
ATOM     27  N   UNL     1     -17.066  40.098   4.731  0.00  0.00    +0.000 N 
ATOM     28  H   UNL     1     -16.926  39.758   3.780  0.00  0.00    +0.000 HD
BRANCH  27  29
ATOM     29  C   UNL     1     -17.463  39.089   5.661  0.00  0.00    +0.000 A 
ATOM     30  C   UNL     1     -18.784  39.129   6.153  0.00  0.00    +0.000 A 
ATOM     31  C   UNL     1     -19.260  38.163   7.038  0.00  0.00    +0.000 A 
ATOM     32  C   UNL     1     -19.737  40.222   5.713  0.00  0.00    +0.000 C 
ATOM     33  C   UNL     1     -18.418  37.146   7.469  0.00  0.00    +0.000 A 
ATOM     34  C   UNL     1     -17.093  37.128   7.050  0.00  0.00    +0.000 A 
ATOM     35  C   UNL     1     -16.609  38.093   6.162  0.00  0.00    +0.000 A 
ATOM     36 CL   UNL     1     -14.894  38.107   5.947  0.00  0.00    +0.000 Cl
ENDBRANCH  27  29
ENDBRANCH   5  25
TORSDOF 5
ENDMDL
MODEL 6
REMARK VINA RESULT:      -5.8     19.442     22.612
REMARK  Name = Dasatinib.pdbqt.pdb
REMARK  5 active torsions:
REMARK  status: ('A' for Active; 'I' for Inactive)
REMARK    1  A    between atoms: N_1  and  C_3
REMARK    2  A    between atoms: N_13  and  C_16
REMARK    3  A    between atoms: C_17  and  O_18
REMARK    4  A    between atoms: C_22  and  C_25
REMARK    5  A    between atoms: N_27  and  C_29
REMARK                            x       y       z     vdW  Elec       q    Type
REMARK                         _______ _______ _______ _____ _____    ______ ____
ROOT
ATOM      1  N   UNL     1     -27.012  35.305  25.951  0.00  0.00    +0.000 N 
ATOM      2  H   UNL     1     -27.325  34.405  25.606  0.00  0.00    +0.000 HD
ATOM      3  C   UNL     1     -26.816  36.267  25.020  0.00  0.00    +0.000 A 
ATOM      4  S   UNL     1     -26.962  35.855  23.347  0.00  0.00    +0.000 S 
ATOM      5  C   UNL     1     -26.578  37.465  22.907  0.00  0.00    +0.000 A 
ATOM      6  C   UNL     1     -26.357  38.192  24.052  0.00  0.00    +0.000 A 
ATOM      7  N   UNL     1     -26.462  37.514  25.240  0.00  0.00    +0.000 NA
ENDROOT
BRANCH   1   8
ATOM      8  C   UNL     1     -27.402  35.549  27.286  0.00  0.00    +0.000 A 
ATOM      9  N   UNL     1     -28.690  35.629  27.638  0.00  0.00    +0.000 NA
ATOM     10  C   UNL     1     -28.958  35.921  28.916  0.00  0.00    +0.000 A 
ATOM     11  N   UNL     1     -28.047  36.122  29.874  0.00  0.00    +0.000 NA
ATOM     12  C   UNL     1     -30.401  35.993  29.322  0.00  0.00    +0.000 C 
ATOM     13  C   UNL     1     -26.754  36.025  29.518  0.00  0.00    +0.000 A 
ATOM     14  C   UNL     1     -26.391  35.748  28.209  0.00  0.00    +0.000 A 
ATOM     15  N   UNL     1     -25.730  36.268  30.472  0.00  0.00    +0.000 N 
ATOM     16  C   UNL     1     -24.469  35.487  30.364  0.00  0.00    +0.000 C 
ATOM     17  C   UNL     1     -23.736  34.693  31.479  0.00  0.00    +0.000 C 
ATOM     18  N   UNL     1     -24.036  34.461  32.920  0.00  0.00    +0.000 N 
ATOM     19  C   UNL     1     -25.292  35.260  32.966  0.00  0.00    +0.000 C 
ATOM     20  C   UNL     1     -26.077  36.073  31.904  0.00  0.00    +0.000 C 
BRANCH  18  21
ATOM     21  C   UNL     1     -23.039  35.204  33.678  0.00  0.00    +0.000 C 
ATOM     22  C   UNL     1     -21.990  35.987  34.479  0.00  0.00    +0.000 C 
BRANCH  22  23
ATOM     23  O   UNL     1     -21.085  36.667  35.171  0.00  0.00    +0.000 OA
ATOM     24  H   UNL     1     -20.203  36.557  34.778  0.00  0.00    +0.000 HD
ENDBRANCH  22  23
ENDBRANCH  18  21
ENDBRANCH   1   8
BRANCH   5  25
ATOM     25  C   UNL     1     -26.541  37.874  21.521  0.00  0.00    +0.000 C 
ATOM     26  O   UNL     1     -27.485  37.724  20.750  0.00  0.00    +0.000 OA
ATOM     27  N   UNL     1     -25.314  38.378  21.106  0.00  0.00    +0.000 N 
ATOM     28  H   UNL     1     -24.498  37.995  21.579  0.00  0.00    +0.000 HD
BRANCH  27  29
ATOM     29  C   UNL     1     -25.056  38.855  19.784  0.00  0.00    +0.000 A 
ATOM     30  C   UNL     1     -24.332  38.017  18.911  0.00  0.00    +0.000 A 
ATOM     31  C   UNL     1     -24.066  38.393  17.596  0.00  0.00    +0.000 A 
ATOM     32  C   UNL     1     -23.835  36.664  19.378  0.00  0.00    +0.000 C 
ATOM     33  C   UNL     1     -24.501  39.627  17.128  0.00  0.00    +0.000 A 
ATOM     34  C   UNL     1     -25.156  40.496  17.992  0.00  0.00    +0.000 A 
ATOM     35  C   UNL     1     -25.427  40.126  19.313  0.00  0.00    +0.000 A 
ATOM     36 CL   UNL     1     -25.995  41.397  20.337  0.00  0.00    +0.000 Cl
ENDBRANCH  27  29
ENDBRANCH   5  25
TORSDOF 5
ENDMDL
MODEL 7
REMARK VINA RESULT:      -5.8      6.799     10.900
REMARK  Name = Dasatinib.pdbqt.pdb
REMARK  5 active torsions:
REMARK  status: ('A' for Active; 'I' for Inactive)
REMARK    1  A    between atoms: N_1  and  C_3
REMARK    2  A    between atoms: N_13  and  C_16
REMARK    3  A    between atoms: C_17  and  O_18
REMARK    4  A    between atoms: C_22  and  C_25
REMARK    5  A    between atoms: N_27  and  C_29
REMARK                            x       y       z     vdW  Elec       q    Type
REMARK                         _______ _______ _______ _____ _____    ______ ____
ROOT
ATOM      1  N   UNL     1      -2.037  50.968  28.224  0.00  0.00    +0.000 N 
ATOM      2  H   UNL     1      -2.165  51.116  29.218  0.00  0.00    +0.000 HD
ATOM      3  C   UNL     1      -0.962  51.569  27.663  0.00  0.00    +0.000 A 
ATOM      4  S   UNL     1      -0.003  52.639  28.627  0.00  0.00    +0.000 S 
ATOM      5  C   UNL     1       1.019  52.945  27.287  0.00  0.00    +0.000 A 
ATOM      6  C   UNL     1       0.556  52.228  26.209  0.00  0.00    +0.000 A 
ATOM      7  N   UNL     1      -0.573  51.476  26.411  0.00  0.00    +0.000 NA
ENDROOT
BRANCH   1   8
ATOM      8  C   UNL     1      -2.606  49.759  27.770  0.00  0.00    +0.000 A 
ATOM      9  N   UNL     1      -1.943  48.599  27.843  0.00  0.00    +0.000 NA
ATOM     10  C   UNL     1      -2.544  47.517  27.335  0.00  0.00    +0.000 A 
ATOM     11  N   UNL     1      -3.759  47.495  26.775  0.00  0.00    +0.000 NA
ATOM     12  C   UNL     1      -1.814  46.209  27.432  0.00  0.00    +0.000 C 
ATOM     13  C   UNL     1      -4.426  48.660  26.717  0.00  0.00    +0.000 A 
ATOM     14  C   UNL     1      -3.865  49.831  27.202  0.00  0.00    +0.000 A 
ATOM     15  N   UNL     1      -5.703  48.722  26.099  0.00  0.00    +0.000 N 
ATOM     16  C   UNL     1      -6.707  49.671  26.650  0.00  0.00    +0.000 C 
ATOM     17  C   UNL     1      -8.181  49.383  27.043  0.00  0.00    +0.000 C 
ATOM     18  N   UNL     1      -9.016  48.150  27.008  0.00  0.00    +0.000 N 
ATOM     19  C   UNL     1      -7.969  47.248  26.451  0.00  0.00    +0.000 C 
ATOM     20  C   UNL     1      -6.489  47.462  26.037  0.00  0.00    +0.000 C 
BRANCH  18  21
ATOM     21  C   UNL     1     -10.004  48.344  25.955  0.00  0.00    +0.000 C 
ATOM     22  C   UNL     1     -11.046  48.547  24.848  0.00  0.00    +0.000 C 
BRANCH  22  23
ATOM     23  O   UNL     1     -11.949  48.722  23.890  0.00  0.00    +0.000 OA
ATOM     24  H   UNL     1     -12.193  49.660  23.821  0.00  0.00    +0.000 HD
ENDBRANCH  22  23
ENDBRANCH  18  21
ENDBRANCH   1   8
BRANCH   5  25
ATOM     25  C   UNL     1       2.162  53.823  27.402  0.00  0.00    +0.000 C 
ATOM     26  O   UNL     1       2.247  54.708  28.249  0.00  0.00    +0.000 OA
ATOM     27  N   UNL     1       3.126  53.639  26.419  0.00  0.00    +0.000 N 
ATOM     28  H   UNL     1       2.779  53.317  25.516  0.00  0.00    +0.000 HD
BRANCH  27  29
ATOM     29  C   UNL     1       4.343  54.384  26.348  0.00  0.00    +0.000 A 
ATOM     30  C   UNL     1       4.389  55.488  25.471  0.00  0.00    +0.000 A 
ATOM     31  C   UNL     1       5.526  56.287  25.367  0.00  0.00    +0.000 A 
ATOM     32  C   UNL     1       3.186  55.850  24.625  0.00  0.00    +0.000 C 
ATOM     33  C   UNL     1       6.652  55.988  26.123  0.00  0.00    +0.000 A 
ATOM     34  C   UNL     1       6.652  54.865  26.942  0.00  0.00    +0.000 A 
ATOM     35  C   UNL     1       5.514  54.059  27.052  0.00  0.00    +0.000 A 
ATOM     36 CL   UNL     1       5.745  52.561  27.883  0.00  0.00    +0.000 Cl
ENDBRANCH  27  29
ENDBRANCH   5  25
TORSDOF 5
ENDMDL
MODEL 8
REMARK VINA RESULT:      -5.8      3.205      4.774
REMARK  Name = Dasatinib.pdbqt.pdb
REMARK  5 active torsions:
REMARK  status: ('A' for Active; 'I' for Inactive)
REMARK    1  A    between atoms: N_1  and  C_3
REMARK    2  A    between atoms: N_13  and  C_16
REMARK    3  A    between atoms: C_17  and  O_18
REMARK    4  A    between atoms: C_22  and  C_25
REMARK    5  A    between atoms: N_27  and  C_29
REMARK                            x       y       z     vdW  Elec       q    Type
REMARK                         _______ _______ _______ _____ _____    ______ ____
ROOT
ATOM      1  N   UNL     1     -11.596  52.176  25.433  0.00  0.00    +0.000 N 
ATOM      2  H   UNL     1     -11.792  52.571  26.345  0.00  0.00    +0.000 HD
ATOM      3  C   UNL     1     -10.581  51.282  25.374  0.00  0.00    +0.000 A 
ATOM      4  S   UNL     1      -9.626  51.006  26.789  0.00  0.00    +0.000 S 
ATOM      5  C   UNL     1      -8.663  49.879  25.930  0.00  0.00    +0.000 A 
ATOM      6  C   UNL     1      -9.126  49.802  24.638  0.00  0.00    +0.000 A 
ATOM      7  N   UNL     1     -10.185  50.611  24.316  0.00  0.00    +0.000 NA
ENDROOT
BRANCH   1   8
ATOM      8  C   UNL     1     -12.723  52.166  24.584  0.00  0.00    +0.000 A 
ATOM      9  N   UNL     1     -12.639  52.532  23.300  0.00  0.00    +0.000 NA
ATOM     10  C   UNL     1     -13.773  52.544  22.591  0.00  0.00    +0.000 A 
ATOM     11  N   UNL     1     -14.981  52.202  23.053  0.00  0.00    +0.000 NA
ATOM     12  C   UNL     1     -13.682  52.935  21.144  0.00  0.00    +0.000 C 
ATOM     13  C   UNL     1     -15.057  51.820  24.339  0.00  0.00    +0.000 A 
ATOM     14  C   UNL     1     -13.932  51.802  25.149  0.00  0.00    +0.000 A 
ATOM     15  N   UNL     1     -16.313  51.485  24.911  0.00  0.00    +0.000 N 
ATOM     16  C   UNL     1     -16.352  50.419  25.949  0.00  0.00    +0.000 C 
ATOM     17  C   UNL     1     -17.282  49.178  26.012  0.00  0.00    +0.000 C 
ATOM     18  N   UNL     1     -18.361  48.676  25.116  0.00  0.00    +0.000 N 
ATOM     19  C   UNL     1     -18.278  49.773  24.112  0.00  0.00    +0.000 C 
ATOM     20  C   UNL     1     -17.383  51.033  23.984  0.00  0.00    +0.000 C 
BRANCH  18  21
ATOM     21  C   UNL     1     -19.617  48.858  25.832  0.00  0.00    +0.000 C 
ATOM     22  C   UNL     1     -20.940  49.050  26.583  0.00  0.00    +0.000 C 
BRANCH  22  23
ATOM     23  O   UNL     1     -22.087  49.215  27.232  0.00  0.00    +0.000 OA
ATOM     24  H   UNL     1     -22.825  49.283  26.604  0.00  0.00    +0.000 HD
ENDBRANCH  22  23
ENDBRANCH  18  21
ENDBRANCH   1   8
BRANCH   5  25
ATOM     25  C   UNL     1      -7.579  49.175  26.576  0.00  0.00    +0.000 C 
ATOM     26  O   UNL     1      -7.567  48.914  27.777  0.00  0.00    +0.000 OA
ATOM     27  N   UNL     1      -6.505  48.888  25.742  0.00  0.00    +0.000 N 
ATOM     28  H   UNL     1      -6.345  49.552  24.986  0.00  0.00    +0.000 HD
BRANCH  27  29
ATOM     29  C   UNL     1      -5.335  48.186  26.164  0.00  0.00    +0.000 A 
ATOM     30  C   UNL     1      -5.349  46.778  26.095  0.00  0.00    +0.000 A 
ATOM     31  C   UNL     1      -4.236  46.020  26.456  0.00  0.00    +0.000 A 
ATOM     32  C   UNL     1      -6.579  46.044  25.601  0.00  0.00    +0.000 C 
ATOM     33  C   UNL     1      -3.089  46.653  26.917  0.00  0.00    +0.000 A 
ATOM     34  C   UNL     1      -3.078  48.037  27.059  0.00  0.00    +0.000 A 
ATOM     35  C   UNL     1      -4.190  48.803  26.697  0.00  0.00    +0.000 A 
ATOM     36 CL   UNL     1      -4.135  50.462  27.180  0.00  0.00    +0.000 Cl
ENDBRANCH  27  29
ENDBRANCH   5  25
TORSDOF 5
ENDMDL
MODEL 9
REMARK VINA RESULT:      -5.6     10.329     15.534
REMARK  Name = Dasatinib.pdbqt.pdb
REMARK  5 active torsions:
REMARK  status: ('A' for Active; 'I' for Inactive)
REMARK    1  A    between atoms: N_1  and  C_3
REMARK    2  A    between atoms: N_13  and  C_16
REMARK    3  A    between atoms: C_17  and  O_18
REMARK    4  A    between atoms: C_22  and  C_25
REMARK    5  A    between atoms: N_27  and  C_29
REMARK                            x       y       z     vdW  Elec       q    Type
REMARK                         _______ _______ _______ _____ _____    ______ ____
ROOT
ATOM      1  N   UNL     1     -20.480  46.660  20.640  0.00  0.00    +0.000 N 
ATOM      2  H   UNL     1     -19.684  46.126  20.314  0.00  0.00    +0.000 HD
ATOM      3  C   UNL     1     -21.693  46.076  20.497  0.00  0.00    +0.000 A 
ATOM      4  S   UNL     1     -21.802  44.570  19.654  0.00  0.00    +0.000 S 
ATOM      5  C   UNL     1     -23.499  44.553  19.887  0.00  0.00    +0.000 A 
ATOM      6  C   UNL     1     -23.860  45.688  20.573  0.00  0.00    +0.000 A 
ATOM      7  N   UNL     1     -22.850  46.559  20.892  0.00  0.00    +0.000 NA
ENDROOT
BRANCH   1   8
ATOM      8  C   UNL     1     -20.148  47.576  21.661  0.00  0.00    +0.000 A 
ATOM      9  N   UNL     1     -20.710  47.511  22.874  0.00  0.00    +0.000 NA
ATOM     10  C   UNL     1     -20.372  48.458  23.756  0.00  0.00    +0.000 A 
ATOM     11  N   UNL     1     -19.506  49.453  23.535  0.00  0.00    +0.000 NA
ATOM     12  C   UNL     1     -20.984  48.379  25.125  0.00  0.00    +0.000 C 
ATOM     13  C   UNL     1     -18.933  49.504  22.320  0.00  0.00    +0.000 A 
ATOM     14  C   UNL     1     -19.246  48.574  21.341  0.00  0.00    +0.000 A 
ATOM     15  N   UNL     1     -18.036  50.557  21.997  0.00  0.00    +0.000 N 
ATOM     16  C   UNL     1     -16.900  50.260  21.085  0.00  0.00    +0.000 C 
ATOM     17  C   UNL     1     -15.395  50.581  21.293  0.00  0.00    +0.000 C 
ATOM     18  N   UNL     1     -14.645  51.241  22.398  0.00  0.00    +0.000 N 
ATOM     19  C   UNL     1     -15.823  51.516  23.268  0.00  0.00    +0.000 C 
ATOM     20  C   UNL     1     -17.340  51.227  23.128  0.00  0.00    +0.000 C 
BRANCH  18  21
ATOM     21  C   UNL     1     -14.194  52.528  21.887  0.00  0.00    +0.000 C 
ATOM     22  C   UNL     1     -13.719  53.883  21.346  0.00  0.00    +0.000 C 
BRANCH  22  23
ATOM     23  O   UNL     1     -13.309  55.055  20.876  0.00  0.00    +0.000 OA
ATOM     24  H   UNL     1     -13.428  55.095  19.912  0.00  0.00    +0.000 HD
ENDBRANCH  22  23
ENDBRANCH  18  21
ENDBRANCH   1   8
BRANCH   5  25
ATOM     25  C   UNL     1     -24.309  43.456  19.407  0.00  0.00    +0.000 C 
ATOM     26  O   UNL     1     -24.376  43.138  18.222  0.00  0.00    +0.000 OA
ATOM     27  N   UNL     1     -25.076  42.838  20.387  0.00  0.00    +0.000 N 
ATOM     28  H   UNL     1     -25.377  43.439  21.153  0.00  0.00    +0.000 HD
BRANCH  27  29
ATOM     29  C   UNL     1     -25.937  41.726  20.141  0.00  0.00    +0.000 A 
ATOM     30  C   UNL     1     -25.445  40.435  20.426  0.00  0.00    +0.000 A 
ATOM     31  C   UNL     1     -26.232  39.299  20.245  0.00  0.00    +0.000 A 
ATOM     32  C   UNL     1     -24.039  40.248  20.961  0.00  0.00    +0.000 C 
ATOM     33  C   UNL     1     -27.525  39.426  19.754  0.00  0.00    +0.000 A 
ATOM     34  C   UNL     1     -28.006  40.682  19.401  0.00  0.00    +0.000 A 
ATOM     35  C   UNL     1     -27.222  41.826  19.580  0.00  0.00    +0.000 A 
ATOM     36 CL   UNL     1     -27.837  43.267  18.851  0.00  0.00    +0.000 Cl
ENDBRANCH  27  29
ENDBRANCH   5  25
TORSDOF 5
ENDMDL
