MODEL 1
REMARK VINA RESULT:      -5.0      0.000      0.000
REMARK  Name = Decitabine.pdbqt.pdb
REMARK  4 active torsions:
REMARK  status: ('A' for Active; 'I' for Inactive)
REMARK    1  A    between atoms: N_2  and  C1*_8
REMARK    2  A    between atoms: C4*_10  and  C5*_13
REMARK    3  A    between atoms: C3*_11  and  O3*_16
REMARK    4  A    between atoms: C5*_13  and  O5*_14
REMARK                            x       y       z     vdW  Elec       q    Type
REMARK                         _______ _______ _______ _____ _____    ______ ____
ROOT
ATOM      1  O   UNL     1     -14.493  38.083   6.132  0.00  0.00    +0.000 OA
ATOM      2  N   UNL     1     -16.513  39.208   6.019  0.00  0.00    +0.000 N 
ATOM      3  N   UNL     1     -16.379  37.036   6.892  0.00  0.00    +0.000 NA
ATOM      4  N   UNL     1     -18.469  38.168   6.764  0.00  0.00    +0.000 NA
ATOM      5  C   UNL     1     -15.703  38.120   6.329  0.00  0.00    +0.000 A 
ATOM      6  C   UNL     1     -17.794  39.006   6.314  0.00  0.00    +0.000 A 
ATOM      7  C   UNL     1     -17.670  37.088   7.097  0.00  0.00    +0.000 A 
ATOM      8  N   UNL     1     -18.279  36.010   7.653  0.00  0.00    +0.000 N 
ATOM      9  H   UNL     1     -19.259  35.917   7.419  0.00  0.00    +0.000 HD
ATOM     10  H   UNL     1     -17.738  35.157   7.569  0.00  0.00    +0.000 HD
ENDROOT
BRANCH   2  11
ATOM     11  C1* UNL     1     -16.109  40.382   5.466  0.00  0.00    +0.000 A 
ATOM     12  O4* UNL     1     -15.782  40.491   4.110  0.00  0.00    +0.000 OA
ATOM     13  C4* UNL     1     -15.419  41.825   3.886  0.00  0.00    +0.000 A 
ATOM     14  C3* UNL     1     -15.517  42.556   5.123  0.00  0.00    +0.000 A 
ATOM     15  C2* UNL     1     -15.962  41.637   6.089  0.00  0.00    +0.000 A 
BRANCH  14  16
ATOM     16  O3* UNL     1     -15.821  43.887   5.132  0.00  0.00    +0.000 OA
ATOM     17  H3* UNL     1     -15.611  44.288   5.994  0.00  0.00    +0.000 HD
ENDBRANCH  14  16
BRANCH  13  18
ATOM     18  C5* UNL     1     -15.192  42.342   2.595  0.00  0.00    +0.000 C 
BRANCH  18  19
ATOM     19  O5* UNL     1     -14.972  42.830   1.378  0.00  0.00    +0.000 OA
ATOM     20  H5* UNL     1     -15.405  43.696   1.280  0.00  0.00    +0.000 HD
ENDBRANCH  18  19
ENDBRANCH  13  18
ENDBRANCH   2  11
TORSDOF 4
ENDMDL
MODEL 2
REMARK VINA RESULT:      -4.8      2.969      6.005
REMARK  Name = Decitabine.pdbqt.pdb
REMARK  4 active torsions:
REMARK  status: ('A' for Active; 'I' for Inactive)
REMARK    1  A    between atoms: N_2  and  C1*_8
REMARK    2  A    between atoms: C4*_10  and  C5*_13
REMARK    3  A    between atoms: C3*_11  and  O3*_16
REMARK    4  A    between atoms: C5*_13  and  O5*_14
REMARK                            x       y       z     vdW  Elec       q    Type
REMARK                         _______ _______ _______ _____ _____    ______ ____
ROOT
ATOM      1  O   UNL     1     -15.905  38.725   3.673  0.00  0.00    +0.000 OA
ATOM      2  N   UNL     1     -16.551  39.707   5.667  0.00  0.00    +0.000 N 
ATOM      3  N   UNL     1     -15.399  40.926   4.029  0.00  0.00    +0.000 NA
ATOM      4  N   UNL     1     -16.036  41.948   6.083  0.00  0.00    +0.000 NA
ATOM      5  C   UNL     1     -15.956  39.704   4.409  0.00  0.00    +0.000 A 
ATOM      6  C   UNL     1     -16.470  40.884   6.280  0.00  0.00    +0.000 A 
ATOM      7  C   UNL     1     -15.460  41.963   4.824  0.00  0.00    +0.000 A 
ATOM      8  N   UNL     1     -14.908  43.130   4.406  0.00  0.00    +0.000 N 
ATOM      9  H   UNL     1     -14.611  43.744   5.153  0.00  0.00    +0.000 HD
ATOM     10  H   UNL     1     -14.232  43.010   3.660  0.00  0.00    +0.000 HD
ENDROOT
BRANCH   2  11
ATOM     11  C1* UNL     1     -17.164  38.654   6.270  0.00  0.00    +0.000 A 
ATOM     12  O4* UNL     1     -18.515  38.689   6.632  0.00  0.00    +0.000 OA
ATOM     13  C4* UNL     1     -18.811  37.450   7.215  0.00  0.00    +0.000 A 
ATOM     14  C3* UNL     1     -17.624  36.634   7.222  0.00  0.00    +0.000 A 
ATOM     15  C2* UNL     1     -16.615  37.403   6.615  0.00  0.00    +0.000 A 
BRANCH  14  16
ATOM     16  O3* UNL     1     -17.704  35.273   7.143  0.00  0.00    +0.000 OA
ATOM     17  H3* UNL     1     -17.790  34.877   8.028  0.00  0.00    +0.000 HD
ENDBRANCH  14  16
BRANCH  13  18
ATOM     18  C5* UNL     1     -20.124  37.062   7.546  0.00  0.00    +0.000 C 
BRANCH  18  19
ATOM     19  O5* UNL     1     -21.363  36.697   7.863  0.00  0.00    +0.000 OA
ATOM     20  H5* UNL     1     -21.945  36.772   7.087  0.00  0.00    +0.000 HD
ENDBRANCH  18  19
ENDBRANCH  13  18
ENDBRANCH   2  11
TORSDOF 4
ENDMDL
MODEL 3
REMARK VINA RESULT:      -4.8     22.386     24.005
REMARK  Name = Decitabine.pdbqt.pdb
REMARK  4 active torsions:
REMARK  status: ('A' for Active; 'I' for Inactive)
REMARK    1  A    between atoms: N_2  and  C1*_8
REMARK    2  A    between atoms: C4*_10  and  C5*_13
REMARK    3  A    between atoms: C3*_11  and  O3*_16
REMARK    4  A    between atoms: C5*_13  and  O5*_14
REMARK                            x       y       z     vdW  Elec       q    Type
REMARK                         _______ _______ _______ _____ _____    ______ ____
ROOT
ATOM      1  O   UNL     1       0.376  26.245  17.567  0.00  0.00    +0.000 OA
ATOM      2  N   UNL     1      -0.851  28.188  17.843  0.00  0.00    +0.000 N 
ATOM      3  N   UNL     1       0.113  27.643  15.777  0.00  0.00    +0.000 NA
ATOM      4  N   UNL     1      -1.128  29.657  16.046  0.00  0.00    +0.000 NA
ATOM      5  C   UNL     1      -0.092  27.282  17.109  0.00  0.00    +0.000 A 
ATOM      6  C   UNL     1      -1.237  29.243  17.131  0.00  0.00    +0.000 A 
ATOM      7  C   UNL     1      -0.393  28.751  15.300  0.00  0.00    +0.000 A 
ATOM      8  N   UNL     1      -0.170  29.054  13.996  0.00  0.00    +0.000 N 
ATOM      9  H   UNL     1      -0.201  30.043  13.785  0.00  0.00    +0.000 HD
ATOM     10  H   UNL     1       0.619  28.559  13.599  0.00  0.00    +0.000 HD
ENDROOT
BRANCH   2  11
ATOM     11  C1* UNL     1      -1.196  28.076  19.153  0.00  0.00    +0.000 A 
ATOM     12  O4* UNL     1      -2.261  27.273  19.575  0.00  0.00    +0.000 OA
ATOM     13  C4* UNL     1      -2.327  27.385  20.969  0.00  0.00    +0.000 A 
ATOM     14  C3* UNL     1      -1.290  28.276  21.422  0.00  0.00    +0.000 A 
ATOM     15  C2* UNL     1      -0.590  28.682  20.272  0.00  0.00    +0.000 A 
BRANCH  14  16
ATOM     16  O3* UNL     1      -0.720  28.125  22.654  0.00  0.00    +0.000 OA
ATOM     17  H3* UNL     1      -1.268  27.560  23.225  0.00  0.00    +0.000 HD
ENDBRANCH  14  16
BRANCH  13  18
ATOM     18  C5* UNL     1      -3.174  26.579  21.755  0.00  0.00    +0.000 C 
BRANCH  18  19
ATOM     19  O5* UNL     1      -3.971  25.820  22.501  0.00  0.00    +0.000 OA
ATOM     20  H5* UNL     1      -4.840  25.724  22.075  0.00  0.00    +0.000 HD
ENDBRANCH  18  19
ENDBRANCH  13  18
ENDBRANCH   2  11
TORSDOF 4
ENDMDL
MODEL 4
REMARK VINA RESULT:      -4.8     23.070     24.182
REMARK  Name = Decitabine.pdbqt.pdb
REMARK  4 active torsions:
REMARK  status: ('A' for Active; 'I' for Inactive)
REMARK    1  A    between atoms: N_2  and  C1*_8
REMARK    2  A    between atoms: C4*_10  and  C5*_13
REMARK    3  A    between atoms: C3*_11  and  O3*_16
REMARK    4  A    between atoms: C5*_13  and  O5*_14
REMARK                            x       y       z     vdW  Elec       q    Type
REMARK                         _______ _______ _______ _____ _____    ______ ____
ROOT
ATOM      1  O   UNL     1      -5.119  49.487  26.635  0.00  0.00    +0.000 OA
ATOM      2  N   UNL     1      -5.596  47.398  25.757  0.00  0.00    +0.000 N 
ATOM      3  N   UNL     1      -3.486  47.886  26.655  0.00  0.00    +0.000 NA
ATOM      4  N   UNL     1      -3.950  45.739  25.737  0.00  0.00    +0.000 NA
ATOM      5  C   UNL     1      -4.773  48.341  26.366  0.00  0.00    +0.000 A 
ATOM      6  C   UNL     1      -4.993  46.230  25.556  0.00  0.00    +0.000 A 
ATOM      7  C   UNL     1      -3.130  46.661  26.363  0.00  0.00    +0.000 A 
ATOM      8  N   UNL     1      -1.868  46.266  26.670  0.00  0.00    +0.000 N 
ATOM      9  H   UNL     1      -1.512  45.518  26.090  0.00  0.00    +0.000 HD
ATOM     10  H   UNL     1      -1.228  47.039  26.809  0.00  0.00    +0.000 HD
ENDROOT
BRANCH   2  11
ATOM     11  C1* UNL     1      -6.887  47.583  25.375  0.00  0.00    +0.000 A 
ATOM     12  O4* UNL     1      -7.960  47.059  26.104  0.00  0.00    +0.000 OA
ATOM     13  C4* UNL     1      -9.130  47.443  25.437  0.00  0.00    +0.000 A 
ATOM     14  C3* UNL     1      -8.780  48.213  24.271  0.00  0.00    +0.000 A 
ATOM     15  C2* UNL     1      -7.376  48.298  24.263  0.00  0.00    +0.000 A 
BRANCH  14  16
ATOM     16  O3* UNL     1      -9.610  49.187  23.795  0.00  0.00    +0.000 OA
ATOM     17  H3* UNL     1      -9.244  50.072  23.964  0.00  0.00    +0.000 HD
ENDBRANCH  14  16
BRANCH  13  18
ATOM     18  C5* UNL     1     -10.414  47.236  25.979  0.00  0.00    +0.000 C 
BRANCH  18  19
ATOM     19  O5* UNL     1     -11.628  47.044  26.487  0.00  0.00    +0.000 OA
ATOM     20  H5* UNL     1     -11.571  46.526  27.308  0.00  0.00    +0.000 HD
ENDBRANCH  18  19
ENDBRANCH  13  18
ENDBRANCH   2  11
TORSDOF 4
ENDMDL
MODEL 5
REMARK VINA RESULT:      -4.5     21.961     22.757
REMARK  Name = Decitabine.pdbqt.pdb
REMARK  4 active torsions:
REMARK  status: ('A' for Active; 'I' for Inactive)
REMARK    1  A    between atoms: N_2  and  C1*_8
REMARK    2  A    between atoms: C4*_10  and  C5*_13
REMARK    3  A    between atoms: C3*_11  and  O3*_16
REMARK    4  A    between atoms: C5*_13  and  O5*_14
REMARK                            x       y       z     vdW  Elec       q    Type
REMARK                         _______ _______ _______ _____ _____    ______ ____
ROOT
ATOM      1  O   UNL     1      -3.210  27.736  17.594  0.00  0.00    +0.000 OA
ATOM      2  N   UNL     1      -0.946  28.215  17.669  0.00  0.00    +0.000 N 
ATOM      3  N   UNL     1      -2.244  28.166  19.621  0.00  0.00    +0.000 NA
ATOM      4  N   UNL     1       0.078  28.682  19.718  0.00  0.00    +0.000 NA
ATOM      5  C   UNL     1      -2.202  28.016  18.234  0.00  0.00    +0.000 A 
ATOM      6  C   UNL     1      -0.013  28.520  18.566  0.00  0.00    +0.000 A 
ATOM      7  C   UNL     1      -1.162  28.464  20.293  0.00  0.00    +0.000 A 
ATOM      8  N   UNL     1      -1.255  28.593  21.641  0.00  0.00    +0.000 N 
ATOM      9  H   UNL     1      -0.557  29.199  22.052  0.00  0.00    +0.000 HD
ATOM     10  H   UNL     1      -2.201  28.754  21.965  0.00  0.00    +0.000 HD
ENDROOT
BRANCH   2  11
ATOM     11  C1* UNL     1      -0.634  28.128  16.349  0.00  0.00    +0.000 A 
ATOM     12  O4* UNL     1      -0.980  27.015  15.576  0.00  0.00    +0.000 OA
ATOM     13  C4* UNL     1      -0.516  27.263  14.278  0.00  0.00    +0.000 A 
ATOM     14  C3* UNL     1       0.134  28.548  14.245  0.00  0.00    +0.000 A 
ATOM     15  C2* UNL     1       0.034  29.073  15.545  0.00  0.00    +0.000 A 
BRANCH  14  16
ATOM     16  O3* UNL     1       0.138  29.307  13.109  0.00  0.00    +0.000 OA
ATOM     17  H3* UNL     1       0.105  28.746  12.314  0.00  0.00    +0.000 HD
ENDBRANCH  14  16
BRANCH  13  18
ATOM     18  C5* UNL     1      -0.836  26.431  13.187  0.00  0.00    +0.000 C 
BRANCH  18  19
ATOM     19  O5* UNL     1      -1.135  25.642  12.159  0.00  0.00    +0.000 OA
ATOM     20  H5* UNL     1      -1.574  26.155  11.458  0.00  0.00    +0.000 HD
ENDBRANCH  18  19
ENDBRANCH  13  18
ENDBRANCH   2  11
TORSDOF 4
ENDMDL
MODEL 6
REMARK VINA RESULT:      -4.5     23.348     24.384
REMARK  Name = Decitabine.pdbqt.pdb
REMARK  4 active torsions:
REMARK  status: ('A' for Active; 'I' for Inactive)
REMARK    1  A    between atoms: N_2  and  C1*_8
REMARK    2  A    between atoms: C4*_10  and  C5*_13
REMARK    3  A    between atoms: C3*_11  and  O3*_16
REMARK    4  A    between atoms: C5*_13  and  O5*_14
REMARK                            x       y       z     vdW  Elec       q    Type
REMARK                         _______ _______ _______ _____ _____    ______ ____
ROOT
ATOM      1  O   UNL     1      -8.015  47.905  28.268  0.00  0.00    +0.000 OA
ATOM      2  N   UNL     1      -7.604  46.951  26.199  0.00  0.00    +0.000 N 
ATOM      3  N   UNL     1      -9.551  48.193  26.600  0.00  0.00    +0.000 NA
ATOM      4  N   UNL     1      -9.157  47.202  24.471  0.00  0.00    +0.000 NA
ATOM      5  C   UNL     1      -8.352  47.693  27.108  0.00  0.00    +0.000 A 
ATOM      6  C   UNL     1      -8.182  46.851  25.006  0.00  0.00    +0.000 A 
ATOM      7  C   UNL     1      -9.899  47.961  25.360  0.00  0.00    +0.000 A 
ATOM      8  N   UNL     1     -11.073  48.474  24.912  0.00  0.00    +0.000 N 
ATOM      9  H   UNL     1     -11.490  47.960  24.148  0.00  0.00    +0.000 HD
ATOM     10  H   UNL     1     -11.713  48.722  25.658  0.00  0.00    +0.000 HD
ENDROOT
BRANCH   2  11
ATOM     11  C1* UNL     1      -6.404  46.358  26.438  0.00  0.00    +0.000 A 
ATOM     12  O4* UNL     1      -5.214  46.839  25.882  0.00  0.00    +0.000 OA
ATOM     13  C4* UNL     1      -4.186  46.004  26.337  0.00  0.00    +0.000 A 
ATOM     14  C3* UNL     1      -4.747  44.983  27.186  0.00  0.00    +0.000 A 
ATOM     15  C2* UNL     1      -6.129  45.235  27.243  0.00  0.00    +0.000 A 
BRANCH  14  16
ATOM     16  O3* UNL     1      -4.022  44.441  28.208  0.00  0.00    +0.000 OA
ATOM     17  H3* UNL     1      -3.811  45.112  28.881  0.00  0.00    +0.000 HD
ENDBRANCH  14  16
BRANCH  13  18
ATOM     18  C5* UNL     1      -2.824  46.288  26.116  0.00  0.00    +0.000 C 
BRANCH  18  19
ATOM     19  O5* UNL     1      -1.539  46.557  25.903  0.00  0.00    +0.000 OA
ATOM     20  H5* UNL     1      -0.984  45.838  26.249  0.00  0.00    +0.000 HD
ENDBRANCH  18  19
ENDBRANCH  13  18
ENDBRANCH   2  11
TORSDOF 4
ENDMDL
MODEL 7
REMARK VINA RESULT:      -4.4     11.048     12.696
REMARK  Name = Decitabine.pdbqt.pdb
REMARK  4 active torsions:
REMARK  status: ('A' for Active; 'I' for Inactive)
REMARK    1  A    between atoms: N_2  and  C1*_8
REMARK    2  A    between atoms: C4*_10  and  C5*_13
REMARK    3  A    between atoms: C3*_11  and  O3*_16
REMARK    4  A    between atoms: C5*_13  and  O5*_14
REMARK                            x       y       z     vdW  Elec       q    Type
REMARK                         _______ _______ _______ _____ _____    ______ ____
ROOT
ATOM      1  O   UNL     1      -4.006  38.664   3.743  0.00  0.00    +0.000 OA
ATOM      2  N   UNL     1      -5.815  37.470   2.929  0.00  0.00    +0.000 N 
ATOM      3  N   UNL     1      -6.023  39.723   3.543  0.00  0.00    +0.000 NA
ATOM      4  N   UNL     1      -7.900  38.507   2.728  0.00  0.00    +0.000 NA
ATOM      5  C   UNL     1      -5.190  38.610   3.424  0.00  0.00    +0.000 A 
ATOM      6  C   UNL     1      -7.105  37.655   2.665  0.00  0.00    +0.000 A 
ATOM      7  C   UNL     1      -7.283  39.653   3.199  0.00  0.00    +0.000 A 
ATOM      8  N   UNL     1      -8.050  40.765   3.328  0.00  0.00    +0.000 N 
ATOM      9  H   UNL     1      -9.037  40.580   3.455  0.00  0.00    +0.000 HD
ATOM     10  H   UNL     1      -7.660  41.449   3.966  0.00  0.00    +0.000 HD
ENDROOT
BRANCH   2  11
ATOM     11  C1* UNL     1      -5.233  36.260   2.716  0.00  0.00    +0.000 A 
ATOM     12  O4* UNL     1      -5.307  35.225   3.654  0.00  0.00    +0.000 OA
ATOM     13  C4* UNL     1      -4.614  34.136   3.112  0.00  0.00    +0.000 A 
ATOM     14  C3* UNL     1      -4.095  34.501   1.819  0.00  0.00    +0.000 A 
ATOM     15  C2* UNL     1      -4.507  35.825   1.590  0.00  0.00    +0.000 A 
BRANCH  14  16
ATOM     16  O3* UNL     1      -3.931  33.566   0.836  0.00  0.00    +0.000 OA
ATOM     17  H3* UNL     1      -4.630  33.642   0.163  0.00  0.00    +0.000 HD
ENDBRANCH  14  16
BRANCH  13  18
ATOM     18  C5* UNL     1      -4.624  32.859   3.707  0.00  0.00    +0.000 C 
BRANCH  18  19
ATOM     19  O5* UNL     1      -4.633  31.651   4.264  0.00  0.00    +0.000 OA
ATOM     20  H5* UNL     1      -3.955  31.087   3.854  0.00  0.00    +0.000 HD
ENDBRANCH  18  19
ENDBRANCH  13  18
ENDBRANCH   2  11
TORSDOF 4
ENDMDL
MODEL 8
REMARK VINA RESULT:      -4.3     23.192     24.775
REMARK  Name = Decitabine.pdbqt.pdb
REMARK  4 active torsions:
REMARK  status: ('A' for Active; 'I' for Inactive)
REMARK    1  A    between atoms: N_2  and  C1*_8
REMARK    2  A    between atoms: C4*_10  and  C5*_13
REMARK    3  A    between atoms: C3*_11  and  O3*_16
REMARK    4  A    between atoms: C5*_13  and  O5*_14
REMARK                            x       y       z     vdW  Elec       q    Type
REMARK                         _______ _______ _______ _____ _____    ______ ____
ROOT
ATOM      1  O   UNL     1       0.388  27.308  21.839  0.00  0.00    +0.000 OA
ATOM      2  N   UNL     1      -1.024  27.719  20.050  0.00  0.00    +0.000 N 
ATOM      3  N   UNL     1       1.109  28.685  20.162  0.00  0.00    +0.000 NA
ATOM      4  N   UNL     1      -0.336  29.137  18.325  0.00  0.00    +0.000 NA
ATOM      5  C   UNL     1       0.163  27.855  20.764  0.00  0.00    +0.000 A 
ATOM      6  C   UNL     1      -1.036  28.418  18.919  0.00  0.00    +0.000 A 
ATOM      7  C   UNL     1       0.857  29.263  19.015  0.00  0.00    +0.000 A 
ATOM      8  N   UNL     1       1.813  30.056  18.468  0.00  0.00    +0.000 N 
ATOM      9  H   UNL     1       1.458  30.774  17.850  0.00  0.00    +0.000 HD
ATOM     10  H   UNL     1       2.502  30.375  19.139  0.00  0.00    +0.000 HD
ENDROOT
BRANCH   2  11
ATOM     11  C1* UNL     1      -2.100  26.972  20.412  0.00  0.00    +0.000 A 
ATOM     12  O4* UNL     1      -3.400  27.491  20.407  0.00  0.00    +0.000 OA
ATOM     13  C4* UNL     1      -4.250  26.459  20.823  0.00  0.00    +0.000 A 
ATOM     14  C3* UNL     1      -3.467  25.281  21.096  0.00  0.00    +0.000 A 
ATOM     15  C2* UNL     1      -2.132  25.623  20.819  0.00  0.00    +0.000 A 
BRANCH  14  16
ATOM     16  O3* UNL     1      -3.991  24.031  20.925  0.00  0.00    +0.000 OA
ATOM     17  H3* UNL     1      -4.061  23.809  19.980  0.00  0.00    +0.000 HD
ENDBRANCH  14  16
BRANCH  13  18
ATOM     18  C5* UNL     1      -5.654  26.567  20.775  0.00  0.00    +0.000 C 
BRANCH  18  19
ATOM     19  O5* UNL     1      -6.979  26.671  20.734  0.00  0.00    +0.000 OA
ATOM     20  H5* UNL     1      -7.276  27.409  21.294  0.00  0.00    +0.000 HD
ENDBRANCH  18  19
ENDBRANCH  13  18
ENDBRANCH   2  11
TORSDOF 4
ENDMDL
MODEL 9
REMARK VINA RESULT:      -4.2     21.639     23.047
REMARK  Name = Decitabine.pdbqt.pdb
REMARK  4 active torsions:
REMARK  status: ('A' for Active; 'I' for Inactive)
REMARK    1  A    between atoms: N_2  and  C1*_8
REMARK    2  A    between atoms: C4*_10  and  C5*_13
REMARK    3  A    between atoms: C3*_11  and  O3*_16
REMARK    4  A    between atoms: C5*_13  and  O5*_14
REMARK                            x       y       z     vdW  Elec       q    Type
REMARK                         _______ _______ _______ _____ _____    ______ ____
ROOT
ATOM      1  O   UNL     1      -1.655  26.192  20.159  0.00  0.00    +0.000 OA
ATOM      2  N   UNL     1      -2.755  27.466  18.569  0.00  0.00    +0.000 N 
ATOM      3  N   UNL     1      -0.445  27.676  18.908  0.00  0.00    +0.000 NA
ATOM      4  N   UNL     1      -1.562  29.011  17.284  0.00  0.00    +0.000 NA
ATOM      5  C   UNL     1      -1.633  27.044  19.276  0.00  0.00    +0.000 A 
ATOM      6  C   UNL     1      -2.482  28.407  17.671  0.00  0.00    +0.000 A 
ATOM      7  C   UNL     1      -0.436  28.583  17.965  0.00  0.00    +0.000 A 
ATOM      8  N   UNL     1       0.747  29.164  17.640  0.00  0.00    +0.000 N 
ATOM      9  H   UNL     1       0.663  30.092  17.246  0.00  0.00    +0.000 HD
ATOM     10  H   UNL     1       1.451  29.071  18.363  0.00  0.00    +0.000 HD
ENDROOT
BRANCH   2  11
ATOM     11  C1* UNL     1      -4.026  27.012  18.730  0.00  0.00    +0.000 A 
ATOM     12  O4* UNL     1      -4.655  26.990  19.980  0.00  0.00    +0.000 OA
ATOM     13  C4* UNL     1      -5.942  26.476  19.779  0.00  0.00    +0.000 A 
ATOM     14  C3* UNL     1      -6.115  26.168  18.382  0.00  0.00    +0.000 A 
ATOM     15  C2* UNL     1      -4.912  26.524  17.748  0.00  0.00    +0.000 A 
BRANCH  14  16
ATOM     16  O3* UNL     1      -7.345  26.242  17.792  0.00  0.00    +0.000 OA
ATOM     17  H3* UNL     1      -7.804  25.385  17.833  0.00  0.00    +0.000 HD
ENDBRANCH  14  16
BRANCH  13  18
ATOM     18  C5* UNL     1      -6.922  26.468  20.791  0.00  0.00    +0.000 C 
BRANCH  18  19
ATOM     19  O5* UNL     1      -7.843  26.459  21.749  0.00  0.00    +0.000 OA
ATOM     20  H5* UNL     1      -8.433  27.226  21.655  0.00  0.00    +0.000 HD
ENDBRANCH  18  19
ENDBRANCH  13  18
ENDBRANCH   2  11
TORSDOF 4
ENDMDL
