MODEL 1
REMARK VINA RESULT:      -5.0      0.000      0.000
REMARK  Name = Deferoxamine.pdbqt.pdb
REMARK  19 active torsions:
REMARK  status: ('A' for Active; 'I' for Inactive)
REMARK    1  A    between atoms: C_1  and  C_2
REMARK    2  A    between atoms: C_3  and  C_4
REMARK    3  A    between atoms: C_4  and  N_5
REMARK    4  A    between atoms: C_6  and  C_9
REMARK    5  A    between atoms: C_10  and  C_11
REMARK    6  A    between atoms: N_13  and  O_14
REMARK    7  A    between atoms: N_13  and  C_16
REMARK    8  A    between atoms: C_17  and  C_18
REMARK    9  A    between atoms: C_19  and  C_20
REMARK   10  A    between atoms: C_20  and  N_21
REMARK   11  A    between atoms: C_24  and  N_25
REMARK   12  A    between atoms: N_25  and  O_28
REMARK   13  A    between atoms: C_26  and  C_30
REMARK   14  A    between atoms: C_31  and  C_32
REMARK   15  A    between atoms: N_34  and  C_36
REMARK   16  A    between atoms: C_37  and  C_38
REMARK   17  A    between atoms: C_38  and  C_39
REMARK   18  A    between atoms: C_40  and  N_41
REMARK   19  A    between atoms: N_41  and  O_45
REMARK                            x       y       z     vdW  Elec       q    Type
REMARK                         _______ _______ _______ _____ _____    ______ ____
ROOT
ATOM      1  C   UNL     1      -1.691  27.449  16.900  0.00  0.00    +0.000 C 
ATOM      2  C   UNL     1      -2.460  27.206  17.791  0.00  0.00    +0.000 C 
ENDROOT
BRANCH   2   3
ATOM      3  N   UNL     1      -3.325  26.934  18.790  0.00  0.00    +0.000 N 
ATOM      4  C   UNL     1      -3.309  27.305  20.123  0.00  0.00    +0.000 C 
ATOM      5  O   UNL     1      -2.363  27.840  20.691  0.00  0.00    +0.000 OA
BRANCH   4   6
ATOM      6  C   UNL     1      -4.487  27.008  20.912  0.00  0.00    +0.000 C 
ATOM      7  C   UNL     1      -5.460  26.770  21.576  0.00  0.00    +0.000 C 
BRANCH   7   8
ATOM      8  C   UNL     1      -6.614  26.488  22.393  0.00  0.00    +0.000 C 
ATOM      9  O   UNL     1      -7.730  26.638  21.915  0.00  0.00    +0.000 OA
ATOM     10  N   UNL     1      -6.337  26.063  23.673  0.00  0.00    +0.000 N 
ATOM     11  H   UNL     1      -5.357  25.985  23.915  0.00  0.00    +0.000 HD
BRANCH  10  12
ATOM     12  C   UNL     1      -7.193  25.726  24.662  0.00  0.00    +0.000 C 
ATOM     13  C   UNL     1      -7.952  25.431  25.543  0.00  0.00    +0.000 C 
BRANCH  13  14
ATOM     14  C   UNL     1      -8.919  25.063  26.673  0.00  0.00    +0.000 C 
BRANCH  14  15
ATOM     15  C   UNL     1      -9.886  24.704  27.804  0.00  0.00    +0.000 C 
ATOM     16  C   UNL     1     -10.647  24.422  28.689  0.00  0.00    +0.000 C 
BRANCH  16  17
ATOM     17  N   UNL     1     -11.504  24.102  29.677  0.00  0.00    +0.000 N 
ATOM     18  C   UNL     1     -12.865  24.264  29.785  0.00  0.00    +0.000 C 
ATOM     19  O   UNL     1     -13.662  24.745  28.998  0.00  0.00    +0.000 OA
ATOM     20  C   UNL     1     -13.565  23.802  31.039  0.00  0.00    +0.000 C 
BRANCH  17  21
ATOM     21  O   UNL     1     -10.786  23.505  30.746  0.00  0.00    +0.000 OA
ATOM     22  H   UNL     1     -10.323  22.758  30.312  0.00  0.00    +0.000 HD
ENDBRANCH  17  21
ENDBRANCH  16  17
ENDBRANCH  14  15
ENDBRANCH  13  14
ENDBRANCH  10  12
ENDBRANCH   7   8
ENDBRANCH   4   6
BRANCH   3  23
ATOM     23  O   UNL     1      -4.562  26.526  18.241  0.00  0.00    +0.000 OA
ATOM     24  H   UNL     1      -5.193  26.923  18.869  0.00  0.00    +0.000 HD
ENDBRANCH   3  23
ENDBRANCH   2   3
BRANCH   1  25
ATOM     25  C   UNL     1      -0.722  27.767  15.758  0.00  0.00    +0.000 C 
ATOM     26  C   UNL     1       0.048  28.018  14.873  0.00  0.00    +0.000 C 
BRANCH  26  27
ATOM     27  C   UNL     1       1.042  28.339  13.752  0.00  0.00    +0.000 C 
BRANCH  27  28
ATOM     28  N   UNL     1       1.925  28.635  12.774  0.00  0.00    +0.000 N 
ATOM     29  C   UNL     1       3.140  28.054  12.498  0.00  0.00    +0.000 C 
ATOM     30  O   UNL     1       3.648  27.131  13.119  0.00  0.00    +0.000 OA
ATOM     31  H   UNL     1       1.634  29.388  12.163  0.00  0.00    +0.000 HD
BRANCH  29  32
ATOM     32  C   UNL     1       3.846  28.608  11.369  0.00  0.00    +0.000 C 
ATOM     33  C   UNL     1       4.452  29.073  10.442  0.00  0.00    +0.000 C 
BRANCH  33  34
ATOM     34  C   UNL     1       5.203  29.628   9.335  0.00  0.00    +0.000 C 
ATOM     35  O   UNL     1       6.424  29.502   9.355  0.00  0.00    +0.000 OA
ATOM     36  N   UNL     1       4.491  30.293   8.351  0.00  0.00    +0.000 N 
BRANCH  36  37
ATOM     37  C   UNL     1       4.885  30.777   7.155  0.00  0.00    +0.000 C 
ATOM     38  C   UNL     1       5.232  31.209   6.090  0.00  0.00    +0.000 C 
BRANCH  38  39
ATOM     39  C   UNL     1       5.671  31.755   4.728  0.00  0.00    +0.000 C 
ATOM     40  C   UNL     1       6.013  32.187   3.662  0.00  0.00    +0.000 C 
BRANCH  40  41
ATOM     41  C   UNL     1       6.447  32.742   2.303  0.00  0.00    +0.000 C 
BRANCH  41  42
ATOM     42  N   UNL     1       6.859  33.269   1.012  0.00  0.00    +0.000 NA
ATOM     43  H   UNL     1       7.224  32.522   0.423  0.00  0.00    +0.000 HD
ATOM     44  H   UNL     1       6.059  33.656   0.514  0.00  0.00    +0.000 HD
ENDBRANCH  41  42
ENDBRANCH  40  41
ENDBRANCH  38  39
ENDBRANCH  36  37
BRANCH  36  45
ATOM     45  O   UNL     1       3.083  30.167   8.366  0.00  0.00    +0.000 OA
ATOM     46  H   UNL     1       2.975  29.200   8.300  0.00  0.00    +0.000 HD
ENDBRANCH  36  45
ENDBRANCH  33  34
ENDBRANCH  29  32
ENDBRANCH  27  28
ENDBRANCH  26  27
ENDBRANCH   1  25
TORSDOF 19
ENDMDL
MODEL 2
REMARK VINA RESULT:      -4.8      2.991      3.203
REMARK  Name = Deferoxamine.pdbqt.pdb
REMARK  19 active torsions:
REMARK  status: ('A' for Active; 'I' for Inactive)
REMARK    1  A    between atoms: C_1  and  C_2
REMARK    2  A    between atoms: C_3  and  C_4
REMARK    3  A    between atoms: C_4  and  N_5
REMARK    4  A    between atoms: C_6  and  C_9
REMARK    5  A    between atoms: C_10  and  C_11
REMARK    6  A    between atoms: N_13  and  O_14
REMARK    7  A    between atoms: N_13  and  C_16
REMARK    8  A    between atoms: C_17  and  C_18
REMARK    9  A    between atoms: C_19  and  C_20
REMARK   10  A    between atoms: C_20  and  N_21
REMARK   11  A    between atoms: C_24  and  N_25
REMARK   12  A    between atoms: N_25  and  O_28
REMARK   13  A    between atoms: C_26  and  C_30
REMARK   14  A    between atoms: C_31  and  C_32
REMARK   15  A    between atoms: N_34  and  C_36
REMARK   16  A    between atoms: C_37  and  C_38
REMARK   17  A    between atoms: C_38  and  C_39
REMARK   18  A    between atoms: C_40  and  N_41
REMARK   19  A    between atoms: N_41  and  O_45
REMARK                            x       y       z     vdW  Elec       q    Type
REMARK                         _______ _______ _______ _____ _____    ______ ____
ROOT
ATOM      1  C   UNL     1      -1.796  27.565  17.019  0.00  0.00    +0.000 C 
ATOM      2  C   UNL     1      -2.584  27.303  17.887  0.00  0.00    +0.000 C 
ENDROOT
BRANCH   2   3
ATOM      3  N   UNL     1      -3.469  27.007  18.861  0.00  0.00    +0.000 N 
ATOM      4  C   UNL     1      -3.439  27.272  20.219  0.00  0.00    +0.000 C 
ATOM      5  O   UNL     1      -2.464  27.701  20.828  0.00  0.00    +0.000 OA
BRANCH   4   6
ATOM      6  C   UNL     1      -4.637  26.987  20.981  0.00  0.00    +0.000 C 
ATOM      7  C   UNL     1      -5.638  26.750  21.601  0.00  0.00    +0.000 C 
BRANCH   7   8
ATOM      8  C   UNL     1      -6.853  26.477  22.330  0.00  0.00    +0.000 C 
ATOM      9  O   UNL     1      -6.790  26.274  23.534  0.00  0.00    +0.000 OA
ATOM     10  N   UNL     1      -8.002  26.471  21.572  0.00  0.00    +0.000 N 
ATOM     11  H   UNL     1      -7.887  26.663  20.585  0.00  0.00    +0.000 HD
BRANCH  10  12
ATOM     12  C   UNL     1      -9.277  26.251  21.961  0.00  0.00    +0.000 C 
ATOM     13  C   UNL     1     -10.411  26.054  22.301  0.00  0.00    +0.000 C 
BRANCH  13  14
ATOM     14  C   UNL     1     -11.861  25.802  22.725  0.00  0.00    +0.000 C 
BRANCH  14  15
ATOM     15  C   UNL     1     -13.308  25.552  23.158  0.00  0.00    +0.000 C 
ATOM     16  C   UNL     1     -14.443  25.353  23.497  0.00  0.00    +0.000 C 
BRANCH  16  17
ATOM     17  N   UNL     1     -15.714  25.123  23.877  0.00  0.00    +0.000 N 
ATOM     18  C   UNL     1     -16.476  25.680  24.877  0.00  0.00    +0.000 C 
ATOM     19  O   UNL     1     -16.194  26.543  25.689  0.00  0.00    +0.000 OA
ATOM     20  C   UNL     1     -17.896  25.209  25.070  0.00  0.00    +0.000 C 
BRANCH  17  21
ATOM     21  O   UNL     1     -16.277  24.118  23.048  0.00  0.00    +0.000 OA
ATOM     22  H   UNL     1     -15.867  23.296  23.388  0.00  0.00    +0.000 HD
ENDBRANCH  17  21
ENDBRANCH  16  17
ENDBRANCH  14  15
ENDBRANCH  13  14
ENDBRANCH  10  12
ENDBRANCH   7   8
ENDBRANCH   4   6
BRANCH   3  23
ATOM     23  O   UNL     1      -4.726  26.720  18.281  0.00  0.00    +0.000 OA
ATOM     24  H   UNL     1      -4.554  25.854  17.866  0.00  0.00    +0.000 HD
ENDBRANCH   3  23
ENDBRANCH   2   3
BRANCH   1  25
ATOM     25  C   UNL     1      -0.803  27.899  15.902  0.00  0.00    +0.000 C 
ATOM     26  C   UNL     1      -0.019  28.149  15.029  0.00  0.00    +0.000 C 
BRANCH  26  27
ATOM     27  C   UNL     1       0.989  28.456  13.917  0.00  0.00    +0.000 C 
BRANCH  27  28
ATOM     28  N   UNL     1       1.870  28.713  12.926  0.00  0.00    +0.000 N 
ATOM     29  C   UNL     1       3.020  28.037  12.592  0.00  0.00    +0.000 C 
ATOM     30  O   UNL     1       3.458  27.048  13.160  0.00  0.00    +0.000 OA
ATOM     31  H   UNL     1       1.632  29.514  12.354  0.00  0.00    +0.000 HD
BRANCH  29  32
ATOM     32  C   UNL     1       3.744  28.573  11.465  0.00  0.00    +0.000 C 
ATOM     33  C   UNL     1       4.365  29.024  10.541  0.00  0.00    +0.000 C 
BRANCH  33  34
ATOM     34  C   UNL     1       5.133  29.561   9.437  0.00  0.00    +0.000 C 
ATOM     35  O   UNL     1       6.354  29.439   9.480  0.00  0.00    +0.000 OA
ATOM     36  N   UNL     1       4.437  30.207   8.429  0.00  0.00    +0.000 N 
BRANCH  36  37
ATOM     37  C   UNL     1       4.851  30.672   7.232  0.00  0.00    +0.000 C 
ATOM     38  C   UNL     1       5.220  31.088   6.169  0.00  0.00    +0.000 C 
BRANCH  38  39
ATOM     39  C   UNL     1       5.690  31.626   4.814  0.00  0.00    +0.000 C 
ATOM     40  C   UNL     1       6.063  32.045   3.753  0.00  0.00    +0.000 C 
BRANCH  40  41
ATOM     41  C   UNL     1       6.543  32.577   2.400  0.00  0.00    +0.000 C 
BRANCH  41  42
ATOM     42  N   UNL     1       6.997  33.082   1.115  0.00  0.00    +0.000 NA
ATOM     43  H   UNL     1       7.225  34.073   1.183  0.00  0.00    +0.000 HD
ATOM     44  H   UNL     1       7.858  32.615   0.833  0.00  0.00    +0.000 HD
ENDBRANCH  41  42
ENDBRANCH  40  41
ENDBRANCH  38  39
ENDBRANCH  36  37
BRANCH  36  45
ATOM     45  O   UNL     1       3.030  30.078   8.423  0.00  0.00    +0.000 OA
ATOM     46  H   UNL     1       2.916  29.214   7.987  0.00  0.00    +0.000 HD
ENDBRANCH  36  45
ENDBRANCH  33  34
ENDBRANCH  29  32
ENDBRANCH  27  28
ENDBRANCH  26  27
ENDBRANCH   1  25
TORSDOF 19
ENDMDL
MODEL 3
REMARK VINA RESULT:      -4.8      2.363     22.433
REMARK  Name = Deferoxamine.pdbqt.pdb
REMARK  19 active torsions:
REMARK  status: ('A' for Active; 'I' for Inactive)
REMARK    1  A    between atoms: C_1  and  C_2
REMARK    2  A    between atoms: C_3  and  C_4
REMARK    3  A    between atoms: C_4  and  N_5
REMARK    4  A    between atoms: C_6  and  C_9
REMARK    5  A    between atoms: C_10  and  C_11
REMARK    6  A    between atoms: N_13  and  O_14
REMARK    7  A    between atoms: N_13  and  C_16
REMARK    8  A    between atoms: C_17  and  C_18
REMARK    9  A    between atoms: C_19  and  C_20
REMARK   10  A    between atoms: C_20  and  N_21
REMARK   11  A    between atoms: C_24  and  N_25
REMARK   12  A    between atoms: N_25  and  O_28
REMARK   13  A    between atoms: C_26  and  C_30
REMARK   14  A    between atoms: C_31  and  C_32
REMARK   15  A    between atoms: N_34  and  C_36
REMARK   16  A    between atoms: C_37  and  C_38
REMARK   17  A    between atoms: C_38  and  C_39
REMARK   18  A    between atoms: C_40  and  N_41
REMARK   19  A    between atoms: N_41  and  O_45
REMARK                            x       y       z     vdW  Elec       q    Type
REMARK                         _______ _______ _______ _____ _____    ______ ____
ROOT
ATOM      1  C   UNL     1      -3.400  26.921  20.051  0.00  0.00    +0.000 C 
ATOM      2  C   UNL     1      -2.695  27.132  19.102  0.00  0.00    +0.000 C 
ENDROOT
BRANCH   2   3
ATOM      3  N   UNL     1      -1.903  27.368  18.036  0.00  0.00    +0.000 N 
ATOM      4  C   UNL     1      -1.702  26.633  16.880  0.00  0.00    +0.000 C 
ATOM      5  O   UNL     1      -2.112  25.492  16.695  0.00  0.00    +0.000 OA
BRANCH   4   6
ATOM      6  C   UNL     1      -0.920  27.247  15.826  0.00  0.00    +0.000 C 
ATOM      7  C   UNL     1      -0.278  27.768  14.955  0.00  0.00    +0.000 C 
BRANCH   7   8
ATOM      8  C   UNL     1       0.475  28.408  13.905  0.00  0.00    +0.000 C 
ATOM      9  O   UNL     1       0.037  29.433  13.401  0.00  0.00    +0.000 OA
ATOM     10  N   UNL     1       1.651  27.781  13.561  0.00  0.00    +0.000 N 
ATOM     11  H   UNL     1       1.877  26.941  14.078  0.00  0.00    +0.000 HD
BRANCH  10  12
ATOM     12  C   UNL     1       2.562  28.133  12.628  0.00  0.00    +0.000 C 
ATOM     13  C   UNL     1       3.374  28.442  11.800  0.00  0.00    +0.000 C 
BRANCH  13  14
ATOM     14  C   UNL     1       4.416  28.827  10.745  0.00  0.00    +0.000 C 
BRANCH  14  15
ATOM     15  C   UNL     1       5.451  29.218   9.687  0.00  0.00    +0.000 C 
ATOM     16  C   UNL     1       6.264  29.521   8.856  0.00  0.00    +0.000 C 
BRANCH  16  17
ATOM     17  N   UNL     1       7.174  29.855   7.922  0.00  0.00    +0.000 N 
ATOM     18  C   UNL     1       7.194  30.873   6.999  0.00  0.00    +0.000 C 
ATOM     19  O   UNL     1       6.380  31.755   6.787  0.00  0.00    +0.000 OA
ATOM     20  C   UNL     1       8.369  30.995   6.061  0.00  0.00    +0.000 C 
BRANCH  17  21
ATOM     21  O   UNL     1       8.257  28.939   7.974  0.00  0.00    +0.000 OA
ATOM     22  H   UNL     1       8.810  29.291   8.703  0.00  0.00    +0.000 HD
ENDBRANCH  17  21
ENDBRANCH  16  17
ENDBRANCH  14  15
ENDBRANCH  13  14
ENDBRANCH  10  12
ENDBRANCH   7   8
ENDBRANCH   4   6
BRANCH   3  23
ATOM     23  O   UNL     1      -1.551  28.737  18.007  0.00  0.00    +0.000 OA
ATOM     24  H   UNL     1      -2.113  29.066  17.281  0.00  0.00    +0.000 HD
ENDBRANCH   3  23
ENDBRANCH   2   3
BRANCH   1  25
ATOM     25  C   UNL     1      -4.292  26.637  21.262  0.00  0.00    +0.000 C 
ATOM     26  C   UNL     1      -4.992  26.402  22.208  0.00  0.00    +0.000 C 
BRANCH  26  27
ATOM     27  C   UNL     1      -5.887  26.088  23.412  0.00  0.00    +0.000 C 
BRANCH  27  28
ATOM     28  N   UNL     1      -6.668  25.825  24.482  0.00  0.00    +0.000 N 
ATOM     29  C   UNL     1      -7.999  25.485  24.520  0.00  0.00    +0.000 C 
ATOM     30  O   UNL     1      -8.733  25.359  23.550  0.00  0.00    +0.000 OA
ATOM     31  H   UNL     1      -6.189  25.883  25.372  0.00  0.00    +0.000 HD
BRANCH  29  32
ATOM     32  C   UNL     1      -8.541  25.264  25.839  0.00  0.00    +0.000 C 
ATOM     33  C   UNL     1      -9.007  25.099  26.934  0.00  0.00    +0.000 C 
BRANCH  33  34
ATOM     34  C   UNL     1      -9.587  24.909  28.247  0.00  0.00    +0.000 C 
ATOM     35  O   UNL     1      -8.889  25.168  29.222  0.00  0.00    +0.000 OA
ATOM     36  N   UNL     1     -10.878  24.412  28.308  0.00  0.00    +0.000 N 
BRANCH  36  37
ATOM     37  C   UNL     1     -11.717  24.268  29.354  0.00  0.00    +0.000 C 
ATOM     38  C   UNL     1     -12.462  24.136  30.286  0.00  0.00    +0.000 C 
BRANCH  38  39
ATOM     39  C   UNL     1     -13.414  23.962  31.474  0.00  0.00    +0.000 C 
ATOM     40  C   UNL     1     -14.158  23.831  32.406  0.00  0.00    +0.000 C 
BRANCH  40  41
ATOM     41  C   UNL     1     -15.107  23.667  33.596  0.00  0.00    +0.000 C 
BRANCH  41  42
ATOM     42  N   UNL     1     -16.008  23.511  34.726  0.00  0.00    +0.000 NA
ATOM     43  H   UNL     1     -16.793  22.912  34.475  0.00  0.00    +0.000 HD
ATOM     44  H   UNL     1     -15.534  23.046  35.498  0.00  0.00    +0.000 HD
ENDBRANCH  41  42
ENDBRANCH  40  41
ENDBRANCH  38  39
ENDBRANCH  36  37
BRANCH  36  45
ATOM     45  O   UNL     1     -11.616  24.365  27.103  0.00  0.00    +0.000 OA
ATOM     46  H   UNL     1     -11.066  24.917  26.518  0.00  0.00    +0.000 HD
ENDBRANCH  36  45
ENDBRANCH  33  34
ENDBRANCH  29  32
ENDBRANCH  27  28
ENDBRANCH  26  27
ENDBRANCH   1  25
TORSDOF 19
ENDMDL
MODEL 4
REMARK VINA RESULT:      -4.6     21.846     29.330
REMARK  Name = Deferoxamine.pdbqt.pdb
REMARK  19 active torsions:
REMARK  status: ('A' for Active; 'I' for Inactive)
REMARK    1  A    between atoms: C_1  and  C_2
REMARK    2  A    between atoms: C_3  and  C_4
REMARK    3  A    between atoms: C_4  and  N_5
REMARK    4  A    between atoms: C_6  and  C_9
REMARK    5  A    between atoms: C_10  and  C_11
REMARK    6  A    between atoms: N_13  and  O_14
REMARK    7  A    between atoms: N_13  and  C_16
REMARK    8  A    between atoms: C_17  and  C_18
REMARK    9  A    between atoms: C_19  and  C_20
REMARK   10  A    between atoms: C_20  and  N_21
REMARK   11  A    between atoms: C_24  and  N_25
REMARK   12  A    between atoms: N_25  and  O_28
REMARK   13  A    between atoms: C_26  and  C_30
REMARK   14  A    between atoms: C_31  and  C_32
REMARK   15  A    between atoms: N_34  and  C_36
REMARK   16  A    between atoms: C_37  and  C_38
REMARK   17  A    between atoms: C_38  and  C_39
REMARK   18  A    between atoms: C_40  and  N_41
REMARK   19  A    between atoms: N_41  and  O_45
REMARK                            x       y       z     vdW  Elec       q    Type
REMARK                         _______ _______ _______ _____ _____    ______ ____
ROOT
ATOM      1  C   UNL     1     -18.185  35.619   7.387  0.00  0.00    +0.000 C 
ATOM      2  C   UNL     1     -17.752  36.686   7.046  0.00  0.00    +0.000 C 
ENDROOT
BRANCH   2   3
ATOM      3  N   UNL     1     -17.265  37.885   6.663  0.00  0.00    +0.000 N 
ATOM      4  C   UNL     1     -15.970  38.282   6.375  0.00  0.00    +0.000 C 
ATOM      5  O   UNL     1     -14.967  37.612   6.593  0.00  0.00    +0.000 OA
BRANCH   4   6
ATOM      6  C   UNL     1     -15.789  39.602   5.807  0.00  0.00    +0.000 C 
ATOM      7  C   UNL     1     -15.652  40.698   5.335  0.00  0.00    +0.000 C 
BRANCH   7   8
ATOM      8  C   UNL     1     -15.508  42.011   4.755  0.00  0.00    +0.000 C 
ATOM      9  O   UNL     1     -15.528  42.988   5.489  0.00  0.00    +0.000 OA
ATOM     10  N   UNL     1     -15.356  42.034   3.387  0.00  0.00    +0.000 N 
ATOM     11  H   UNL     1     -15.355  41.135   2.922  0.00  0.00    +0.000 HD
BRANCH  10  12
ATOM     12  C   UNL     1     -15.200  43.095   2.566  0.00  0.00    +0.000 C 
ATOM     13  C   UNL     1     -15.059  44.035   1.834  0.00  0.00    +0.000 C 
BRANCH  13  14
ATOM     14  C   UNL     1     -14.875  45.229   0.892  0.00  0.00    +0.000 C 
BRANCH  14  15
ATOM     15  C   UNL     1     -14.698  46.420  -0.054  0.00  0.00    +0.000 C 
ATOM     16  C   UNL     1     -14.559  47.356  -0.793  0.00  0.00    +0.000 C 
BRANCH  16  17
ATOM     17  N   UNL     1     -14.401  48.410  -1.617  0.00  0.00    +0.000 N 
ATOM     18  C   UNL     1     -14.414  49.762  -1.372  0.00  0.00    +0.000 C 
ATOM     19  O   UNL     1     -14.571  50.368  -0.327  0.00  0.00    +0.000 OA
ATOM     20  C   UNL     1     -14.209  50.721  -2.518  0.00  0.00    +0.000 C 
BRANCH  17  21
ATOM     21  O   UNL     1     -14.196  47.942  -2.941  0.00  0.00    +0.000 OA
ATOM     22  H   UNL     1     -14.889  47.258  -3.045  0.00  0.00    +0.000 HD
ENDBRANCH  17  21
ENDBRANCH  16  17
ENDBRANCH  14  15
ENDBRANCH  13  14
ENDBRANCH  10  12
ENDBRANCH   7   8
ENDBRANCH   4   6
BRANCH   3  23
ATOM     23  O   UNL     1     -18.318  38.679   6.158  0.00  0.00    +0.000 OA
ATOM     24  H   UNL     1     -18.839  38.848   6.965  0.00  0.00    +0.000 HD
ENDBRANCH   3  23
ENDBRANCH   2   3
BRANCH   1  25
ATOM     25  C   UNL     1     -18.726  34.258   7.833  0.00  0.00    +0.000 C 
ATOM     26  C   UNL     1     -19.161  33.198   8.188  0.00  0.00    +0.000 C 
BRANCH  26  27
ATOM     27  C   UNL     1     -19.728  31.850   8.648  0.00  0.00    +0.000 C 
BRANCH  27  28
ATOM     28  N   UNL     1     -20.231  30.658   9.035  0.00  0.00    +0.000 N 
ATOM     29  C   UNL     1     -19.593  29.447   9.156  0.00  0.00    +0.000 C 
ATOM     30  O   UNL     1     -18.411  29.235   8.923  0.00  0.00    +0.000 OA
ATOM     31  H   UNL     1     -21.215  30.678   9.272  0.00  0.00    +0.000 HD
BRANCH  29  32
ATOM     32  C   UNL     1     -20.423  28.355   9.602  0.00  0.00    +0.000 C 
ATOM     33  C   UNL     1     -21.099  27.440   9.990  0.00  0.00    +0.000 C 
BRANCH  33  34
ATOM     34  C   UNL     1     -21.905  26.341  10.479  0.00  0.00    +0.000 C 
ATOM     35  O   UNL     1     -22.216  25.463   9.679  0.00  0.00    +0.000 OA
ATOM     36  N   UNL     1     -22.299  26.379  11.806  0.00  0.00    +0.000 N 
BRANCH  36  37
ATOM     37  C   UNL     1     -22.917  25.453  12.567  0.00  0.00    +0.000 C 
ATOM     38  C   UNL     1     -23.464  24.628  13.245  0.00  0.00    +0.000 C 
BRANCH  38  39
ATOM     39  C   UNL     1     -24.158  23.569  14.108  0.00  0.00    +0.000 C 
ATOM     40  C   UNL     1     -24.699  22.736  14.781  0.00  0.00    +0.000 C 
BRANCH  40  41
ATOM     41  C   UNL     1     -25.388  21.670  15.637  0.00  0.00    +0.000 C 
BRANCH  41  42
ATOM     42  N   UNL     1     -26.043  20.657  16.449  0.00  0.00    +0.000 NA
ATOM     43  H   UNL     1     -25.351  20.043  16.877  0.00  0.00    +0.000 HD
ATOM     44  H   UNL     1     -26.548  21.092  17.220  0.00  0.00    +0.000 HD
ENDBRANCH  41  42
ENDBRANCH  40  41
ENDBRANCH  38  39
ENDBRANCH  36  37
BRANCH  36  45
ATOM     45  O   UNL     1     -21.687  27.342  12.640  0.00  0.00    +0.000 OA
ATOM     46  H   UNL     1     -22.434  27.941  12.824  0.00  0.00    +0.000 HD
ENDBRANCH  36  45
ENDBRANCH  33  34
ENDBRANCH  29  32
ENDBRANCH  27  28
ENDBRANCH  26  27
ENDBRANCH   1  25
TORSDOF 19
ENDMDL
MODEL 5
REMARK VINA RESULT:      -4.4      2.820     22.530
REMARK  Name = Deferoxamine.pdbqt.pdb
REMARK  19 active torsions:
REMARK  status: ('A' for Active; 'I' for Inactive)
REMARK    1  A    between atoms: C_1  and  C_2
REMARK    2  A    between atoms: C_3  and  C_4
REMARK    3  A    between atoms: C_4  and  N_5
REMARK    4  A    between atoms: C_6  and  C_9
REMARK    5  A    between atoms: C_10  and  C_11
REMARK    6  A    between atoms: N_13  and  O_14
REMARK    7  A    between atoms: N_13  and  C_16
REMARK    8  A    between atoms: C_17  and  C_18
REMARK    9  A    between atoms: C_19  and  C_20
REMARK   10  A    between atoms: C_20  and  N_21
REMARK   11  A    between atoms: C_24  and  N_25
REMARK   12  A    between atoms: N_25  and  O_28
REMARK   13  A    between atoms: C_26  and  C_30
REMARK   14  A    between atoms: C_31  and  C_32
REMARK   15  A    between atoms: N_34  and  C_36
REMARK   16  A    between atoms: C_37  and  C_38
REMARK   17  A    between atoms: C_38  and  C_39
REMARK   18  A    between atoms: C_40  and  N_41
REMARK   19  A    between atoms: N_41  and  O_45
REMARK                            x       y       z     vdW  Elec       q    Type
REMARK                         _______ _______ _______ _____ _____    ______ ____
ROOT
ATOM      1  C   UNL     1      -5.068  26.421  21.907  0.00  0.00    +0.000 C 
ATOM      2  C   UNL     1      -4.395  26.576  20.924  0.00  0.00    +0.000 C 
ENDROOT
BRANCH   2   3
ATOM      3  N   UNL     1      -3.638  26.749  19.821  0.00  0.00    +0.000 N 
ATOM      4  C   UNL     1      -2.462  27.456  19.635  0.00  0.00    +0.000 C 
ATOM      5  O   UNL     1      -1.970  28.226  20.453  0.00  0.00    +0.000 OA
BRANCH   4   6
ATOM      6  C   UNL     1      -1.784  27.299  18.365  0.00  0.00    +0.000 C 
ATOM      7  C   UNL     1      -1.231  27.160  17.307  0.00  0.00    +0.000 C 
BRANCH   7   8
ATOM      8  C   UNL     1      -0.575  26.971  16.037  0.00  0.00    +0.000 C 
ATOM      9  O   UNL     1      -0.046  25.895  15.797  0.00  0.00    +0.000 OA
ATOM     10  N   UNL     1      -0.610  28.056  15.191  0.00  0.00    +0.000 N 
ATOM     11  H   UNL     1      -1.094  28.876  15.537  0.00  0.00    +0.000 HD
BRANCH  10  12
ATOM     12  C   UNL     1      -0.092  28.186  13.951  0.00  0.00    +0.000 C 
ATOM     13  C   UNL     1       0.372  28.306  12.850  0.00  0.00    +0.000 C 
BRANCH  13  14
ATOM     14  C   UNL     1       0.970  28.465  11.449  0.00  0.00    +0.000 C 
BRANCH  14  15
ATOM     15  C   UNL     1       1.561  28.620  10.045  0.00  0.00    +0.000 C 
ATOM     16  C   UNL     1       2.022  28.740   8.943  0.00  0.00    +0.000 C 
BRANCH  16  17
ATOM     17  N   UNL     1       2.532  28.878   7.704  0.00  0.00    +0.000 N 
ATOM     18  C   UNL     1       2.310  29.824   6.732  0.00  0.00    +0.000 C 
ATOM     19  O   UNL     1       1.583  30.802   6.741  0.00  0.00    +0.000 OA
ATOM     20  C   UNL     1       3.038  29.713   5.416  0.00  0.00    +0.000 C 
BRANCH  17  21
ATOM     21  O   UNL     1       3.441  27.817   7.451  0.00  0.00    +0.000 OA
ATOM     22  H   UNL     1       3.547  27.402   8.332  0.00  0.00    +0.000 HD
ENDBRANCH  17  21
ENDBRANCH  16  17
ENDBRANCH  14  15
ENDBRANCH  13  14
ENDBRANCH  10  12
ENDBRANCH   7   8
ENDBRANCH   4   6
BRANCH   3  23
ATOM     23  O   UNL     1      -3.954  25.749  18.874  0.00  0.00    +0.000 OA
ATOM     24  H   UNL     1      -4.707  26.155  18.407  0.00  0.00    +0.000 HD
ENDBRANCH   3  23
ENDBRANCH   2   3
BRANCH   1  25
ATOM     25  C   UNL     1      -5.914  26.218  23.167  0.00  0.00    +0.000 C 
ATOM     26  C   UNL     1      -6.586  26.054  24.146  0.00  0.00    +0.000 C 
BRANCH  26  27
ATOM     27  C   UNL     1      -7.456  25.839  25.390  0.00  0.00    +0.000 C 
BRANCH  27  28
ATOM     28  N   UNL     1      -8.237  25.647  26.475  0.00  0.00    +0.000 N 
ATOM     29  C   UNL     1      -8.146  24.678  27.447  0.00  0.00    +0.000 C 
ATOM     30  O   UNL     1      -7.308  23.789  27.494  0.00  0.00    +0.000 OA
ATOM     31  H   UNL     1      -8.984  26.322  26.576  0.00  0.00    +0.000 HD
BRANCH  29  32
ATOM     32  C   UNL     1      -9.145  24.753  28.485  0.00  0.00    +0.000 C 
ATOM     33  C   UNL     1      -9.993  24.810  29.334  0.00  0.00    +0.000 C 
BRANCH  33  34
ATOM     34  C   UNL     1     -11.028  24.864  30.346  0.00  0.00    +0.000 C 
ATOM     35  O   UNL     1     -10.700  25.200  31.479  0.00  0.00    +0.000 OA
ATOM     36  N   UNL     1     -12.309  24.495  29.969  0.00  0.00    +0.000 N 
BRANCH  36  37
ATOM     37  C   UNL     1     -13.480  24.578  30.633  0.00  0.00    +0.000 C 
ATOM     38  C   UNL     1     -14.523  24.651  31.221  0.00  0.00    +0.000 C 
BRANCH  38  39
ATOM     39  C   UNL     1     -15.858  24.749  31.967  0.00  0.00    +0.000 C 
ATOM     40  C   UNL     1     -16.904  24.819  32.551  0.00  0.00    +0.000 C 
BRANCH  40  41
ATOM     41  C   UNL     1     -18.238  24.905  33.298  0.00  0.00    +0.000 C 
BRANCH  41  42
ATOM     42  N   UNL     1     -19.504  24.988  34.006  0.00  0.00    +0.000 NA
ATOM     43  H   UNL     1     -19.749  24.082  34.403  0.00  0.00    +0.000 HD
ATOM     44  H   UNL     1     -19.430  25.630  34.794  0.00  0.00    +0.000 HD
ENDBRANCH  41  42
ENDBRANCH  40  41
ENDBRANCH  38  39
ENDBRANCH  36  37
BRANCH  36  45
ATOM     45  O   UNL     1     -12.562  24.339  28.587  0.00  0.00    +0.000 OA
ATOM     46  H   UNL     1     -12.119  23.489  28.404  0.00  0.00    +0.000 HD
ENDBRANCH  36  45
ENDBRANCH  33  34
ENDBRANCH  29  32
ENDBRANCH  27  28
ENDBRANCH  26  27
ENDBRANCH   1  25
TORSDOF 19
ENDMDL
MODEL 6
REMARK VINA RESULT:      -4.4     21.856     24.046
REMARK  Name = Deferoxamine.pdbqt.pdb
REMARK  19 active torsions:
REMARK  status: ('A' for Active; 'I' for Inactive)
REMARK    1  A    between atoms: C_1  and  C_2
REMARK    2  A    between atoms: C_3  and  C_4
REMARK    3  A    between atoms: C_4  and  N_5
REMARK    4  A    between atoms: C_6  and  C_9
REMARK    5  A    between atoms: C_10  and  C_11
REMARK    6  A    between atoms: N_13  and  O_14
REMARK    7  A    between atoms: N_13  and  C_16
REMARK    8  A    between atoms: C_17  and  C_18
REMARK    9  A    between atoms: C_19  and  C_20
REMARK   10  A    between atoms: C_20  and  N_21
REMARK   11  A    between atoms: C_24  and  N_25
REMARK   12  A    between atoms: N_25  and  O_28
REMARK   13  A    between atoms: C_26  and  C_30
REMARK   14  A    between atoms: C_31  and  C_32
REMARK   15  A    between atoms: N_34  and  C_36
REMARK   16  A    between atoms: C_37  and  C_38
REMARK   17  A    between atoms: C_38  and  C_39
REMARK   18  A    between atoms: C_40  and  N_41
REMARK   19  A    between atoms: N_41  and  O_45
REMARK                            x       y       z     vdW  Elec       q    Type
REMARK                         _______ _______ _______ _____ _____    ______ ____
ROOT
ATOM      1  C   UNL     1       6.948  40.869   6.331  0.00  0.00    +0.000 C 
ATOM      2  C   UNL     1       6.087  40.777   5.498  0.00  0.00    +0.000 C 
ENDROOT
BRANCH   2   3
ATOM      3  N   UNL     1       5.120  40.673   4.563  0.00  0.00    +0.000 N 
ATOM      4  C   UNL     1       4.816  39.644   3.689  0.00  0.00    +0.000 C 
ATOM      5  O   UNL     1       5.522  38.660   3.492  0.00  0.00    +0.000 OA
BRANCH   4   6
ATOM      6  C   UNL     1       3.591  39.756   2.925  0.00  0.00    +0.000 C 
ATOM      7  C   UNL     1       2.567  39.854   2.304  0.00  0.00    +0.000 C 
BRANCH   7   8
ATOM      8  C   UNL     1       1.326  39.962   1.577  0.00  0.00    +0.000 C 
ATOM      9  O   UNL     1       1.348  39.907   0.356  0.00  0.00    +0.000 OA
ATOM     10  N   UNL     1       0.203  40.123   2.356  0.00  0.00    +0.000 N 
ATOM     11  H   UNL     1       0.352  40.144   3.357  0.00  0.00    +0.000 HD
BRANCH  10  12
ATOM     12  C   UNL     1      -1.086  40.252   1.973  0.00  0.00    +0.000 C 
ATOM     13  C   UNL     1      -2.232  40.361   1.633  0.00  0.00    +0.000 C 
BRANCH  13  14
ATOM     14  C   UNL     1      -3.696  40.491   1.200  0.00  0.00    +0.000 C 
BRANCH  14  15
ATOM     15  C   UNL     1      -5.159  40.612   0.767  0.00  0.00    +0.000 C 
ATOM     16  C   UNL     1      -6.307  40.704   0.427  0.00  0.00    +0.000 C 
BRANCH  16  17
ATOM     17  N   UNL     1      -7.596  40.800   0.047  0.00  0.00    +0.000 N 
ATOM     18  C   UNL     1      -8.177  41.401  -1.044  0.00  0.00    +0.000 C 
ATOM     19  O   UNL     1      -7.666  42.009  -1.968  0.00  0.00    +0.000 OA
ATOM     20  C   UNL     1      -9.676  41.347  -1.204  0.00  0.00    +0.000 C 
BRANCH  17  21
ATOM     21  O   UNL     1      -8.416  40.143   1.001  0.00  0.00    +0.000 OA
ATOM     22  H   UNL     1      -8.310  39.197   0.770  0.00  0.00    +0.000 HD
ENDBRANCH  17  21
ENDBRANCH  16  17
ENDBRANCH  14  15
ENDBRANCH  13  14
ENDBRANCH  10  12
ENDBRANCH   7   8
ENDBRANCH   4   6
BRANCH   3  23
ATOM     23  O   UNL     1       4.107  41.621   4.830  0.00  0.00    +0.000 OA
ATOM     24  H   UNL     1       3.984  42.027   3.952  0.00  0.00    +0.000 HD
ENDBRANCH   3  23
ENDBRANCH   2   3
BRANCH   1  25
ATOM     25  C   UNL     1       8.041  40.972   7.398  0.00  0.00    +0.000 C 
ATOM     26  C   UNL     1       8.893  41.041   8.239  0.00  0.00    +0.000 C 
BRANCH  26  27
ATOM     27  C   UNL     1       9.978  41.117   9.319  0.00  0.00    +0.000 C 
BRANCH  27  28
ATOM     28  N   UNL     1      10.938  41.200  10.265  0.00  0.00    +0.000 N 
ATOM     29  C   UNL     1      11.697  40.196  10.820  0.00  0.00    +0.000 C 
ATOM     30  O   UNL     1      11.626  39.008  10.539  0.00  0.00    +0.000 OA
ATOM     31  H   UNL     1      11.117  42.139  10.596  0.00  0.00    +0.000 HD
BRANCH  29  32
ATOM     32  C   UNL     1      12.650  40.623  11.815  0.00  0.00    +0.000 C 
ATOM     33  C   UNL     1      13.456  40.959  12.640  0.00  0.00    +0.000 C 
BRANCH  33  34
ATOM     34  C   UNL     1      14.445  41.353  13.622  0.00  0.00    +0.000 C 
ATOM     35  O   UNL     1      15.554  41.681  13.213  0.00  0.00    +0.000 OA
ATOM     36  N   UNL     1      14.077  41.295  14.956  0.00  0.00    +0.000 N 
BRANCH  36  37
ATOM     37  C   UNL     1      14.716  41.725  16.064  0.00  0.00    +0.000 C 
ATOM     38  C   UNL     1      15.284  42.104  17.051  0.00  0.00    +0.000 C 
BRANCH  38  39
ATOM     39  C   UNL     1      16.004  42.584  18.315  0.00  0.00    +0.000 C 
ATOM     40  C   UNL     1      16.566  42.965  19.305  0.00  0.00    +0.000 C 
BRANCH  40  41
ATOM     41  C   UNL     1      17.279  43.453  20.568  0.00  0.00    +0.000 C 
BRANCH  41  42
ATOM     42  N   UNL     1      17.957  43.917  21.767  0.00  0.00    +0.000 NA
ATOM     43  H   UNL     1      18.370  44.835  21.610  0.00  0.00    +0.000 HD
ATOM     44  H   UNL     1      17.291  44.035  22.529  0.00  0.00    +0.000 HD
ENDBRANCH  41  42
ENDBRANCH  40  41
ENDBRANCH  38  39
ENDBRANCH  36  37
BRANCH  36  45
ATOM     45  O   UNL     1      12.708  41.101  15.247  0.00  0.00    +0.000 OA
ATOM     46  H   UNL     1      12.652  41.451  16.156  0.00  0.00    +0.000 HD
ENDBRANCH  36  45
ENDBRANCH  33  34
ENDBRANCH  29  32
ENDBRANCH  27  28
ENDBRANCH  26  27
ENDBRANCH   1  25
TORSDOF 19
ENDMDL
MODEL 7
REMARK VINA RESULT:      -4.3     22.534     29.497
REMARK  Name = Deferoxamine.pdbqt.pdb
REMARK  19 active torsions:
REMARK  status: ('A' for Active; 'I' for Inactive)
REMARK    1  A    between atoms: C_1  and  C_2
REMARK    2  A    between atoms: C_3  and  C_4
REMARK    3  A    between atoms: C_4  and  N_5
REMARK    4  A    between atoms: C_6  and  C_9
REMARK    5  A    between atoms: C_10  and  C_11
REMARK    6  A    between atoms: N_13  and  O_14
REMARK    7  A    between atoms: N_13  and  C_16
REMARK    8  A    between atoms: C_17  and  C_18
REMARK    9  A    between atoms: C_19  and  C_20
REMARK   10  A    between atoms: C_20  and  N_21
REMARK   11  A    between atoms: C_24  and  N_25
REMARK   12  A    between atoms: N_25  and  O_28
REMARK   13  A    between atoms: C_26  and  C_30
REMARK   14  A    between atoms: C_31  and  C_32
REMARK   15  A    between atoms: N_34  and  C_36
REMARK   16  A    between atoms: C_37  and  C_38
REMARK   17  A    between atoms: C_38  and  C_39
REMARK   18  A    between atoms: C_40  and  N_41
REMARK   19  A    between atoms: N_41  and  O_45
REMARK                            x       y       z     vdW  Elec       q    Type
REMARK                         _______ _______ _______ _____ _____    ______ ____
ROOT
ATOM      1  C   UNL     1     -18.361  35.595   7.408  0.00  0.00    +0.000 C 
ATOM      2  C   UNL     1     -17.929  36.668   7.082  0.00  0.00    +0.000 C 
ENDROOT
BRANCH   2   3
ATOM      3  N   UNL     1     -17.443  37.872   6.717  0.00  0.00    +0.000 N 
ATOM      4  C   UNL     1     -16.142  38.290   6.495  0.00  0.00    +0.000 C 
ATOM      5  O   UNL     1     -15.140  37.640   6.771  0.00  0.00    +0.000 OA
BRANCH   4   6
ATOM      6  C   UNL     1     -15.954  39.609   5.927  0.00  0.00    +0.000 C 
ATOM      7  C   UNL     1     -15.786  40.698   5.448  0.00  0.00    +0.000 C 
BRANCH   7   8
ATOM      8  C   UNL     1     -15.563  42.001   4.871  0.00  0.00    +0.000 C 
ATOM      9  O   UNL     1     -15.527  42.977   5.607  0.00  0.00    +0.000 OA
ATOM     10  N   UNL     1     -15.405  42.018   3.504  0.00  0.00    +0.000 N 
ATOM     11  H   UNL     1     -15.456  41.121   3.037  0.00  0.00    +0.000 HD
BRANCH  10  12
ATOM     12  C   UNL     1     -15.185  43.070   2.686  0.00  0.00    +0.000 C 
ATOM     13  C   UNL     1     -14.984  44.002   1.957  0.00  0.00    +0.000 C 
BRANCH  13  14
ATOM     14  C   UNL     1     -14.720  45.187   1.023  0.00  0.00    +0.000 C 
BRANCH  14  15
ATOM     15  C   UNL     1     -14.464  46.375   0.092  0.00  0.00    +0.000 C 
ATOM     16  C   UNL     1     -14.264  47.309  -0.636  0.00  0.00    +0.000 C 
BRANCH  16  17
ATOM     17  N   UNL     1     -14.035  48.360  -1.447  0.00  0.00    +0.000 N 
ATOM     18  C   UNL     1     -14.678  49.569  -1.566  0.00  0.00    +0.000 C 
ATOM     19  O   UNL     1     -15.635  50.012  -0.956  0.00  0.00    +0.000 OA
ATOM     20  C   UNL     1     -14.188  50.566  -2.587  0.00  0.00    +0.000 C 
BRANCH  17  21
ATOM     21  O   UNL     1     -12.926  48.073  -2.284  0.00  0.00    +0.000 OA
ATOM     22  H   UNL     1     -13.313  48.107  -3.184  0.00  0.00    +0.000 HD
ENDBRANCH  17  21
ENDBRANCH  16  17
ENDBRANCH  14  15
ENDBRANCH  13  14
ENDBRANCH  10  12
ENDBRANCH   7   8
ENDBRANCH   4   6
BRANCH   3  23
ATOM     23  O   UNL     1     -18.482  38.644   6.150  0.00  0.00    +0.000 OA
ATOM     24  H   UNL     1     -17.977  39.337   5.685  0.00  0.00    +0.000 HD
ENDBRANCH   3  23
ENDBRANCH   2   3
BRANCH   1  25
ATOM     25  C   UNL     1     -18.904  34.229   7.837  0.00  0.00    +0.000 C 
ATOM     26  C   UNL     1     -19.317  33.153   8.169  0.00  0.00    +0.000 C 
BRANCH  26  27
ATOM     27  C   UNL     1     -19.834  31.772   8.587  0.00  0.00    +0.000 C 
BRANCH  27  28
ATOM     28  N   UNL     1     -20.279  30.556   8.971  0.00  0.00    +0.000 N 
ATOM     29  C   UNL     1     -21.371  30.237   9.742  0.00  0.00    +0.000 C 
ATOM     30  O   UNL     1     -22.158  31.035  10.232  0.00  0.00    +0.000 OA
ATOM     31  H   UNL     1     -19.724  29.782   8.629  0.00  0.00    +0.000 HD
BRANCH  29  32
ATOM     32  C   UNL     1     -21.575  28.827   9.968  0.00  0.00    +0.000 C 
ATOM     33  C   UNL     1     -21.759  27.652  10.138  0.00  0.00    +0.000 C 
BRANCH  33  34
ATOM     34  C   UNL     1     -21.984  26.233  10.320  0.00  0.00    +0.000 C 
ATOM     35  O   UNL     1     -21.108  25.585  10.884  0.00  0.00    +0.000 OA
ATOM     36  N   UNL     1     -23.156  25.702   9.809  0.00  0.00    +0.000 N 
BRANCH  36  37
ATOM     37  C   UNL     1     -23.699  24.475   9.945  0.00  0.00    +0.000 C 
ATOM     38  C   UNL     1     -24.182  23.382  10.063  0.00  0.00    +0.000 C 
BRANCH  38  39
ATOM     39  C   UNL     1     -24.803  21.989  10.208  0.00  0.00    +0.000 C 
ATOM     40  C   UNL     1     -25.294  20.901  10.325  0.00  0.00    +0.000 C 
BRANCH  40  41
ATOM     41  C   UNL     1     -25.922  19.513  10.477  0.00  0.00    +0.000 C 
BRANCH  41  42
ATOM     42  N   UNL     1     -26.519  18.195  10.620  0.00  0.00    +0.000 NA
ATOM     43  H   UNL     1     -26.160  17.732  11.454  0.00  0.00    +0.000 HD
ATOM     44  H   UNL     1     -27.526  18.273  10.753  0.00  0.00    +0.000 HD
ENDBRANCH  41  42
ENDBRANCH  40  41
ENDBRANCH  38  39
ENDBRANCH  36  37
BRANCH  36  45
ATOM     45  O   UNL     1     -24.150  26.610   9.377  0.00  0.00    +0.000 OA
ATOM     46  H   UNL     1     -23.896  26.746   8.446  0.00  0.00    +0.000 HD
ENDBRANCH  36  45
ENDBRANCH  33  34
ENDBRANCH  29  32
ENDBRANCH  27  28
ENDBRANCH  26  27
ENDBRANCH   1  25
TORSDOF 19
ENDMDL
MODEL 8
REMARK VINA RESULT:      -4.3      3.396      7.702
REMARK  Name = Deferoxamine.pdbqt.pdb
REMARK  19 active torsions:
REMARK  status: ('A' for Active; 'I' for Inactive)
REMARK    1  A    between atoms: C_1  and  C_2
REMARK    2  A    between atoms: C_3  and  C_4
REMARK    3  A    between atoms: C_4  and  N_5
REMARK    4  A    between atoms: C_6  and  C_9
REMARK    5  A    between atoms: C_10  and  C_11
REMARK    6  A    between atoms: N_13  and  O_14
REMARK    7  A    between atoms: N_13  and  C_16
REMARK    8  A    between atoms: C_17  and  C_18
REMARK    9  A    between atoms: C_19  and  C_20
REMARK   10  A    between atoms: C_20  and  N_21
REMARK   11  A    between atoms: C_24  and  N_25
REMARK   12  A    between atoms: N_25  and  O_28
REMARK   13  A    between atoms: C_26  and  C_30
REMARK   14  A    between atoms: C_31  and  C_32
REMARK   15  A    between atoms: N_34  and  C_36
REMARK   16  A    between atoms: C_37  and  C_38
REMARK   17  A    between atoms: C_38  and  C_39
REMARK   18  A    between atoms: C_40  and  N_41
REMARK   19  A    between atoms: N_41  and  O_45
REMARK                            x       y       z     vdW  Elec       q    Type
REMARK                         _______ _______ _______ _____ _____    ______ ____
ROOT
ATOM      1  C   UNL     1      -5.934  25.682  23.168  0.00  0.00    +0.000 C 
ATOM      2  C   UNL     1      -6.616  25.511  24.142  0.00  0.00    +0.000 C 
ENDROOT
BRANCH   2   3
ATOM      3  N   UNL     1      -7.383  25.321  25.235  0.00  0.00    +0.000 N 
ATOM      4  C   UNL     1      -7.104  24.687  26.434  0.00  0.00    +0.000 C 
ATOM      5  O   UNL     1      -6.107  24.008  26.653  0.00  0.00    +0.000 OA
BRANCH   4   6
ATOM      6  C   UNL     1      -8.082  24.809  27.496  0.00  0.00    +0.000 C 
ATOM      7  C   UNL     1      -8.898  24.922  28.370  0.00  0.00    +0.000 C 
BRANCH   7   8
ATOM      8  C   UNL     1      -9.878  25.080  29.417  0.00  0.00    +0.000 C 
ATOM      9  O   UNL     1      -9.526  25.538  30.494  0.00  0.00    +0.000 OA
ATOM     10  N   UNL     1     -11.155  24.687  29.088  0.00  0.00    +0.000 N 
ATOM     11  H   UNL     1     -11.286  24.332  28.149  0.00  0.00    +0.000 HD
BRANCH  10  12
ATOM     12  C   UNL     1     -12.274  24.712  29.844  0.00  0.00    +0.000 C 
ATOM     13  C   UNL     1     -13.269  24.729  30.515  0.00  0.00    +0.000 C 
BRANCH  13  14
ATOM     14  C   UNL     1     -14.540  24.740  31.371  0.00  0.00    +0.000 C 
BRANCH  14  15
ATOM     15  C   UNL     1     -15.806  24.757  32.232  0.00  0.00    +0.000 C 
ATOM     16  C   UNL     1     -16.799  24.768  32.906  0.00  0.00    +0.000 C 
BRANCH  16  17
ATOM     17  N   UNL     1     -17.916  24.775  33.659  0.00  0.00    +0.000 N 
ATOM     18  C   UNL     1     -18.740  25.803  34.050  0.00  0.00    +0.000 C 
ATOM     19  O   UNL     1     -18.673  26.996  33.809  0.00  0.00    +0.000 OA
ATOM     20  C   UNL     1     -19.938  25.499  34.914  0.00  0.00    +0.000 C 
BRANCH  17  21
ATOM     21  O   UNL     1     -18.208  23.450  34.075  0.00  0.00    +0.000 OA
ATOM     22  H   UNL     1     -17.437  22.940  33.751  0.00  0.00    +0.000 HD
ENDBRANCH  17  21
ENDBRANCH  16  17
ENDBRANCH  14  15
ENDBRANCH  13  14
ENDBRANCH  10  12
ENDBRANCH   7   8
ENDBRANCH   4   6
BRANCH   3  23
ATOM     23  O   UNL     1      -8.461  26.234  25.216  0.00  0.00    +0.000 OA
ATOM     24  H   UNL     1      -9.218  25.637  25.066  0.00  0.00    +0.000 HD
ENDBRANCH   3  23
ENDBRANCH   2   3
BRANCH   1  25
ATOM     25  C   UNL     1      -5.063  25.914  21.930  0.00  0.00    +0.000 C 
ATOM     26  C   UNL     1      -4.379  26.083  20.959  0.00  0.00    +0.000 C 
BRANCH  26  27
ATOM     27  C   UNL     1      -3.505  26.284  19.717  0.00  0.00    +0.000 C 
BRANCH  27  28
ATOM     28  N   UNL     1      -2.740  26.446  18.616  0.00  0.00    +0.000 N 
ATOM     29  C   UNL     1      -2.109  27.578  18.158  0.00  0.00    +0.000 C 
ATOM     30  O   UNL     1      -2.135  28.677  18.693  0.00  0.00    +0.000 OA
ATOM     31  H   UNL     1      -2.619  25.605  18.065  0.00  0.00    +0.000 HD
BRANCH  29  32
ATOM     32  C   UNL     1      -1.358  27.414  16.937  0.00  0.00    +0.000 C 
ATOM     33  C   UNL     1      -0.735  27.254  15.923  0.00  0.00    +0.000 C 
BRANCH  33  34
ATOM     34  C   UNL     1       0.006  27.040  14.697  0.00  0.00    +0.000 C 
ATOM     35  O   UNL     1       0.400  25.903  14.459  0.00  0.00    +0.000 OA
ATOM     36  N   UNL     1       0.250  28.145  13.898  0.00  0.00    +0.000 N 
BRANCH  36  37
ATOM     37  C   UNL     1       0.774  28.237  12.659  0.00  0.00    +0.000 C 
ATOM     38  C   UNL     1       1.243  28.320  11.557  0.00  0.00    +0.000 C 
BRANCH  38  39
ATOM     39  C   UNL     1       1.843  28.433  10.152  0.00  0.00    +0.000 C 
ATOM     40  C   UNL     1       2.318  28.519   9.053  0.00  0.00    +0.000 C 
BRANCH  40  41
ATOM     41  C   UNL     1       2.927  28.627   7.653  0.00  0.00    +0.000 C 
BRANCH  41  42
ATOM     42  N   UNL     1       3.505  28.729   6.323  0.00  0.00    +0.000 NA
ATOM     43  H   UNL     1       3.143  27.991   5.720  0.00  0.00    +0.000 HD
ATOM     44  H   UNL     1       3.235  29.608   5.884  0.00  0.00    +0.000 HD
ENDBRANCH  41  42
ENDBRANCH  40  41
ENDBRANCH  38  39
ENDBRANCH  36  37
BRANCH  36  45
ATOM     45  O   UNL     1      -0.446  29.337  14.204  0.00  0.00    +0.000 OA
ATOM     46  H   UNL     1      -0.837  29.559  13.339  0.00  0.00    +0.000 HD
ENDBRANCH  36  45
ENDBRANCH  33  34
ENDBRANCH  29  32
ENDBRANCH  27  28
ENDBRANCH  26  27
ENDBRANCH   1  25
TORSDOF 19
ENDMDL
MODEL 9
REMARK VINA RESULT:      -4.1     14.447     15.602
REMARK  Name = Deferoxamine.pdbqt.pdb
REMARK  19 active torsions:
REMARK  status: ('A' for Active; 'I' for Inactive)
REMARK    1  A    between atoms: C_1  and  C_2
REMARK    2  A    between atoms: C_3  and  C_4
REMARK    3  A    between atoms: C_4  and  N_5
REMARK    4  A    between atoms: C_6  and  C_9
REMARK    5  A    between atoms: C_10  and  C_11
REMARK    6  A    between atoms: N_13  and  O_14
REMARK    7  A    between atoms: N_13  and  C_16
REMARK    8  A    between atoms: C_17  and  C_18
REMARK    9  A    between atoms: C_19  and  C_20
REMARK   10  A    between atoms: C_20  and  N_21
REMARK   11  A    between atoms: C_24  and  N_25
REMARK   12  A    between atoms: N_25  and  O_28
REMARK   13  A    between atoms: C_26  and  C_30
REMARK   14  A    between atoms: C_31  and  C_32
REMARK   15  A    between atoms: N_34  and  C_36
REMARK   16  A    between atoms: C_37  and  C_38
REMARK   17  A    between atoms: C_38  and  C_39
REMARK   18  A    between atoms: C_40  and  N_41
REMARK   19  A    between atoms: N_41  and  O_45
REMARK                            x       y       z     vdW  Elec       q    Type
REMARK                         _______ _______ _______ _____ _____    ______ ____
ROOT
ATOM      1  C   UNL     1     -11.038  27.683   9.811  0.00  0.00    +0.000 C 
ATOM      2  C   UNL     1     -12.238  27.643   9.750  0.00  0.00    +0.000 C 
ENDROOT
BRANCH   2   3
ATOM      3  N   UNL     1     -13.584  27.599   9.680  0.00  0.00    +0.000 N 
ATOM      4  C   UNL     1     -14.449  26.521   9.601  0.00  0.00    +0.000 C 
ATOM      5  O   UNL     1     -14.106  25.360   9.402  0.00  0.00    +0.000 OA
BRANCH   4   6
ATOM      6  C   UNL     1     -15.866  26.793   9.727  0.00  0.00    +0.000 C 
ATOM      7  C   UNL     1     -17.043  27.016   9.818  0.00  0.00    +0.000 C 
BRANCH   7   8
ATOM      8  C   UNL     1     -18.456  27.293   9.906  0.00  0.00    +0.000 C 
ATOM      9  O   UNL     1     -19.234  26.363  10.062  0.00  0.00    +0.000 OA
ATOM     10  N   UNL     1     -18.800  28.621   9.802  0.00  0.00    +0.000 N 
ATOM     11  H   UNL     1     -18.035  29.273   9.680  0.00  0.00    +0.000 HD
BRANCH  10  12
ATOM     12  C   UNL     1     -20.025  29.189   9.845  0.00  0.00    +0.000 C 
ATOM     13  C   UNL     1     -21.112  29.695   9.889  0.00  0.00    +0.000 C 
BRANCH  13  14
ATOM     14  C   UNL     1     -22.498  30.346   9.953  0.00  0.00    +0.000 C 
BRANCH  14  15
ATOM     15  C   UNL     1     -23.880  31.000  10.025  0.00  0.00    +0.000 C 
ATOM     16  C   UNL     1     -24.963  31.516  10.080  0.00  0.00    +0.000 C 
BRANCH  16  17
ATOM     17  N   UNL     1     -26.176  32.099  10.136  0.00  0.00    +0.000 N 
ATOM     18  C   UNL     1     -26.591  33.364   9.792  0.00  0.00    +0.000 C 
ATOM     19  O   UNL     1     -25.958  34.299   9.335  0.00  0.00    +0.000 OA
ATOM     20  C   UNL     1     -28.040  33.739   9.974  0.00  0.00    +0.000 C 
BRANCH  17  21
ATOM     21  O   UNL     1     -27.117  31.173  10.656  0.00  0.00    +0.000 OA
ATOM     22  H   UNL     1     -26.553  30.521  11.122  0.00  0.00    +0.000 HD
ENDBRANCH  17  21
ENDBRANCH  16  17
ENDBRANCH  14  15
ENDBRANCH  13  14
ENDBRANCH  10  12
ENDBRANCH   7   8
ENDBRANCH   4   6
BRANCH   3  23
ATOM     23  O   UNL     1     -14.116  28.831  10.123  0.00  0.00    +0.000 OA
ATOM     24  H   UNL     1     -13.524  29.468   9.682  0.00  0.00    +0.000 HD
ENDBRANCH   3  23
ENDBRANCH   2   3
BRANCH   1  25
ATOM     25  C   UNL     1      -9.511  27.749   9.892  0.00  0.00    +0.000 C 
ATOM     26  C   UNL     1      -8.315  27.815   9.958  0.00  0.00    +0.000 C 
BRANCH  26  27
ATOM     27  C   UNL     1      -6.788  27.913  10.043  0.00  0.00    +0.000 C 
BRANCH  27  28
ATOM     28  N   UNL     1      -5.442  28.003  10.100  0.00  0.00    +0.000 N 
ATOM     29  C   UNL     1      -4.494  27.211   9.496  0.00  0.00    +0.000 C 
ATOM     30  O   UNL     1      -4.720  26.250   8.775  0.00  0.00    +0.000 OA
ATOM     31  H   UNL     1      -5.099  28.770  10.665  0.00  0.00    +0.000 HD
BRANCH  29  32
ATOM     32  C   UNL     1      -3.125  27.580   9.759  0.00  0.00    +0.000 C 
ATOM     33  C   UNL     1      -1.983  27.871   9.996  0.00  0.00    +0.000 C 
BRANCH  33  34
ATOM     34  C   UNL     1      -0.603  28.200  10.288  0.00  0.00    +0.000 C 
ATOM     35  O   UNL     1      -0.282  28.312  11.467  0.00  0.00    +0.000 OA
ATOM     36  N   UNL     1       0.246  28.402   9.213  0.00  0.00    +0.000 N 
BRANCH  36  37
ATOM     37  C   UNL     1       1.583  28.574   9.168  0.00  0.00    +0.000 C 
ATOM     38  C   UNL     1       2.772  28.731   9.130  0.00  0.00    +0.000 C 
BRANCH  38  39
ATOM     39  C   UNL     1       4.290  28.937   9.078  0.00  0.00    +0.000 C 
ATOM     40  C   UNL     1       5.478  29.093   9.037  0.00  0.00    +0.000 C 
BRANCH  40  41
ATOM     41  C   UNL     1       6.996  29.289   8.986  0.00  0.00    +0.000 C 
BRANCH  41  42
ATOM     42  N   UNL     1       8.437  29.474   8.936  0.00  0.00    +0.000 NA
ATOM     43  H   UNL     1       8.785  29.794   9.839  0.00  0.00    +0.000 HD
ATOM     44  H   UNL     1       8.904  28.588   8.753  0.00  0.00    +0.000 HD
ENDBRANCH  41  42
ENDBRANCH  40  41
ENDBRANCH  38  39
ENDBRANCH  36  37
BRANCH  36  45
ATOM     45  O   UNL     1      -0.224  28.031   7.933  0.00  0.00    +0.000 OA
ATOM     46  H   UNL     1       0.605  27.769   7.491  0.00  0.00    +0.000 HD
ENDBRANCH  36  45
ENDBRANCH  33  34
ENDBRANCH  29  32
ENDBRANCH  27  28
ENDBRANCH  26  27
ENDBRANCH   1  25
TORSDOF 19
ENDMDL
