MODEL 1
REMARK VINA RESULT:      -6.5      0.000      0.000
REMARK  Name = 
REMARK  25 active torsions:
REMARK  status: ('A' for Active; 'I' for Inactive)
REMARK    1  A    between atoms: O_2  and  C_17
REMARK    2  A    between atoms: O_2  and  C_36
REMARK    3  A    between atoms: O_3  and  C_20
REMARK    4  A    between atoms: O_3  and  C_37
REMARK    5  A    between atoms: O_4  and  C_21
REMARK    6  A    between atoms: O_5  and  C_22
REMARK    7  A    between atoms: O_7  and  C_30
REMARK    8  A    between atoms: O_8  and  C_31
REMARK    9  A    between atoms: O_8  and  C_39
REMARK   10  A    between atoms: O_12  and  C_41
REMARK   11  A    between atoms: O_13  and  C_51
REMARK   12  A    between atoms: O_13  and  C_55
REMARK   13  A    between atoms: N_15  and  C_44
REMARK   14  A    between atoms: C_18  and  C_29
REMARK   15  A    between atoms: C_24  and  C_33
REMARK   16  A    between atoms: C_24  and  C_34
REMARK   17  A    between atoms: C_32  and  C_35
REMARK   18  A    between atoms: C_36  and  C_38
REMARK   19  A    between atoms: C_37  and  C_40
REMARK   20  A    between atoms: C_39  and  C_41
REMARK   21  A    between atoms: C_41  and  C_44
REMARK   22  A    between atoms: C_44  and  C_48
REMARK   23  A    between atoms: C_55  and  C_56
REMARK   24  A    between atoms: C_55  and  C_57
REMARK   25  A    between atoms: C_55  and  C_58
REMARK                            x       y       z     vdW  Elec       q    Type
REMARK                         _______ _______ _______ _____ _____    ______ ____
ROOT
ATOM      1  O   UNL     1      -1.629  45.569  28.371  0.00  0.00    +0.000 OA
ATOM      2  O   UNL     1      -3.040  51.947  29.949  0.00  0.00    +0.000 OA
ATOM      3  C   UNL     1      -4.049  47.678  29.617  0.00  0.00    +0.000 C 
ATOM      4  C   UNL     1      -3.445  46.686  28.579  0.00  0.00    +0.000 C 
ATOM      5  C   UNL     1      -3.441  49.412  29.144  0.00  0.00    +0.000 C 
ATOM      6  C   UNL     1      -1.930  46.838  29.014  0.00  0.00    +0.000 C 
ATOM      7  C   UNL     1      -5.844  47.318  29.970  0.00  0.00    +0.000 C 
ATOM      8  C   UNL     1      -7.313  47.964  30.975  0.00  0.00    +0.000 C 
ATOM      9  C   UNL     1      -1.864  49.305  29.266  0.00  0.00    +0.000 C 
ATOM     10  C   UNL     1      -1.218  48.086  28.538  0.00  0.00    +0.000 C 
ATOM     11  C   UNL     1      -7.480  49.515  31.823  0.00  0.00    +0.000 C 
ATOM     12  C   UNL     1      -3.010  45.175  28.737  0.00  0.00    +0.000 C 
ATOM     13  C   UNL     1      -3.921  51.060  29.918  0.00  0.00    +0.000 C 
ATOM     14  C   UNL     1      -8.518  48.083  29.933  0.00  0.00    +0.000 C 
ATOM     15  C   UNL     1      -7.175  50.752  30.854  0.00  0.00    +0.000 C 
ATOM     16  C   UNL     1      -3.665  49.732  27.607  0.00  0.00    +0.000 C 
ATOM     17  C   UNL     1      -5.604  51.582  30.677  0.00  0.00    +0.000 C 
ATOM     18  C   UNL     1      -8.801  49.512  29.277  0.00  0.00    +0.000 C 
ATOM     19  C   UNL     1      -8.049  50.790  29.793  0.00  0.00    +0.000 C 
ATOM     20  C   UNL     1      -9.021  49.644  32.273  0.00  0.00    +0.000 C 
ATOM     21  C   UNL     1      -6.905  49.661  33.268  0.00  0.00    +0.000 C 
ATOM     22  C   UNL     1      -8.151  51.980  28.872  0.00  0.00    +0.000 C 
ENDROOT
BRANCH  17  23
ATOM     23  O   UNL     1      -5.455  52.340  31.878  0.00  0.00    +0.000 OA
ATOM     24  H   UNL     1      -4.968  51.753  32.487  0.00  0.00    +0.000 HD
ENDBRANCH  17  23
BRANCH   9  25
ATOM     25  O   UNL     1      -1.520  49.190  30.648  0.00  0.00    +0.000 OA
ATOM     26  H   UNL     1      -0.667  49.645  30.769  0.00  0.00    +0.000 HD
ENDBRANCH   9  25
BRANCH   8  27
ATOM     27  O   UNL     1      -7.645  46.882  31.868  0.00  0.00    +0.000 OA
ATOM     28  H   UNL     1      -7.717  47.228  32.775  0.00  0.00    +0.000 HD
ENDBRANCH   8  27
BRANCH  18  29
ATOM     29  O   UNL     1      -8.519  49.405  27.852  0.00  0.00    +0.000 OA
BRANCH  29  31
ATOM     30  O   UNL     1      -9.459  50.319  26.013  0.00  0.00    +0.000 OA
ATOM     31  C   UNL     1      -9.550  49.582  26.989  0.00  0.00    +0.000 C 
BRANCH  31  32
ATOM     32  C   UNL     1     -10.872  48.932  27.411  0.00  0.00    +0.000 C 
BRANCH  32  33
ATOM     33  O   UNL     1     -11.212  47.723  26.722  0.00  0.00    +0.000 OA
ATOM     34  H   UNL     1     -12.187  47.685  26.708  0.00  0.00    +0.000 HD
ENDBRANCH  32  33
BRANCH  32  35
ATOM     35  C   UNL     1     -12.001  49.991  27.291  0.00  0.00    +0.000 C 
BRANCH  35  36
ATOM     36  C   UNL     1     -11.971  51.012  28.424  0.00  0.00    +0.000 A 
ATOM     37  C   UNL     1     -12.073  50.574  29.754  0.00  0.00    +0.000 A 
ATOM     38  C   UNL     1     -11.806  52.386  28.181  0.00  0.00    +0.000 A 
ATOM     39  C   UNL     1     -12.037  51.486  30.811  0.00  0.00    +0.000 A 
ATOM     40  C   UNL     1     -11.772  53.296  29.240  0.00  0.00    +0.000 A 
ATOM     41  C   UNL     1     -11.891  52.847  30.553  0.00  0.00    +0.000 A 
ENDBRANCH  35  36
BRANCH  35  43
ATOM     42  O   UNL     1     -13.482  49.111  24.991  0.00  0.00    +0.000 OA
ATOM     43  N   UNL     1     -13.316  49.367  27.256  0.00  0.00    +0.000 N 
ATOM     44  C   UNL     1     -13.976  49.084  26.105  0.00  0.00    +0.000 C 
ATOM     45  H   UNL     1     -13.881  49.420  28.094  0.00  0.00    +0.000 HD
BRANCH  44  46
ATOM     46  O   UNL     1     -15.248  48.745  26.409  0.00  0.00    +0.000 OA
BRANCH  46  47
ATOM     47  C   UNL     1     -16.364  49.507  25.880  0.00  0.00    +0.000 C 
ATOM     48  C   UNL     1     -16.673  49.112  24.432  0.00  0.00    +0.000 C 
ATOM     49  C   UNL     1     -17.558  49.112  26.762  0.00  0.00    +0.000 C 
ATOM     50  C   UNL     1     -16.125  51.014  26.023  0.00  0.00    +0.000 C 
ENDBRANCH  46  47
ENDBRANCH  44  46
ENDBRANCH  35  43
ENDBRANCH  32  35
ENDBRANCH  31  32
ENDBRANCH  29  31
ENDBRANCH  18  29
BRANCH   7  51
ATOM     51  O   UNL     1      -6.114  48.212  29.042  0.00  0.00    +0.000 OA
BRANCH  51  53
ATOM     52  O   UNL     1      -6.418  46.233  28.895  0.00  0.00    +0.000 OA
ATOM     53  C   UNL     1      -6.571  47.230  28.197  0.00  0.00    +0.000 C 
BRANCH  53  54
ATOM     54  C   UNL     1      -6.975  47.509  26.345  0.00  0.00    +0.000 A 
ATOM     55  C   UNL     1      -8.059  46.859  25.608  0.00  0.00    +0.000 A 
ATOM     56  C   UNL     1      -6.388  48.466  25.462  0.00  0.00    +0.000 A 
ATOM     57  C   UNL     1      -8.462  47.112  24.272  0.00  0.00    +0.000 A 
ATOM     58  C   UNL     1      -6.779  48.735  24.117  0.00  0.00    +0.000 A 
ATOM     59  C   UNL     1      -7.815  48.060  23.520  0.00  0.00    +0.000 A 
ENDBRANCH  53  54
ENDBRANCH  51  53
ENDBRANCH   7  51
BRANCH   4  60
ATOM     60  O   UNL     1      -3.715  47.084  27.214  0.00  0.00    +0.000 OA
BRANCH  60  62
ATOM     61  O   UNL     1      -2.304  46.496  25.580  0.00  0.00    +0.000 OA
ATOM     62  C   UNL     1      -3.393  46.342  26.128  0.00  0.00    +0.000 C 
ATOM     63  C   UNL     1      -4.423  45.427  25.544  0.00  0.00    +0.000 C 
ENDBRANCH  60  62
ENDBRANCH   4  60
TORSDOF 17
ENDMDL
MODEL 2
REMARK VINA RESULT:      -6.2      1.482      2.022
REMARK  Name = 
REMARK  25 active torsions:
REMARK  status: ('A' for Active; 'I' for Inactive)
REMARK    1  A    between atoms: O_2  and  C_17
REMARK    2  A    between atoms: O_2  and  C_36
REMARK    3  A    between atoms: O_3  and  C_20
REMARK    4  A    between atoms: O_3  and  C_37
REMARK    5  A    between atoms: O_4  and  C_21
REMARK    6  A    between atoms: O_5  and  C_22
REMARK    7  A    between atoms: O_7  and  C_30
REMARK    8  A    between atoms: O_8  and  C_31
REMARK    9  A    between atoms: O_8  and  C_39
REMARK   10  A    between atoms: O_12  and  C_41
REMARK   11  A    between atoms: O_13  and  C_51
REMARK   12  A    between atoms: O_13  and  C_55
REMARK   13  A    between atoms: N_15  and  C_44
REMARK   14  A    between atoms: C_18  and  C_29
REMARK   15  A    between atoms: C_24  and  C_33
REMARK   16  A    between atoms: C_24  and  C_34
REMARK   17  A    between atoms: C_32  and  C_35
REMARK   18  A    between atoms: C_36  and  C_38
REMARK   19  A    between atoms: C_37  and  C_40
REMARK   20  A    between atoms: C_39  and  C_41
REMARK   21  A    between atoms: C_41  and  C_44
REMARK   22  A    between atoms: C_44  and  C_48
REMARK   23  A    between atoms: C_55  and  C_56
REMARK   24  A    between atoms: C_55  and  C_57
REMARK   25  A    between atoms: C_55  and  C_58
REMARK                            x       y       z     vdW  Elec       q    Type
REMARK                         _______ _______ _______ _____ _____    ______ ____
ROOT
ATOM      1  O   UNL     1      -1.600  45.698  28.433  0.00  0.00    +0.000 OA
ATOM      2  O   UNL     1      -3.131  52.041  30.039  0.00  0.00    +0.000 OA
ATOM      3  C   UNL     1      -4.035  47.745  29.751  0.00  0.00    +0.000 C 
ATOM      4  C   UNL     1      -3.439  46.767  28.697  0.00  0.00    +0.000 C 
ATOM      5  C   UNL     1      -3.489  49.494  29.255  0.00  0.00    +0.000 C 
ATOM      6  C   UNL     1      -1.915  46.960  29.082  0.00  0.00    +0.000 C 
ATOM      7  C   UNL     1      -5.806  47.339  30.164  0.00  0.00    +0.000 C 
ATOM      8  C   UNL     1      -7.259  47.948  31.216  0.00  0.00    +0.000 C 
ATOM      9  C   UNL     1      -1.907  49.429  29.326  0.00  0.00    +0.000 C 
ATOM     10  C   UNL     1      -1.252  48.226  28.580  0.00  0.00    +0.000 C 
ATOM     11  C   UNL     1      -7.440  49.497  32.064  0.00  0.00    +0.000 C 
ATOM     12  C   UNL     1      -2.958  45.268  28.846  0.00  0.00    +0.000 C 
ATOM     13  C   UNL     1      -3.988  51.130  30.040  0.00  0.00    +0.000 C 
ATOM     14  C   UNL     1      -8.501  48.031  30.212  0.00  0.00    +0.000 C 
ATOM     15  C   UNL     1      -7.201  50.738  31.082  0.00  0.00    +0.000 C 
ATOM     16  C   UNL     1      -3.772  49.802  27.725  0.00  0.00    +0.000 C 
ATOM     17  C   UNL     1      -5.659  51.610  30.851  0.00  0.00    +0.000 C 
ATOM     18  C   UNL     1      -8.843  49.449  29.563  0.00  0.00    +0.000 C 
ATOM     19  C   UNL     1      -8.110  50.750  30.050  0.00  0.00    +0.000 C 
ATOM     20  C   UNL     1      -8.968  49.586  32.564  0.00  0.00    +0.000 C 
ATOM     21  C   UNL     1      -6.823  49.664  33.489  0.00  0.00    +0.000 C 
ATOM     22  C   UNL     1      -8.273  51.933  29.129  0.00  0.00    +0.000 C 
ENDROOT
BRANCH  17  23
ATOM     23  O   UNL     1      -5.492  52.376  32.045  0.00  0.00    +0.000 OA
ATOM     24  H   UNL     1      -4.823  53.050  31.819  0.00  0.00    +0.000 HD
ENDBRANCH  17  23
BRANCH   9  25
ATOM     25  O   UNL     1      -1.515  49.328  30.696  0.00  0.00    +0.000 OA
ATOM     26  H   UNL     1      -2.061  49.962  31.195  0.00  0.00    +0.000 HD
ENDBRANCH   9  25
BRANCH   8  27
ATOM     27  O   UNL     1      -7.533  46.861  32.122  0.00  0.00    +0.000 OA
ATOM     28  H   UNL     1      -8.360  47.046  32.600  0.00  0.00    +0.000 HD
ENDBRANCH   8  27
BRANCH  18  29
ATOM     29  O   UNL     1      -8.605  49.346  28.129  0.00  0.00    +0.000 OA
BRANCH  29  31
ATOM     30  O   UNL     1      -9.761  50.231  26.403  0.00  0.00    +0.000 OA
ATOM     31  C   UNL     1      -9.680  49.403  27.304  0.00  0.00    +0.000 C 
BRANCH  31  32
ATOM     32  C   UNL     1     -10.842  48.479  27.683  0.00  0.00    +0.000 C 
BRANCH  32  33
ATOM     33  O   UNL     1     -11.189  47.493  26.703  0.00  0.00    +0.000 OA
ATOM     34  H   UNL     1     -11.036  46.627  27.126  0.00  0.00    +0.000 HD
ENDBRANCH  32  33
BRANCH  32  35
ATOM     35  C   UNL     1     -12.064  49.357  28.064  0.00  0.00    +0.000 C 
BRANCH  35  36
ATOM     36  C   UNL     1     -12.958  48.697  29.108  0.00  0.00    +0.000 A 
ATOM     37  C   UNL     1     -12.394  48.217  30.301  0.00  0.00    +0.000 A 
ATOM     38  C   UNL     1     -14.348  48.585  28.933  0.00  0.00    +0.000 A 
ATOM     39  C   UNL     1     -13.192  47.619  31.279  0.00  0.00    +0.000 A 
ATOM     40  C   UNL     1     -15.143  47.986  29.912  0.00  0.00    +0.000 A 
ATOM     41  C   UNL     1     -14.565  47.501  31.082  0.00  0.00    +0.000 A 
ENDBRANCH  35  36
BRANCH  35  43
ATOM     42  O   UNL     1     -12.626  51.957  26.977  0.00  0.00    +0.000 OA
ATOM     43  N   UNL     1     -12.870  49.685  26.896  0.00  0.00    +0.000 N 
ATOM     44  C   UNL     1     -13.161  50.958  26.526  0.00  0.00    +0.000 C 
ATOM     45  H   UNL     1     -13.474  48.963  26.527  0.00  0.00    +0.000 HD
BRANCH  44  46
ATOM     46  O   UNL     1     -14.112  50.921  25.568  0.00  0.00    +0.000 OA
BRANCH  46  47
ATOM     47  C   UNL     1     -13.811  51.330  24.209  0.00  0.00    +0.000 C 
ATOM     48  C   UNL     1     -13.857  52.854  24.060  0.00  0.00    +0.000 C 
ATOM     49  C   UNL     1     -12.369  50.857  23.971  0.00  0.00    +0.000 C 
ATOM     50  C   UNL     1     -14.729  50.627  23.203  0.00  0.00    +0.000 C 
ENDBRANCH  46  47
ENDBRANCH  44  46
ENDBRANCH  35  43
ENDBRANCH  32  35
ENDBRANCH  31  32
ENDBRANCH  29  31
ENDBRANCH  18  29
BRANCH   7  51
ATOM     51  O   UNL     1      -6.131  48.222  29.243  0.00  0.00    +0.000 OA
BRANCH  51  53
ATOM     52  O   UNL     1      -6.387  46.235  29.112  0.00  0.00    +0.000 OA
ATOM     53  C   UNL     1      -6.572  47.223  28.409  0.00  0.00    +0.000 C 
BRANCH  53  54
ATOM     54  C   UNL     1      -7.004  47.480  26.560  0.00  0.00    +0.000 A 
ATOM     55  C   UNL     1      -8.028  46.743  25.819  0.00  0.00    +0.000 A 
ATOM     56  C   UNL     1      -6.504  48.492  25.684  0.00  0.00    +0.000 A 
ATOM     57  C   UNL     1      -8.454  46.971  24.486  0.00  0.00    +0.000 A 
ATOM     58  C   UNL     1      -6.920  48.736  24.342  0.00  0.00    +0.000 A 
ATOM     59  C   UNL     1      -7.895  47.978  23.741  0.00  0.00    +0.000 A 
ENDBRANCH  53  54
ENDBRANCH  51  53
ENDBRANCH   7  51
BRANCH   4  60
ATOM     60  O   UNL     1      -3.764  47.151  27.341  0.00  0.00    +0.000 OA
BRANCH  60  62
ATOM     61  O   UNL     1      -2.330  46.640  25.701  0.00  0.00    +0.000 OA
ATOM     62  C   UNL     1      -3.414  46.440  26.244  0.00  0.00    +0.000 C 
ATOM     63  C   UNL     1      -4.410  45.500  25.641  0.00  0.00    +0.000 C 
ENDBRANCH  60  62
ENDBRANCH   4  60
TORSDOF 17
ENDMDL
MODEL 3
REMARK VINA RESULT:      -6.1      2.410      3.919
REMARK  Name = 
REMARK  25 active torsions:
REMARK  status: ('A' for Active; 'I' for Inactive)
REMARK    1  A    between atoms: O_2  and  C_17
REMARK    2  A    between atoms: O_2  and  C_36
REMARK    3  A    between atoms: O_3  and  C_20
REMARK    4  A    between atoms: O_3  and  C_37
REMARK    5  A    between atoms: O_4  and  C_21
REMARK    6  A    between atoms: O_5  and  C_22
REMARK    7  A    between atoms: O_7  and  C_30
REMARK    8  A    between atoms: O_8  and  C_31
REMARK    9  A    between atoms: O_8  and  C_39
REMARK   10  A    between atoms: O_12  and  C_41
REMARK   11  A    between atoms: O_13  and  C_51
REMARK   12  A    between atoms: O_13  and  C_55
REMARK   13  A    between atoms: N_15  and  C_44
REMARK   14  A    between atoms: C_18  and  C_29
REMARK   15  A    between atoms: C_24  and  C_33
REMARK   16  A    between atoms: C_24  and  C_34
REMARK   17  A    between atoms: C_32  and  C_35
REMARK   18  A    between atoms: C_36  and  C_38
REMARK   19  A    between atoms: C_37  and  C_40
REMARK   20  A    between atoms: C_39  and  C_41
REMARK   21  A    between atoms: C_41  and  C_44
REMARK   22  A    between atoms: C_44  and  C_48
REMARK   23  A    between atoms: C_55  and  C_56
REMARK   24  A    between atoms: C_55  and  C_57
REMARK   25  A    between atoms: C_55  and  C_58
REMARK                            x       y       z     vdW  Elec       q    Type
REMARK                         _______ _______ _______ _____ _____    ______ ____
ROOT
ATOM      1  O   UNL     1      -2.659  45.195  27.988  0.00  0.00    +0.000 OA
ATOM      2  O   UNL     1      -2.622  51.915  28.003  0.00  0.00    +0.000 OA
ATOM      3  C   UNL     1      -4.336  48.004  29.062  0.00  0.00    +0.000 C 
ATOM      4  C   UNL     1      -4.170  46.693  28.238  0.00  0.00    +0.000 C 
ATOM      5  C   UNL     1      -3.600  49.410  28.021  0.00  0.00    +0.000 C 
ATOM      6  C   UNL     1      -2.590  46.612  28.304  0.00  0.00    +0.000 C 
ATOM      7  C   UNL     1      -6.020  48.130  29.850  0.00  0.00    +0.000 C 
ATOM      8  C   UNL     1      -7.076  49.290  30.911  0.00  0.00    +0.000 C 
ATOM      9  C   UNL     1      -2.079  48.997  27.852  0.00  0.00    +0.000 C 
ATOM     10  C   UNL     1      -1.831  47.533  27.373  0.00  0.00    +0.000 C 
ATOM     11  C   UNL     1      -6.783  50.994  31.316  0.00  0.00    +0.000 C 
ATOM     12  C   UNL     1      -3.951  45.202  28.715  0.00  0.00    +0.000 C 
ATOM     13  C   UNL     1      -3.610  51.255  28.393  0.00  0.00    +0.000 C 
ATOM     14  C   UNL     1      -8.468  49.421  30.136  0.00  0.00    +0.000 C 
ATOM     15  C   UNL     1      -6.539  51.878  30.004  0.00  0.00    +0.000 C 
ATOM     16  C   UNL     1      -4.144  49.406  26.531  0.00  0.00    +0.000 C 
ATOM     17  C   UNL     1      -4.951  52.287  29.298  0.00  0.00    +0.000 C 
ATOM     18  C   UNL     1      -8.677  50.686  29.184  0.00  0.00    +0.000 C 
ATOM     19  C   UNL     1      -7.631  51.857  29.169  0.00  0.00    +0.000 C 
ATOM     20  C   UNL     1      -8.126  51.551  32.010  0.00  0.00    +0.000 C 
ATOM     21  C   UNL     1      -5.854  51.344  32.521  0.00  0.00    +0.000 C 
ATOM     22  C   UNL     1      -7.770  52.795  27.996  0.00  0.00    +0.000 C 
ENDROOT
BRANCH  17  23
ATOM     23  O   UNL     1      -4.393  53.252  30.190  0.00  0.00    +0.000 OA
ATOM     24  H   UNL     1      -3.435  53.067  30.194  0.00  0.00    +0.000 HD
ENDBRANCH  17  23
BRANCH   9  25
ATOM     25  O   UNL     1      -1.426  49.133  29.116  0.00  0.00    +0.000 OA
ATOM     26  H   UNL     1      -0.582  49.591  28.953  0.00  0.00    +0.000 HD
ENDBRANCH   9  25
BRANCH   8  27
ATOM     27  O   UNL     1      -7.342  48.542  32.113  0.00  0.00    +0.000 OA
ATOM     28  H   UNL     1      -8.075  48.963  32.596  0.00  0.00    +0.000 HD
ENDBRANCH   8  27
BRANCH  18  29
ATOM     29  O   UNL     1      -8.777  50.195  27.816  0.00  0.00    +0.000 OA
BRANCH  29  31
ATOM     30  O   UNL     1     -10.937  49.541  27.744  0.00  0.00    +0.000 OA
ATOM     31  C   UNL     1     -10.006  50.163  27.244  0.00  0.00    +0.000 C 
BRANCH  31  32
ATOM     32  C   UNL     1     -10.098  50.815  25.860  0.00  0.00    +0.000 C 
BRANCH  32  33
ATOM     33  O   UNL     1      -8.864  51.312  25.329  0.00  0.00    +0.000 OA
ATOM     34  H   UNL     1      -8.226  50.577  25.399  0.00  0.00    +0.000 HD
ENDBRANCH  32  33
BRANCH  32  35
ATOM     35  C   UNL     1     -11.183  51.924  25.911  0.00  0.00    +0.000 C 
BRANCH  35  36
ATOM     36  C   UNL     1     -12.555  51.425  25.473  0.00  0.00    +0.000 A 
ATOM     37  C   UNL     1     -13.710  52.076  25.935  0.00  0.00    +0.000 A 
ATOM     38  C   UNL     1     -12.705  50.347  24.583  0.00  0.00    +0.000 A 
ATOM     39  C   UNL     1     -14.979  51.646  25.541  0.00  0.00    +0.000 A 
ATOM     40  C   UNL     1     -13.975  49.919  24.191  0.00  0.00    +0.000 A 
ATOM     41  C   UNL     1     -15.111  50.567  24.672  0.00  0.00    +0.000 A 
ENDBRANCH  35  36
BRANCH  35  43
ATOM     42  O   UNL     1     -10.843  54.658  26.730  0.00  0.00    +0.000 OA
ATOM     43  N   UNL     1     -10.815  53.068  25.087  0.00  0.00    +0.000 N 
ATOM     44  C   UNL     1     -10.784  54.342  25.554  0.00  0.00    +0.000 C 
ATOM     45  H   UNL     1     -10.878  52.961  24.084  0.00  0.00    +0.000 HD
BRANCH  44  46
ATOM     46  O   UNL     1     -10.650  55.182  24.505  0.00  0.00    +0.000 OA
BRANCH  46  47
ATOM     47  C   UNL     1      -9.573  56.153  24.465  0.00  0.00    +0.000 C 
ATOM     48  C   UNL     1      -8.235  55.520  24.864  0.00  0.00    +0.000 C 
ATOM     49  C   UNL     1      -9.492  56.584  22.993  0.00  0.00    +0.000 C 
ATOM     50  C   UNL     1      -9.902  57.382  25.319  0.00  0.00    +0.000 C 
ENDBRANCH  46  47
ENDBRANCH  44  46
ENDBRANCH  35  43
ENDBRANCH  32  35
ENDBRANCH  31  32
ENDBRANCH  29  31
ENDBRANCH  18  29
BRANCH   7  51
ATOM     51  O   UNL     1      -6.369  48.821  28.785  0.00  0.00    +0.000 OA
BRANCH  51  53
ATOM     52  O   UNL     1      -7.047  46.996  29.274  0.00  0.00    +0.000 OA
ATOM     53  C   UNL     1      -7.152  47.784  28.340  0.00  0.00    +0.000 C 
BRANCH  53  54
ATOM     54  C   UNL     1      -7.856  47.656  26.563  0.00  0.00    +0.000 A 
ATOM     55  C   UNL     1      -9.107  46.993  26.193  0.00  0.00    +0.000 A 
ATOM     56  C   UNL     1      -7.355  48.286  25.382  0.00  0.00    +0.000 A 
ATOM     57  C   UNL     1      -9.720  46.965  24.914  0.00  0.00    +0.000 A 
ATOM     58  C   UNL     1      -7.956  48.269  24.089  0.00  0.00    +0.000 A 
ATOM     59  C   UNL     1      -9.138  47.610  23.853  0.00  0.00    +0.000 A 
ENDBRANCH  53  54
ENDBRANCH  51  53
ENDBRANCH   7  51
BRANCH   4  60
ATOM     60  O   UNL     1      -4.704  46.812  26.898  0.00  0.00    +0.000 OA
BRANCH  60  62
ATOM     61  O   UNL     1      -5.999  45.062  26.386  0.00  0.00    +0.000 OA
ATOM     62  C   UNL     1      -5.025  45.759  26.111  0.00  0.00    +0.000 C 
ATOM     63  C   UNL     1      -4.116  45.393  24.982  0.00  0.00    +0.000 C 
ENDBRANCH  60  62
ENDBRANCH   4  60
TORSDOF 17
ENDMDL
MODEL 4
REMARK VINA RESULT:      -5.7     25.597     29.289
REMARK  Name = 
REMARK  25 active torsions:
REMARK  status: ('A' for Active; 'I' for Inactive)
REMARK    1  A    between atoms: O_2  and  C_17
REMARK    2  A    between atoms: O_2  and  C_36
REMARK    3  A    between atoms: O_3  and  C_20
REMARK    4  A    between atoms: O_3  and  C_37
REMARK    5  A    between atoms: O_4  and  C_21
REMARK    6  A    between atoms: O_5  and  C_22
REMARK    7  A    between atoms: O_7  and  C_30
REMARK    8  A    between atoms: O_8  and  C_31
REMARK    9  A    between atoms: O_8  and  C_39
REMARK   10  A    between atoms: O_12  and  C_41
REMARK   11  A    between atoms: O_13  and  C_51
REMARK   12  A    between atoms: O_13  and  C_55
REMARK   13  A    between atoms: N_15  and  C_44
REMARK   14  A    between atoms: C_18  and  C_29
REMARK   15  A    between atoms: C_24  and  C_33
REMARK   16  A    between atoms: C_24  and  C_34
REMARK   17  A    between atoms: C_32  and  C_35
REMARK   18  A    between atoms: C_36  and  C_38
REMARK   19  A    between atoms: C_37  and  C_40
REMARK   20  A    between atoms: C_39  and  C_41
REMARK   21  A    between atoms: C_41  and  C_44
REMARK   22  A    between atoms: C_44  and  C_48
REMARK   23  A    between atoms: C_55  and  C_56
REMARK   24  A    between atoms: C_55  and  C_57
REMARK   25  A    between atoms: C_55  and  C_58
REMARK                            x       y       z     vdW  Elec       q    Type
REMARK                         _______ _______ _______ _____ _____    ______ ____
ROOT
ATOM      1  O   UNL     1     -16.243  32.525   1.520  0.00  0.00    +0.000 OA
ATOM      2  O   UNL     1     -18.164  33.030   7.940  0.00  0.00    +0.000 OA
ATOM      3  C   UNL     1     -18.766  33.573   3.616  0.00  0.00    +0.000 C 
ATOM      4  C   UNL     1     -17.634  33.775   2.566  0.00  0.00    +0.000 C 
ATOM      5  C   UNL     1     -17.950  33.636   5.329  0.00  0.00    +0.000 C 
ATOM      6  C   UNL     1     -16.873  32.411   2.825  0.00  0.00    +0.000 C 
ATOM      7  C   UNL     1     -20.289  34.566   3.206  0.00  0.00    +0.000 C 
ATOM      8  C   UNL     1     -22.018  34.968   3.869  0.00  0.00    +0.000 C 
ATOM      9  C   UNL     1     -16.932  32.421   5.305  0.00  0.00    +0.000 C 
ATOM     10  C   UNL     1     -15.997  32.355   4.058  0.00  0.00    +0.000 C 
ATOM     11  C   UNL     1     -22.690  34.641   5.479  0.00  0.00    +0.000 C 
ATOM     12  C   UNL     1     -17.486  33.212   1.096  0.00  0.00    +0.000 C 
ATOM     13  C   UNL     1     -18.788  33.592   7.013  0.00  0.00    +0.000 C 
ATOM     14  C   UNL     1     -22.120  36.562   3.840  0.00  0.00    +0.000 C 
ATOM     15  C   UNL     1     -21.750  35.219   6.639  0.00  0.00    +0.000 C 
ATOM     16  C   UNL     1     -17.006  34.898   5.501  0.00  0.00    +0.000 C 
ATOM     17  C   UNL     1     -20.495  34.306   7.522  0.00  0.00    +0.000 C 
ATOM     18  C   UNL     1     -21.810  37.356   5.191  0.00  0.00    +0.000 C 
ATOM     19  C   UNL     1     -21.610  36.584   6.543  0.00  0.00    +0.000 C 
ATOM     20  C   UNL     1     -24.089  35.433   5.576  0.00  0.00    +0.000 C 
ATOM     21  C   UNL     1     -23.308  33.239   5.779  0.00  0.00    +0.000 C 
ATOM     22  C   UNL     1     -20.991  37.412   7.642  0.00  0.00    +0.000 C 
ENDROOT
BRANCH  17  23
ATOM     23  O   UNL     1     -21.221  33.434   8.389  0.00  0.00    +0.000 OA
ATOM     24  H   UNL     1     -20.572  32.760   8.667  0.00  0.00    +0.000 HD
ENDBRANCH  17  23
BRANCH   9  25
ATOM     25  O   UNL     1     -17.675  31.202   5.328  0.00  0.00    +0.000 OA
ATOM     26  H   UNL     1     -17.034  30.475   5.230  0.00  0.00    +0.000 HD
ENDBRANCH   9  25
BRANCH   8  27
ATOM     27  O   UNL     1     -22.918  34.478   2.856  0.00  0.00    +0.000 OA
ATOM     28  H   UNL     1     -22.591  34.749   1.980  0.00  0.00    +0.000 HD
ENDBRANCH   8  27
BRANCH  18  29
ATOM     29  O   UNL     1     -20.602  38.141   4.973  0.00  0.00    +0.000 OA
BRANCH  29  31
ATOM     30  O   UNL     1     -21.170  39.745   3.488  0.00  0.00    +0.000 OA
ATOM     31  C   UNL     1     -20.750  39.436   4.597  0.00  0.00    +0.000 C 
BRANCH  31  32
ATOM     32  C   UNL     1     -20.202  40.468   5.589  0.00  0.00    +0.000 C 
BRANCH  32  33
ATOM     33  O   UNL     1     -21.071  40.796   6.680  0.00  0.00    +0.000 OA
ATOM     34  H   UNL     1     -20.949  40.091   7.343  0.00  0.00    +0.000 HD
ENDBRANCH  32  33
BRANCH  32  35
ATOM     35  C   UNL     1     -19.780  41.735   4.797  0.00  0.00    +0.000 C 
BRANCH  35  36
ATOM     36  C   UNL     1     -18.336  42.144   5.068  0.00  0.00    +0.000 A 
ATOM     37  C   UNL     1     -17.614  41.501   6.087  0.00  0.00    +0.000 A 
ATOM     38  C   UNL     1     -17.686  43.126   4.302  0.00  0.00    +0.000 A 
ATOM     39  C   UNL     1     -16.287  41.849   6.349  0.00  0.00    +0.000 A 
ATOM     40  C   UNL     1     -16.359  43.472   4.568  0.00  0.00    +0.000 A 
ATOM     41  C   UNL     1     -15.661  42.836   5.592  0.00  0.00    +0.000 A 
ENDBRANCH  35  36
BRANCH  35  43
ATOM     42  O   UNL     1     -21.824  42.877   3.131  0.00  0.00    +0.000 OA
ATOM     43  N   UNL     1     -20.651  42.864   5.093  0.00  0.00    +0.000 N 
ATOM     44  C   UNL     1     -21.516  43.394   4.192  0.00  0.00    +0.000 C 
ATOM     45  H   UNL     1     -20.399  43.457   5.873  0.00  0.00    +0.000 HD
BRANCH  44  46
ATOM     46  O   UNL     1     -21.988  44.560   4.682  0.00  0.00    +0.000 OA
BRANCH  46  47
ATOM     47  C   UNL     1     -21.658  45.820   4.042  0.00  0.00    +0.000 C 
ATOM     48  C   UNL     1     -20.292  45.756   3.352  0.00  0.00    +0.000 C 
ATOM     49  C   UNL     1     -22.742  46.007   2.969  0.00  0.00    +0.000 C 
ATOM     50  C   UNL     1     -21.745  46.985   5.034  0.00  0.00    +0.000 C 
ENDBRANCH  46  47
ENDBRANCH  44  46
ENDBRANCH  35  43
ENDBRANCH  32  35
ENDBRANCH  31  32
ENDBRANCH  29  31
ENDBRANCH  18  29
BRANCH   7  51
ATOM     51  O   UNL     1     -19.793  35.491   4.001  0.00  0.00    +0.000 OA
BRANCH  51  53
ATOM     52  O   UNL     1     -20.051  35.670   2.018  0.00  0.00    +0.000 OA
ATOM     53  C   UNL     1     -19.516  36.299   2.926  0.00  0.00    +0.000 C 
BRANCH  53  54
ATOM     54  C   UNL     1     -18.312  37.788   2.984  0.00  0.00    +0.000 A 
ATOM     55  C   UNL     1     -17.255  37.984   3.976  0.00  0.00    +0.000 A 
ATOM     56  C   UNL     1     -18.176  38.834   2.020  0.00  0.00    +0.000 A 
ATOM     57  C   UNL     1     -16.275  39.010   3.997  0.00  0.00    +0.000 A 
ATOM     58  C   UNL     1     -17.199  39.872   2.023  0.00  0.00    +0.000 A 
ATOM     59  C   UNL     1     -16.248  39.962   3.010  0.00  0.00    +0.000 A 
ENDBRANCH  53  54
ENDBRANCH  51  53
ENDBRANCH   7  51
BRANCH   4  60
ATOM     60  O   UNL     1     -16.842  34.957   2.829  0.00  0.00    +0.000 OA
BRANCH  60  62
ATOM     61  O   UNL     1     -14.647  35.187   2.460  0.00  0.00    +0.000 OA
ATOM     62  C   UNL     1     -15.798  35.358   2.066  0.00  0.00    +0.000 C 
ATOM     63  C   UNL     1     -16.071  36.113   0.803  0.00  0.00    +0.000 C 
ENDBRANCH  60  62
ENDBRANCH   4  60
TORSDOF 17
ENDMDL
MODEL 5
REMARK VINA RESULT:      -5.6      4.925     10.550
REMARK  Name = 
REMARK  25 active torsions:
REMARK  status: ('A' for Active; 'I' for Inactive)
REMARK    1  A    between atoms: O_2  and  C_17
REMARK    2  A    between atoms: O_2  and  C_36
REMARK    3  A    between atoms: O_3  and  C_20
REMARK    4  A    between atoms: O_3  and  C_37
REMARK    5  A    between atoms: O_4  and  C_21
REMARK    6  A    between atoms: O_5  and  C_22
REMARK    7  A    between atoms: O_7  and  C_30
REMARK    8  A    between atoms: O_8  and  C_31
REMARK    9  A    between atoms: O_8  and  C_39
REMARK   10  A    between atoms: O_12  and  C_41
REMARK   11  A    between atoms: O_13  and  C_51
REMARK   12  A    between atoms: O_13  and  C_55
REMARK   13  A    between atoms: N_15  and  C_44
REMARK   14  A    between atoms: C_18  and  C_29
REMARK   15  A    between atoms: C_24  and  C_33
REMARK   16  A    between atoms: C_24  and  C_34
REMARK   17  A    between atoms: C_32  and  C_35
REMARK   18  A    between atoms: C_36  and  C_38
REMARK   19  A    between atoms: C_37  and  C_40
REMARK   20  A    between atoms: C_39  and  C_41
REMARK   21  A    between atoms: C_41  and  C_44
REMARK   22  A    between atoms: C_44  and  C_48
REMARK   23  A    between atoms: C_55  and  C_56
REMARK   24  A    between atoms: C_55  and  C_57
REMARK   25  A    between atoms: C_55  and  C_58
REMARK                            x       y       z     vdW  Elec       q    Type
REMARK                         _______ _______ _______ _____ _____    ______ ____
ROOT
ATOM      1  O   UNL     1      -7.156  46.841  28.222  0.00  0.00    +0.000 OA
ATOM      2  O   UNL     1      -1.119  46.113  25.362  0.00  0.00    +0.000 OA
ATOM      3  C   UNL     1      -3.783  46.521  28.838  0.00  0.00    +0.000 C 
ATOM      4  C   UNL     1      -5.150  47.267  28.845  0.00  0.00    +0.000 C 
ATOM      5  C   UNL     1      -2.970  46.870  27.159  0.00  0.00    +0.000 C 
ATOM      6  C   UNL     1      -5.862  46.390  27.735  0.00  0.00    +0.000 C 
ATOM      7  C   UNL     1      -2.864  46.726  30.447  0.00  0.00    +0.000 C 
ATOM      8  C   UNL     1      -1.232  46.263  31.290  0.00  0.00    +0.000 C 
ATOM      9  C   UNL     1      -3.990  46.257  26.112  0.00  0.00    +0.000 C 
ATOM     10  C   UNL     1      -5.479  46.684  26.300  0.00  0.00    +0.000 C 
ATOM     11  C   UNL     1       0.239  45.591  30.560  0.00  0.00    +0.000 C 
ATOM     12  C   UNL     1      -6.514  46.903  29.557  0.00  0.00    +0.000 C 
ATOM     13  C   UNL     1      -1.251  46.370  26.579  0.00  0.00    +0.000 C 
ATOM     14  C   UNL     1      -0.655  47.634  31.874  0.00  0.00    +0.000 C 
ATOM     15  C   UNL     1       0.746  46.479  29.329  0.00  0.00    +0.000 C 
ATOM     16  C   UNL     1      -2.965  48.415  26.800  0.00  0.00    +0.000 C 
ATOM     17  C   UNL     1       0.360  46.201  27.608  0.00  0.00    +0.000 C 
ATOM     18  C   UNL     1       0.432  48.418  31.005  0.00  0.00    +0.000 C 
ATOM     19  C   UNL     1       1.055  47.760  29.722  0.00  0.00    +0.000 C 
ATOM     20  C   UNL     1       1.393  45.651  31.683  0.00  0.00    +0.000 C 
ATOM     21  C   UNL     1       0.347  44.049  30.339  0.00  0.00    +0.000 C 
ATOM     22  C   UNL     1       1.787  48.728  28.826  0.00  0.00    +0.000 C 
ENDROOT
BRANCH  17  23
ATOM     23  O   UNL     1       1.129  45.054  27.243  0.00  0.00    +0.000 OA
ATOM     24  H   UNL     1       2.000  45.408  26.983  0.00  0.00    +0.000 HD
ENDBRANCH  17  23
BRANCH   9  25
ATOM     25  O   UNL     1      -3.953  44.833  26.218  0.00  0.00    +0.000 OA
ATOM     26  H   UNL     1      -4.846  44.508  26.005  0.00  0.00    +0.000 HD
ENDBRANCH   9  25
BRANCH   8  27
ATOM     27  O   UNL     1      -1.623  45.464  32.424  0.00  0.00    +0.000 OA
ATOM     28  H   UNL     1      -0.996  45.615  33.152  0.00  0.00    +0.000 HD
ENDBRANCH   8  27
BRANCH  18  29
ATOM     29  O   UNL     1      -0.167  49.677  30.583  0.00  0.00    +0.000 OA
BRANCH  29  31
ATOM     30  O   UNL     1      -0.359  51.058  32.360  0.00  0.00    +0.000 OA
ATOM     31  C   UNL     1       0.157  50.796  31.278  0.00  0.00    +0.000 C 
BRANCH  31  32
ATOM     32  C   UNL     1       1.079  51.775  30.544  0.00  0.00    +0.000 C 
BRANCH  32  33
ATOM     33  O   UNL     1       2.263  52.156  31.253  0.00  0.00    +0.000 OA
ATOM     34  H   UNL     1       2.525  53.025  30.895  0.00  0.00    +0.000 HD
ENDBRANCH  32  33
BRANCH  32  35
ATOM     35  C   UNL     1       0.244  53.014  30.124  0.00  0.00    +0.000 C 
BRANCH  35  36
ATOM     36  C   UNL     1       0.296  53.276  28.622  0.00  0.00    +0.000 A 
ATOM     37  C   UNL     1       0.549  52.212  27.741  0.00  0.00    +0.000 A 
ATOM     38  C   UNL     1       0.060  54.551  28.082  0.00  0.00    +0.000 A 
ATOM     39  C   UNL     1       0.591  52.422  26.361  0.00  0.00    +0.000 A 
ATOM     40  C   UNL     1       0.104  54.758  26.701  0.00  0.00    +0.000 A 
ATOM     41  C   UNL     1       0.372  53.695  25.842  0.00  0.00    +0.000 A 
ENDBRANCH  35  36
BRANCH  35  43
ATOM     42  O   UNL     1      -1.032  54.337  32.333  0.00  0.00    +0.000 OA
ATOM     43  N   UNL     1       0.681  54.214  30.824  0.00  0.00    +0.000 N 
ATOM     44  C   UNL     1      -0.053  54.821  31.791  0.00  0.00    +0.000 C 
ATOM     45  H   UNL     1       1.393  54.780  30.383  0.00  0.00    +0.000 HD
BRANCH  44  46
ATOM     46  O   UNL     1       0.500  56.022  32.062  0.00  0.00    +0.000 OA
BRANCH  46  47
ATOM     47  C   UNL     1       1.096  56.289  33.358  0.00  0.00    +0.000 C 
ATOM     48  C   UNL     1       1.849  55.065  33.889  0.00  0.00    +0.000 C 
ATOM     49  C   UNL     1       2.109  57.413  33.096  0.00  0.00    +0.000 C 
ATOM     50  C   UNL     1       0.049  56.795  34.357  0.00  0.00    +0.000 C 
ENDBRANCH  46  47
ENDBRANCH  44  46
ENDBRANCH  35  43
ENDBRANCH  32  35
ENDBRANCH  31  32
ENDBRANCH  29  31
ENDBRANCH  18  29
BRANCH   7  51
ATOM     51  O   UNL     1      -2.252  47.738  29.867  0.00  0.00    +0.000 OA
BRANCH  51  53
ATOM     52  O   UNL     1      -3.530  47.873  31.410  0.00  0.00    +0.000 OA
ATOM     53  C   UNL     1      -2.948  48.633  30.642  0.00  0.00    +0.000 C 
BRANCH  53  54
ATOM     54  C   UNL     1      -3.099  50.502  30.250  0.00  0.00    +0.000 A 
ATOM     55  C   UNL     1      -2.836  51.119  28.949  0.00  0.00    +0.000 A 
ATOM     56  C   UNL     1      -3.608  51.531  31.102  0.00  0.00    +0.000 A 
ATOM     57  C   UNL     1      -3.037  52.475  28.585  0.00  0.00    +0.000 A 
ATOM     58  C   UNL     1      -3.816  52.897  30.754  0.00  0.00    +0.000 A 
ATOM     59  C   UNL     1      -3.532  53.371  29.496  0.00  0.00    +0.000 A 
ENDBRANCH  53  54
ENDBRANCH  51  53
ENDBRANCH   7  51
BRANCH   4  60
ATOM     60  O   UNL     1      -5.017  48.667  28.503  0.00  0.00    +0.000 OA
BRANCH  60  62
ATOM     61  O   UNL     1      -6.427  49.841  29.783  0.00  0.00    +0.000 OA
ATOM     62  C   UNL     1      -6.000  49.584  28.659  0.00  0.00    +0.000 C 
ATOM     63  C   UNL     1      -6.631  50.186  27.444  0.00  0.00    +0.000 C 
ENDBRANCH  60  62
ENDBRANCH   4  60
TORSDOF 17
ENDMDL
MODEL 6
REMARK VINA RESULT:      -5.6     27.951     31.674
REMARK  Name = 
REMARK  25 active torsions:
REMARK  status: ('A' for Active; 'I' for Inactive)
REMARK    1  A    between atoms: O_2  and  C_17
REMARK    2  A    between atoms: O_2  and  C_36
REMARK    3  A    between atoms: O_3  and  C_20
REMARK    4  A    between atoms: O_3  and  C_37
REMARK    5  A    between atoms: O_4  and  C_21
REMARK    6  A    between atoms: O_5  and  C_22
REMARK    7  A    between atoms: O_7  and  C_30
REMARK    8  A    between atoms: O_8  and  C_31
REMARK    9  A    between atoms: O_8  and  C_39
REMARK   10  A    between atoms: O_12  and  C_41
REMARK   11  A    between atoms: O_13  and  C_51
REMARK   12  A    between atoms: O_13  and  C_55
REMARK   13  A    between atoms: N_15  and  C_44
REMARK   14  A    between atoms: C_18  and  C_29
REMARK   15  A    between atoms: C_24  and  C_33
REMARK   16  A    between atoms: C_24  and  C_34
REMARK   17  A    between atoms: C_32  and  C_35
REMARK   18  A    between atoms: C_36  and  C_38
REMARK   19  A    between atoms: C_37  and  C_40
REMARK   20  A    between atoms: C_39  and  C_41
REMARK   21  A    between atoms: C_41  and  C_44
REMARK   22  A    between atoms: C_44  and  C_48
REMARK   23  A    between atoms: C_55  and  C_56
REMARK   24  A    between atoms: C_55  and  C_57
REMARK   25  A    between atoms: C_55  and  C_58
REMARK                            x       y       z     vdW  Elec       q    Type
REMARK                         _______ _______ _______ _____ _____    ______ ____
ROOT
ATOM      1  O   UNL     1      -6.826  43.294  -3.591  0.00  0.00    +0.000 OA
ATOM      2  O   UNL     1      -7.253  36.589  -3.701  0.00  0.00    +0.000 OA
ATOM      3  C   UNL     1      -7.109  40.472  -1.639  0.00  0.00    +0.000 C 
ATOM      4  C   UNL     1      -6.395  41.750  -2.170  0.00  0.00    +0.000 C 
ATOM      5  C   UNL     1      -6.644  39.051  -2.808  0.00  0.00    +0.000 C 
ATOM      6  C   UNL     1      -7.219  41.896  -3.514  0.00  0.00    +0.000 C 
ATOM      7  C   UNL     1      -6.981  40.315   0.214  0.00  0.00    +0.000 C 
ATOM      8  C   UNL     1      -7.458  39.162   1.639  0.00  0.00    +0.000 C 
ATOM      9  C   UNL     1      -7.215  39.516  -4.211  0.00  0.00    +0.000 C 
ATOM     10  C   UNL     1      -6.832  40.965  -4.643  0.00  0.00    +0.000 C 
ATOM     11  C   UNL     1      -8.054  37.492   1.561  0.00  0.00    +0.000 C 
ATOM     12  C   UNL     1      -6.830  43.268  -2.109  0.00  0.00    +0.000 C 
ATOM     13  C   UNL     1      -7.071  37.225  -2.640  0.00  0.00    +0.000 C 
ATOM     14  C   UNL     1      -6.113  38.941   2.472  0.00  0.00    +0.000 C 
ATOM     15  C   UNL     1      -7.083  36.560   0.694  0.00  0.00    +0.000 C 
ATOM     16  C   UNL     1      -5.081  38.966  -3.061  0.00  0.00    +0.000 C 
ATOM     17  C   UNL     1      -7.267  36.182  -1.041  0.00  0.00    +0.000 C 
ATOM     18  C   UNL     1      -5.255  37.627   2.173  0.00  0.00    +0.000 C 
ATOM     19  C   UNL     1      -5.822  36.499   1.239  0.00  0.00    +0.000 C 
ATOM     20  C   UNL     1      -8.037  36.913   3.064  0.00  0.00    +0.000 C 
ATOM     21  C   UNL     1      -9.578  37.234   1.335  0.00  0.00    +0.000 C 
ATOM     22  C   UNL     1      -4.787  35.505   0.774  0.00  0.00    +0.000 C 
ENDROOT
BRANCH  17  23
ATOM     23  O   UNL     1      -8.373  35.282  -1.103  0.00  0.00    +0.000 OA
ATOM     24  H   UNL     1      -8.452  34.918  -0.201  0.00  0.00    +0.000 HD
ENDBRANCH  17  23
BRANCH   9  25
ATOM     25  O   UNL     1      -8.642  39.462  -4.164  0.00  0.00    +0.000 OA
ATOM     26  H   UNL     1      -8.881  38.924  -3.389  0.00  0.00    +0.000 HD
ENDBRANCH   9  25
BRANCH   8  27
ATOM     27  O   UNL     1      -8.332  39.953   2.469  0.00  0.00    +0.000 OA
ATOM     28  H   UNL     1      -7.978  40.858   2.533  0.00  0.00    +0.000 HD
ENDBRANCH   8  27
BRANCH  18  29
ATOM     29  O   UNL     1      -3.986  38.052   1.597  0.00  0.00    +0.000 OA
BRANCH  29  31
ATOM     30  O   UNL     1      -2.851  39.185   3.186  0.00  0.00    +0.000 OA
ATOM     31  C   UNL     1      -2.935  38.218   2.437  0.00  0.00    +0.000 C 
BRANCH  31  32
ATOM     32  C   UNL     1      -1.796  37.207   2.263  0.00  0.00    +0.000 C 
BRANCH  32  33
ATOM     33  O   UNL     1      -1.330  36.591   3.469  0.00  0.00    +0.000 OA
ATOM     34  H   UNL     1      -1.463  37.249   4.177  0.00  0.00    +0.000 HD
ENDBRANCH  32  33
BRANCH  32  35
ATOM     35  C   UNL     1      -0.639  37.899   1.494  0.00  0.00    +0.000 C 
BRANCH  35  36
ATOM     36  C   UNL     1      -0.321  37.212   0.170  0.00  0.00    +0.000 A 
ATOM     37  C   UNL     1      -1.325  36.488  -0.494  0.00  0.00    +0.000 A 
ATOM     38  C   UNL     1       0.943  37.312  -0.435  0.00  0.00    +0.000 A 
ATOM     39  C   UNL     1      -1.064  35.859  -1.713  0.00  0.00    +0.000 A 
ATOM     40  C   UNL     1       1.201  36.682  -1.653  0.00  0.00    +0.000 A 
ATOM     41  C   UNL     1       0.199  35.953  -2.291  0.00  0.00    +0.000 A 
ENDBRANCH  35  36
BRANCH  35  43
ATOM     42  O   UNL     1       0.274  40.045   3.173  0.00  0.00    +0.000 OA
ATOM     43  N   UNL     1       0.576  37.955   2.296  0.00  0.00    +0.000 N 
ATOM     44  C   UNL     1       0.969  39.062   2.974  0.00  0.00    +0.000 C 
ATOM     45  H   UNL     1       1.294  37.268   2.106  0.00  0.00    +0.000 HD
BRANCH  44  46
ATOM     46  O   UNL     1       2.235  38.876   3.407  0.00  0.00    +0.000 OA
BRANCH  46  47
ATOM     47  C   UNL     1       3.362  39.362   2.632  0.00  0.00    +0.000 C 
ATOM     48  C   UNL     1       4.216  40.342   3.443  0.00  0.00    +0.000 C 
ATOM     49  C   UNL     1       4.200  38.109   2.337  0.00  0.00    +0.000 C 
ATOM     50  C   UNL     1       2.901  39.968   1.302  0.00  0.00    +0.000 C 
ENDBRANCH  46  47
ENDBRANCH  44  46
ENDBRANCH  35  43
ENDBRANCH  32  35
ENDBRANCH  31  32
ENDBRANCH  29  31
ENDBRANCH  18  29
BRANCH   7  51
ATOM     51  O   UNL     1      -5.924  39.563  -0.011  0.00  0.00    +0.000 OA
BRANCH  51  53
ATOM     52  O   UNL     1      -5.905  41.358   0.886  0.00  0.00    +0.000 OA
ATOM     53  C   UNL     1      -5.091  40.560   0.433  0.00  0.00    +0.000 C 
BRANCH  53  54
ATOM     54  C   UNL     1      -3.216  40.645   0.046  0.00  0.00    +0.000 A 
ATOM     55  C   UNL     1      -2.550  39.969  -1.067  0.00  0.00    +0.000 A 
ATOM     56  C   UNL     1      -2.234  41.465   0.682  0.00  0.00    +0.000 A 
ATOM     57  C   UNL     1      -1.191  40.088  -1.455  0.00  0.00    +0.000 A 
ATOM     58  C   UNL     1      -0.865  41.598   0.307  0.00  0.00    +0.000 A 
ATOM     59  C   UNL     1      -0.341  40.910  -0.761  0.00  0.00    +0.000 A 
ENDBRANCH  53  54
ENDBRANCH  51  53
ENDBRANCH   7  51
BRANCH   4  60
ATOM     60  O   UNL     1      -4.975  41.549  -2.362  0.00  0.00    +0.000 OA
BRANCH  60  62
ATOM     61  O   UNL     1      -3.888  43.436  -1.850  0.00  0.00    +0.000 OA
ATOM     62  C   UNL     1      -4.101  42.538  -2.661  0.00  0.00    +0.000 C 
ATOM     63  C   UNL     1      -3.495  42.581  -4.028  0.00  0.00    +0.000 C 
ENDBRANCH  60  62
ENDBRANCH   4  60
TORSDOF 17
ENDMDL
MODEL 7
REMARK VINA RESULT:      -5.6     25.693     29.393
REMARK  Name = 
REMARK  25 active torsions:
REMARK  status: ('A' for Active; 'I' for Inactive)
REMARK    1  A    between atoms: O_2  and  C_17
REMARK    2  A    between atoms: O_2  and  C_36
REMARK    3  A    between atoms: O_3  and  C_20
REMARK    4  A    between atoms: O_3  and  C_37
REMARK    5  A    between atoms: O_4  and  C_21
REMARK    6  A    between atoms: O_5  and  C_22
REMARK    7  A    between atoms: O_7  and  C_30
REMARK    8  A    between atoms: O_8  and  C_31
REMARK    9  A    between atoms: O_8  and  C_39
REMARK   10  A    between atoms: O_12  and  C_41
REMARK   11  A    between atoms: O_13  and  C_51
REMARK   12  A    between atoms: O_13  and  C_55
REMARK   13  A    between atoms: N_15  and  C_44
REMARK   14  A    between atoms: C_18  and  C_29
REMARK   15  A    between atoms: C_24  and  C_33
REMARK   16  A    between atoms: C_24  and  C_34
REMARK   17  A    between atoms: C_32  and  C_35
REMARK   18  A    between atoms: C_36  and  C_38
REMARK   19  A    between atoms: C_37  and  C_40
REMARK   20  A    between atoms: C_39  and  C_41
REMARK   21  A    between atoms: C_41  and  C_44
REMARK   22  A    between atoms: C_44  and  C_48
REMARK   23  A    between atoms: C_55  and  C_56
REMARK   24  A    between atoms: C_55  and  C_57
REMARK   25  A    between atoms: C_55  and  C_58
REMARK                            x       y       z     vdW  Elec       q    Type
REMARK                         _______ _______ _______ _____ _____    ______ ____
ROOT
ATOM      1  O   UNL     1     -16.530  43.966   4.215  0.00  0.00    +0.000 OA
ATOM      2  O   UNL     1     -20.383  40.988  -0.415  0.00  0.00    +0.000 OA
ATOM      3  C   UNL     1     -19.419  42.162   3.713  0.00  0.00    +0.000 C 
ATOM      4  C   UNL     1     -17.985  42.395   4.274  0.00  0.00    +0.000 C 
ATOM      5  C   UNL     1     -19.222  41.447   1.966  0.00  0.00    +0.000 C 
ATOM      6  C   UNL     1     -17.569  43.559   3.284  0.00  0.00    +0.000 C 
ATOM      7  C   UNL     1     -20.551  41.392   4.978  0.00  0.00    +0.000 C 
ATOM      8  C   UNL     1     -22.320  40.747   5.185  0.00  0.00    +0.000 C 
ATOM      9  C   UNL     1     -18.449  42.585   1.179  0.00  0.00    +0.000 C 
ATOM     10  C   UNL     1     -17.173  43.139   1.884  0.00  0.00    +0.000 C 
ATOM     11  C   UNL     1     -23.532  40.416   3.931  0.00  0.00    +0.000 C 
ATOM     12  C   UNL     1     -17.442  43.486   5.280  0.00  0.00    +0.000 C 
ATOM     13  C   UNL     1     -20.570  40.824   0.810  0.00  0.00    +0.000 C 
ATOM     14  C   UNL     1     -22.166  39.288   5.819  0.00  0.00    +0.000 C 
ATOM     15  C   UNL     1     -22.957  39.442   2.798  0.00  0.00    +0.000 C 
ATOM     16  C   UNL     1     -18.211  40.226   1.925  0.00  0.00    +0.000 C 
ATOM     17  C   UNL     1     -22.221  39.952   1.254  0.00  0.00    +0.000 C 
ATOM     18  C   UNL     1     -22.209  38.035   4.830  0.00  0.00    +0.000 C 
ATOM     19  C   UNL     1     -22.590  38.224   3.318  0.00  0.00    +0.000 C 
ATOM     20  C   UNL     1     -24.747  39.636   4.644  0.00  0.00    +0.000 C 
ATOM     21  C   UNL     1     -24.418  41.586   3.397  0.00  0.00    +0.000 C 
ATOM     22  C   UNL     1     -22.255  37.039   2.445  0.00  0.00    +0.000 C 
ENDROOT
BRANCH  17  23
ATOM     23  O   UNL     1     -23.317  40.412   0.462  0.00  0.00    +0.000 OA
ATOM     24  H   UNL     1     -23.484  41.323   0.769  0.00  0.00    +0.000 HD
ENDBRANCH  17  23
BRANCH   9  25
ATOM     25  O   UNL     1     -19.332  43.692   0.994  0.00  0.00    +0.000 OA
ATOM     26  H   UNL     1     -18.796  44.501   1.076  0.00  0.00    +0.000 HD
ENDBRANCH   9  25
BRANCH   8  27
ATOM     27  O   UNL     1     -22.894  41.584   6.209  0.00  0.00    +0.000 OA
ATOM     28  H   UNL     1     -22.289  42.324   6.392  0.00  0.00    +0.000 HD
ENDBRANCH   8  27
BRANCH  18  29
ATOM     29  O   UNL     1     -20.894  37.409   4.857  0.00  0.00    +0.000 OA
BRANCH  29  31
ATOM     30  O   UNL     1     -20.408  35.208   4.715  0.00  0.00    +0.000 OA
ATOM     31  C   UNL     1     -20.799  36.161   5.380  0.00  0.00    +0.000 C 
BRANCH  31  32
ATOM     32  C   UNL     1     -21.366  36.003   6.796  0.00  0.00    +0.000 C 
BRANCH  32  33
ATOM     33  O   UNL     1     -20.397  35.781   7.826  0.00  0.00    +0.000 OA
ATOM     34  H   UNL     1     -19.597  35.448   7.377  0.00  0.00    +0.000 HD
ENDBRANCH  32  33
BRANCH  32  35
ATOM     35  C   UNL     1     -22.439  34.882   6.772  0.00  0.00    +0.000 C 
BRANCH  35  36
ATOM     36  C   UNL     1     -23.782  35.365   6.234  0.00  0.00    +0.000 A 
ATOM     37  C   UNL     1     -24.548  36.267   6.990  0.00  0.00    +0.000 A 
ATOM     38  C   UNL     1     -24.267  34.963   4.977  0.00  0.00    +0.000 A 
ATOM     39  C   UNL     1     -25.776  36.734   6.515  0.00  0.00    +0.000 A 
ATOM     40  C   UNL     1     -25.495  35.431   4.506  0.00  0.00    +0.000 A 
ATOM     41  C   UNL     1     -26.250  36.313   5.276  0.00  0.00    +0.000 A 
ENDBRANCH  35  36
BRANCH  35  43
ATOM     42  O   UNL     1     -22.899  32.130   7.461  0.00  0.00    +0.000 OA
ATOM     43  N   UNL     1     -22.643  34.311   8.096  0.00  0.00    +0.000 N 
ATOM     44  C   UNL     1     -22.959  33.008   8.305  0.00  0.00    +0.000 C 
ATOM     45  H   UNL     1     -22.853  34.948   8.853  0.00  0.00    +0.000 HD
BRANCH  44  46
ATOM     46  O   UNL     1     -23.318  32.852   9.597  0.00  0.00    +0.000 OA
BRANCH  46  47
ATOM     47  C   UNL     1     -24.711  32.678   9.964  0.00  0.00    +0.000 C 
ATOM     48  C   UNL     1     -25.109  33.615  11.109  0.00  0.00    +0.000 C 
ATOM     49  C   UNL     1     -25.497  33.078   8.706  0.00  0.00    +0.000 C 
ATOM     50  C   UNL     1     -25.020  31.213  10.289  0.00  0.00    +0.000 C 
ENDBRANCH  46  47
ENDBRANCH  44  46
ENDBRANCH  35  43
ENDBRANCH  32  35
ENDBRANCH  31  32
ENDBRANCH  29  31
ENDBRANCH  18  29
BRANCH   7  51
ATOM     51  O   UNL     1     -20.215  40.236   4.445  0.00  0.00    +0.000 OA
BRANCH  51  53
ATOM     52  O   UNL     1     -19.713  40.873   6.282  0.00  0.00    +0.000 OA
ATOM     53  C   UNL     1     -19.480  39.910   5.559  0.00  0.00    +0.000 C 
BRANCH  53  54
ATOM     54  C   UNL     1     -18.226  38.464   5.632  0.00  0.00    +0.000 A 
ATOM     55  C   UNL     1     -17.811  37.763   6.848  0.00  0.00    +0.000 A 
ATOM     56  C   UNL     1     -17.625  37.778   4.533  0.00  0.00    +0.000 A 
ATOM     57  C   UNL     1     -16.972  36.623   6.939  0.00  0.00    +0.000 A 
ATOM     58  C   UNL     1     -16.780  36.631   4.604  0.00  0.00    +0.000 A 
ATOM     59  C   UNL     1     -16.453  36.052   5.806  0.00  0.00    +0.000 A 
ENDBRANCH  53  54
ENDBRANCH  51  53
ENDBRANCH   7  51
BRANCH   4  60
ATOM     60  O   UNL     1     -17.158  41.211   4.182  0.00  0.00    +0.000 OA
BRANCH  60  62
ATOM     61  O   UNL     1     -14.931  41.241   3.971  0.00  0.00    +0.000 OA
ATOM     62  C   UNL     1     -15.912  41.113   4.701  0.00  0.00    +0.000 C 
ATOM     63  C   UNL     1     -15.752  40.732   6.139  0.00  0.00    +0.000 C 
ENDBRANCH  60  62
ENDBRANCH   4  60
TORSDOF 17
ENDMDL
MODEL 8
REMARK VINA RESULT:      -5.6     27.289     30.622
REMARK  Name = 
REMARK  25 active torsions:
REMARK  status: ('A' for Active; 'I' for Inactive)
REMARK    1  A    between atoms: O_2  and  C_17
REMARK    2  A    between atoms: O_2  and  C_36
REMARK    3  A    between atoms: O_3  and  C_20
REMARK    4  A    between atoms: O_3  and  C_37
REMARK    5  A    between atoms: O_4  and  C_21
REMARK    6  A    between atoms: O_5  and  C_22
REMARK    7  A    between atoms: O_7  and  C_30
REMARK    8  A    between atoms: O_8  and  C_31
REMARK    9  A    between atoms: O_8  and  C_39
REMARK   10  A    between atoms: O_12  and  C_41
REMARK   11  A    between atoms: O_13  and  C_51
REMARK   12  A    between atoms: O_13  and  C_55
REMARK   13  A    between atoms: N_15  and  C_44
REMARK   14  A    between atoms: C_18  and  C_29
REMARK   15  A    between atoms: C_24  and  C_33
REMARK   16  A    between atoms: C_24  and  C_34
REMARK   17  A    between atoms: C_32  and  C_35
REMARK   18  A    between atoms: C_36  and  C_38
REMARK   19  A    between atoms: C_37  and  C_40
REMARK   20  A    between atoms: C_39  and  C_41
REMARK   21  A    between atoms: C_41  and  C_44
REMARK   22  A    between atoms: C_44  and  C_48
REMARK   23  A    between atoms: C_55  and  C_56
REMARK   24  A    between atoms: C_55  and  C_57
REMARK   25  A    between atoms: C_55  and  C_58
REMARK                            x       y       z     vdW  Elec       q    Type
REMARK                         _______ _______ _______ _____ _____    ______ ____
ROOT
ATOM      1  O   UNL     1       8.892  47.054   5.439  0.00  0.00    +0.000 OA
ATOM      2  O   UNL     1      10.257  42.197   1.000  0.00  0.00    +0.000 OA
ATOM      3  C   UNL     1       8.023  43.892   4.390  0.00  0.00    +0.000 C 
ATOM      4  C   UNL     1       8.577  44.935   5.405  0.00  0.00    +0.000 C 
ATOM      5  C   UNL     1       9.481  43.347   3.304  0.00  0.00    +0.000 C 
ATOM      6  C   UNL     1       8.899  46.080   4.360  0.00  0.00    +0.000 C 
ATOM      7  C   UNL     1       6.877  42.665   5.200  0.00  0.00    +0.000 C 
ATOM      8  C   UNL     1       5.842  41.126   4.814  0.00  0.00    +0.000 C 
ATOM      9  C   UNL     1       9.942  44.686   2.593  0.00  0.00    +0.000 C 
ATOM     10  C   UNL     1      10.160  45.906   3.540  0.00  0.00    +0.000 C 
ATOM     11  C   UNL     1       5.881  40.101   3.365  0.00  0.00    +0.000 C 
ATOM     12  C   UNL     1       7.877  46.182   6.079  0.00  0.00    +0.000 C 
ATOM     13  C   UNL     1       9.503  42.009   1.980  0.00  0.00    +0.000 C 
ATOM     14  C   UNL     1       6.248  40.054   5.927  0.00  0.00    +0.000 C 
ATOM     15  C   UNL     1       7.363  39.590   3.044  0.00  0.00    +0.000 C 
ATOM     16  C   UNL     1      10.751  42.934   4.161  0.00  0.00    +0.000 C 
ATOM     17  C   UNL     1       8.518  40.364   1.922  0.00  0.00    +0.000 C 
ATOM     18  C   UNL     1       7.353  38.965   5.549  0.00  0.00    +0.000 C 
ATOM     19  C   UNL     1       7.872  38.832   4.072  0.00  0.00    +0.000 C 
ATOM     20  C   UNL     1       4.998  38.793   3.689  0.00  0.00    +0.000 C 
ATOM     21  C   UNL     1       5.049  40.518   2.111  0.00  0.00    +0.000 C 
ATOM     22  C   UNL     1       9.137  38.023   3.933  0.00  0.00    +0.000 C 
ENDROOT
BRANCH  17  23
ATOM     23  O   UNL     1       8.012  40.070   0.619  0.00  0.00    +0.000 OA
ATOM     24  H   UNL     1       8.482  39.260   0.344  0.00  0.00    +0.000 HD
ENDBRANCH  17  23
BRANCH   9  25
ATOM     25  O   UNL     1       8.941  45.070   1.649  0.00  0.00    +0.000 OA
ATOM     26  H   UNL     1       8.454  44.262   1.407  0.00  0.00    +0.000 HD
ENDBRANCH   9  25
BRANCH   8  27
ATOM     27  O   UNL     1       4.485  41.521   5.095  0.00  0.00    +0.000 OA
ATOM     28  H   UNL     1       4.488  42.188   5.805  0.00  0.00    +0.000 HD
ENDBRANCH   8  27
BRANCH  18  29
ATOM     29  O   UNL     1       8.522  39.216   6.383  0.00  0.00    +0.000 OA
BRANCH  29  31
ATOM     30  O   UNL     1       8.057  38.788   8.551  0.00  0.00    +0.000 OA
ATOM     31  C   UNL     1       8.653  38.491   7.521  0.00  0.00    +0.000 C 
BRANCH  31  32
ATOM     32  C   UNL     1       9.715  37.386   7.471  0.00  0.00    +0.000 C 
BRANCH  32  33
ATOM     33  O   UNL     1       9.293  36.105   7.953  0.00  0.00    +0.000 OA
ATOM     34  H   UNL     1      10.079  35.701   8.368  0.00  0.00    +0.000 HD
ENDBRANCH  32  33
BRANCH  32  35
ATOM     35  C   UNL     1      10.980  37.887   8.218  0.00  0.00    +0.000 C 
BRANCH  35  36
ATOM     36  C   UNL     1      12.178  38.061   7.291  0.00  0.00    +0.000 A 
ATOM     37  C   UNL     1      13.476  37.876   7.794  0.00  0.00    +0.000 A 
ATOM     38  C   UNL     1      12.026  38.366   5.928  0.00  0.00    +0.000 A 
ATOM     39  C   UNL     1      14.591  38.018   6.965  0.00  0.00    +0.000 A 
ATOM     40  C   UNL     1      13.142  38.509   5.101  0.00  0.00    +0.000 A 
ATOM     41  C   UNL     1      14.423  38.338   5.620  0.00  0.00    +0.000 A 
ENDBRANCH  35  36
BRANCH  35  43
ATOM     42  O   UNL     1      10.440  38.180  11.025  0.00  0.00    +0.000 OA
ATOM     43  N   UNL     1      11.351  36.987   9.301  0.00  0.00    +0.000 N 
ATOM     44  C   UNL     1      11.140  37.271  10.611  0.00  0.00    +0.000 C 
ATOM     45  H   UNL     1      12.047  36.280   9.104  0.00  0.00    +0.000 HD
BRANCH  44  46
ATOM     46  O   UNL     1      11.806  36.368  11.361  0.00  0.00    +0.000 OA
BRANCH  46  47
ATOM     47  C   UNL     1      13.212  36.552  11.667  0.00  0.00    +0.000 C 
ATOM     48  C   UNL     1      13.616  38.028  11.576  0.00  0.00    +0.000 C 
ATOM     49  C   UNL     1      13.357  36.093  13.126  0.00  0.00    +0.000 C 
ATOM     50  C   UNL     1      14.093  35.662  10.784  0.00  0.00    +0.000 C 
ENDBRANCH  46  47
ENDBRANCH  44  46
ENDBRANCH  35  43
ENDBRANCH  32  35
ENDBRANCH  31  32
ENDBRANCH  29  31
ENDBRANCH  18  29
BRANCH   7  51
ATOM     51  O   UNL     1       7.936  41.894   5.329  0.00  0.00    +0.000 OA
BRANCH  51  53
ATOM     52  O   UNL     1       6.881  42.672   6.850  0.00  0.00    +0.000 OA
ATOM     53  C   UNL     1       7.966  42.124   6.683  0.00  0.00    +0.000 C 
BRANCH  53  54
ATOM     54  C   UNL     1       9.520  41.885   7.779  0.00  0.00    +0.000 A 
ATOM     55  C   UNL     1       9.522  41.803   9.240  0.00  0.00    +0.000 A 
ATOM     56  C   UNL     1      10.856  41.621   7.346  0.00  0.00    +0.000 A 
ATOM     57  C   UNL     1      10.626  41.521  10.083  0.00  0.00    +0.000 A 
ATOM     58  C   UNL     1      11.978  41.336   8.178  0.00  0.00    +0.000 A 
ATOM     59  C   UNL     1      11.866  41.285   9.546  0.00  0.00    +0.000 A 
ENDBRANCH  53  54
ENDBRANCH  51  53
ENDBRANCH   7  51
BRANCH   4  60
ATOM     60  O   UNL     1       9.733  44.445   6.125  0.00  0.00    +0.000 OA
BRANCH  60  62
ATOM     61  O   UNL     1      11.532  45.611   6.764  0.00  0.00    +0.000 OA
ATOM     62  C   UNL     1      10.420  45.166   7.041  0.00  0.00    +0.000 C 
ATOM     63  C   UNL     1       9.859  45.310   8.420  0.00  0.00    +0.000 C 
ENDBRANCH  60  62
ENDBRANCH   4  60
TORSDOF 17
ENDMDL
MODEL 9
REMARK VINA RESULT:      -5.5     25.985     29.530
REMARK  Name = 
REMARK  25 active torsions:
REMARK  status: ('A' for Active; 'I' for Inactive)
REMARK    1  A    between atoms: O_2  and  C_17
REMARK    2  A    between atoms: O_2  and  C_36
REMARK    3  A    between atoms: O_3  and  C_20
REMARK    4  A    between atoms: O_3  and  C_37
REMARK    5  A    between atoms: O_4  and  C_21
REMARK    6  A    between atoms: O_5  and  C_22
REMARK    7  A    between atoms: O_7  and  C_30
REMARK    8  A    between atoms: O_8  and  C_31
REMARK    9  A    between atoms: O_8  and  C_39
REMARK   10  A    between atoms: O_12  and  C_41
REMARK   11  A    between atoms: O_13  and  C_51
REMARK   12  A    between atoms: O_13  and  C_55
REMARK   13  A    between atoms: N_15  and  C_44
REMARK   14  A    between atoms: C_18  and  C_29
REMARK   15  A    between atoms: C_24  and  C_33
REMARK   16  A    between atoms: C_24  and  C_34
REMARK   17  A    between atoms: C_32  and  C_35
REMARK   18  A    between atoms: C_36  and  C_38
REMARK   19  A    between atoms: C_37  and  C_40
REMARK   20  A    between atoms: C_39  and  C_41
REMARK   21  A    between atoms: C_41  and  C_44
REMARK   22  A    between atoms: C_44  and  C_48
REMARK   23  A    between atoms: C_55  and  C_56
REMARK   24  A    between atoms: C_55  and  C_57
REMARK   25  A    between atoms: C_55  and  C_58
REMARK                            x       y       z     vdW  Elec       q    Type
REMARK                         _______ _______ _______ _____ _____    ______ ____
ROOT
ATOM      1  O   UNL     1     -16.357  43.868   4.389  0.00  0.00    +0.000 OA
ATOM      2  O   UNL     1     -22.516  41.220   3.936  0.00  0.00    +0.000 OA
ATOM      3  C   UNL     1     -18.264  41.081   5.057  0.00  0.00    +0.000 C 
ATOM      4  C   UNL     1     -17.119  41.866   4.352  0.00  0.00    +0.000 C 
ATOM      5  C   UNL     1     -19.830  41.330   4.014  0.00  0.00    +0.000 C 
ATOM      6  C   UNL     1     -17.685  43.322   4.611  0.00  0.00    +0.000 C 
ATOM      7  C   UNL     1     -17.711  39.395   5.628  0.00  0.00    +0.000 C 
ATOM      8  C   UNL     1     -18.362  37.830   6.473  0.00  0.00    +0.000 C 
ATOM      9  C   UNL     1     -20.066  42.897   4.056  0.00  0.00    +0.000 C 
ATOM     10  C   UNL     1     -18.819  43.770   3.714  0.00  0.00    +0.000 C 
ATOM     11  C   UNL     1     -20.045  37.361   6.789  0.00  0.00    +0.000 C 
ATOM     12  C   UNL     1     -15.852  42.595   4.956  0.00  0.00    +0.000 C 
ATOM     13  C   UNL     1     -21.519  40.534   4.251  0.00  0.00    +0.000 C 
ATOM     14  C   UNL     1     -17.906  36.622   5.531  0.00  0.00    +0.000 C 
ATOM     15  C   UNL     1     -20.931  37.409   5.457  0.00  0.00    +0.000 C 
ATOM     16  C   UNL     1     -19.582  41.041   2.474  0.00  0.00    +0.000 C 
ATOM     17  C   UNL     1     -21.936  38.783   4.916  0.00  0.00    +0.000 C 
ATOM     18  C   UNL     1     -18.962  36.058   4.474  0.00  0.00    +0.000 C 
ATOM     19  C   UNL     1     -20.456  36.541   4.502  0.00  0.00    +0.000 C 
ATOM     20  C   UNL     1     -20.023  35.826   7.278  0.00  0.00    +0.000 C 
ATOM     21  C   UNL     1     -20.761  37.899   8.068  0.00  0.00    +0.000 C 
ATOM     22  C   UNL     1     -21.238  36.201   3.257  0.00  0.00    +0.000 C 
ENDROOT
BRANCH  17  23
ATOM     23  O   UNL     1     -23.059  38.782   5.799  0.00  0.00    +0.000 OA
ATOM     24  H   UNL     1     -23.832  38.638   5.221  0.00  0.00    +0.000 HD
ENDBRANCH  17  23
BRANCH   9  25
ATOM     25  O   UNL     1     -20.475  43.261   5.375  0.00  0.00    +0.000 OA
ATOM     26  H   UNL     1     -20.368  44.227   5.450  0.00  0.00    +0.000 HD
ENDBRANCH   9  25
BRANCH   8  27
ATOM     27  O   UNL     1     -17.591  37.723   7.685  0.00  0.00    +0.000 OA
ATOM     28  H   UNL     1     -17.171  38.581   7.873  0.00  0.00    +0.000 HD
ENDBRANCH   8  27
BRANCH  18  29
ATOM     29  O   UNL     1     -18.450  36.350   3.142  0.00  0.00    +0.000 OA
BRANCH  29  31
ATOM     30  O   UNL     1     -18.703  34.537   1.819  0.00  0.00    +0.000 OA
ATOM     31  C   UNL     1     -17.963  35.317   2.411  0.00  0.00    +0.000 C 
BRANCH  31  32
ATOM     32  C   UNL     1     -16.450  35.100   2.515  0.00  0.00    +0.000 C 
BRANCH  32  33
ATOM     33  O   UNL     1     -15.820  34.578   1.340  0.00  0.00    +0.000 OA
ATOM     34  H   UNL     1     -15.702  35.336   0.737  0.00  0.00    +0.000 HD
ENDBRANCH  32  33
BRANCH  32  35
ATOM     35  C   UNL     1     -16.165  34.213   3.756  0.00  0.00    +0.000 C 
BRANCH  35  36
ATOM     36  C   UNL     1     -14.753  34.399   4.300  0.00  0.00    +0.000 A 
ATOM     37  C   UNL     1     -13.809  33.370   4.148  0.00  0.00    +0.000 A 
ATOM     38  C   UNL     1     -14.347  35.592   4.922  0.00  0.00    +0.000 A 
ATOM     39  C   UNL     1     -12.506  33.519   4.627  0.00  0.00    +0.000 A 
ATOM     40  C   UNL     1     -13.044  35.738   5.401  0.00  0.00    +0.000 A 
ATOM     41  C   UNL     1     -12.125  34.701   5.256  0.00  0.00    +0.000 A 
ENDBRANCH  35  36
BRANCH  35  43
ATOM     42  O   UNL     1     -18.220  32.475   4.764  0.00  0.00    +0.000 OA
ATOM     43  N   UNL     1     -16.371  32.801   3.460  0.00  0.00    +0.000 N 
ATOM     44  C   UNL     1     -17.313  32.042   4.073  0.00  0.00    +0.000 C 
ATOM     45  H   UNL     1     -15.611  32.300   3.018  0.00  0.00    +0.000 HD
BRANCH  44  46
ATOM     46  O   UNL     1     -17.090  30.746   3.767  0.00  0.00    +0.000 OA
BRANCH  46  47
ATOM     47  C   UNL     1     -16.647  29.810   4.783  0.00  0.00    +0.000 C 
ATOM     48  C   UNL     1     -15.547  30.415   5.660  0.00  0.00    +0.000 C 
ATOM     49  C   UNL     1     -17.889  29.564   5.653  0.00  0.00    +0.000 C 
ATOM     50  C   UNL     1     -16.215  28.478   4.159  0.00  0.00    +0.000 C 
ENDBRANCH  46  47
ENDBRANCH  44  46
ENDBRANCH  35  43
ENDBRANCH  32  35
ENDBRANCH  31  32
ENDBRANCH  29  31
ENDBRANCH  18  29
BRANCH   7  51
ATOM     51  O   UNL     1     -18.184  38.949   4.484  0.00  0.00    +0.000 OA
BRANCH  51  53
ATOM     52  O   UNL     1     -16.248  38.969   5.015  0.00  0.00    +0.000 OA
ATOM     53  C   UNL     1     -16.911  38.764   4.003  0.00  0.00    +0.000 C 
BRANCH  53  54
ATOM     54  C   UNL     1     -16.481  38.575   2.146  0.00  0.00    +0.000 A 
ATOM     55  C   UNL     1     -15.195  38.122   1.616  0.00  0.00    +0.000 A 
ATOM     56  C   UNL     1     -17.364  38.712   1.031  0.00  0.00    +0.000 A 
ATOM     57  C   UNL     1     -14.866  37.866   0.260  0.00  0.00    +0.000 A 
ATOM     58  C   UNL     1     -17.053  38.459  -0.337  0.00  0.00    +0.000 A 
ATOM     59  C   UNL     1     -15.805  38.036  -0.725  0.00  0.00    +0.000 A 
ENDBRANCH  53  54
ENDBRANCH  51  53
ENDBRANCH   7  51
BRANCH   4  60
ATOM     60  O   UNL     1     -16.990  41.518   2.953  0.00  0.00    +0.000 OA
BRANCH  60  62
ATOM     61  O   UNL     1     -14.842  41.685   2.349  0.00  0.00    +0.000 OA
ATOM     62  C   UNL     1     -16.015  41.987   2.140  0.00  0.00    +0.000 C 
ATOM     63  C   UNL     1     -16.374  42.963   1.065  0.00  0.00    +0.000 C 
ENDBRANCH  60  62
ENDBRANCH   4  60
TORSDOF 17
ENDMDL
