MODEL 1
REMARK VINA RESULT:      -6.8      0.000      0.000
REMARK  Name = 
REMARK  13 active torsions:
REMARK  status: ('A' for Active; 'I' for Inactive)
REMARK    1  A    between atoms: O_1  and  C_13
REMARK    2  A    between atoms: O_1  and  C_19
REMARK    3  A    between atoms: O_3  and  C_14
REMARK    4  A    between atoms: O_4  and  C_22
REMARK    5  A    between atoms: O_5  and  C_24
REMARK    6  A    between atoms: O_6  and  C_26
REMARK    7  A    between atoms: O_8  and  C_30
REMARK    8  A    between atoms: O_11  and  C_35
REMARK    9  A    between atoms: O_11  and  C_39
REMARK   10  A    between atoms: N_12  and  C_21
REMARK   11  A    between atoms: C_14  and  C_25
REMARK   12  A    between atoms: C_23  and  C_29
REMARK   13  A    between atoms: C_25  and  C_30
REMARK                            x       y       z     vdW  Elec       q    Type
REMARK                         _______ _______ _______ _____ _____    ______ ____
ROOT
ATOM      1  O   UNL     1     -12.479  35.650   5.298  0.00  0.00    +0.000 OA
ATOM      2  O   UNL     1     -16.541  32.708   3.535  0.00  0.00    +0.000 OA
ATOM      3  C   UNL     1     -16.576  38.420   6.657  0.00  0.00    +0.000 C 
ATOM      4  C   UNL     1     -19.057  38.191   6.193  0.00  0.00    +0.000 C 
ATOM      5  C   UNL     1     -17.986  38.530   7.239  0.00  0.00    +0.000 C 
ATOM      6  C   UNL     1     -18.865  36.762   5.664  0.00  0.00    +0.000 C 
ATOM      7  C   UNL     1     -16.345  37.081   5.984  0.00  0.00    +0.000 A 
ATOM      8  C   UNL     1     -17.423  36.323   5.486  0.00  0.00    +0.000 A 
ATOM      9  C   UNL     1     -15.034  36.603   5.799  0.00  0.00    +0.000 A 
ATOM     10  C   UNL     1     -17.160  35.100   4.843  0.00  0.00    +0.000 A 
ATOM     11  C   UNL     1     -14.779  35.383   5.144  0.00  0.00    +0.000 A 
ATOM     12  C   UNL     1     -15.847  34.631   4.668  0.00  0.00    +0.000 A 
ATOM     13  C   UNL     1     -13.391  34.908   4.949  0.00  0.00    +0.000 C 
ATOM     14  C   UNL     1     -15.595  33.350   3.983  0.00  0.00    +0.000 C 
ATOM     15  C   UNL     1     -13.137  33.587   4.325  0.00  0.00    +0.000 A 
ATOM     16  C   UNL     1     -14.218  32.843   3.848  0.00  0.00    +0.000 A 
ATOM     17  C   UNL     1     -11.844  33.058   4.187  0.00  0.00    +0.000 A 
ATOM     18  C   UNL     1     -14.015  31.594   3.239  0.00  0.00    +0.000 A 
ATOM     19  C   UNL     1     -11.646  31.801   3.604  0.00  0.00    +0.000 A 
ATOM     20  C   UNL     1     -12.729  31.074   3.120  0.00  0.00    +0.000 A 
ENDROOT
BRANCH   4  21
ATOM     21  O   UNL     1     -19.015  39.126   5.108  0.00  0.00    +0.000 OA
ATOM     22  H   UNL     1     -19.940  39.268   4.814  0.00  0.00    +0.000 HD
ENDBRANCH   4  21
BRANCH   9  23
ATOM     23  O   UNL     1     -14.013  37.383   6.289  0.00  0.00    +0.000 OA
ATOM     24  H   UNL     1     -13.161  37.058   5.915  0.00  0.00    +0.000 HD
ENDBRANCH   9  23
BRANCH  10  25
ATOM     25  O   UNL     1     -18.250  34.389   4.402  0.00  0.00    +0.000 OA
ATOM     26  H   UNL     1     -19.052  34.955   4.480  0.00  0.00    +0.000 HD
ENDBRANCH  10  25
BRANCH   4  28
ATOM     27  O   UNL     1     -20.845  37.535   7.718  0.00  0.00    +0.000 OA
ATOM     28  C   UNL     1     -20.455  38.297   6.826  0.00  0.00    +0.000 C 
BRANCH  28  29
ATOM     29  C   UNL     1     -21.382  39.386   6.293  0.00  0.00    +0.000 C 
BRANCH  29  30
ATOM     30  O   UNL     1     -21.066  40.655   6.853  0.00  0.00    +0.000 OA
ATOM     31  H   UNL     1     -20.423  40.482   7.571  0.00  0.00    +0.000 HD
ENDBRANCH  29  30
ENDBRANCH  28  29
ENDBRANCH   4  28
BRANCH  17  32
ATOM     32  O   UNL     1     -10.743  33.687   4.704  0.00  0.00    +0.000 OA
ATOM     33  C   UNL     1      -9.819  34.020   3.665  0.00  0.00    +0.000 C 
ENDBRANCH  17  32
BRANCH   3  34
ATOM     34  O   UNL     1     -16.420  39.417   5.633  0.00  0.00    +0.000 OA
BRANCH  34  36
ATOM     35  O   UNL     1     -16.748  41.575   6.519  0.00  0.00    +0.000 OA
ATOM     36  C   UNL     1     -15.784  40.602   6.121  0.00  0.00    +0.000 C 
ATOM     37  C   UNL     1     -14.831  41.137   5.050  0.00  0.00    +0.000 C 
ATOM     38  C   UNL     1     -15.608  41.709   3.861  0.00  0.00    +0.000 C 
ATOM     39  C   UNL     1     -16.622  42.757   4.362  0.00  0.00    +0.000 C 
ATOM     40  C   UNL     1     -17.518  42.110   5.436  0.00  0.00    +0.000 C 
ATOM     41  C   UNL     1     -18.510  43.097   6.042  0.00  0.00    +0.000 C 
BRANCH  38  42
ATOM     42  N   UNL     1     -14.688  42.309   2.878  0.00  0.00    +0.000 NA
ATOM     43  H   UNL     1     -13.986  42.872   3.356  0.00  0.00    +0.000 HD
ATOM     44  H   UNL     1     -15.241  42.964   2.315  0.00  0.00    +0.000 HD
ENDBRANCH  38  42
BRANCH  39  45
ATOM     45  O   UNL     1     -15.890  43.880   4.888  0.00  0.00    +0.000 OA
ATOM     46  H   UNL     1     -15.486  44.343   4.135  0.00  0.00    +0.000 HD
ENDBRANCH  39  45
ENDBRANCH  34  36
ENDBRANCH   3  34
TORSDOF 11
ENDMDL
MODEL 2
REMARK VINA RESULT:      -6.4     16.798     21.138
REMARK  Name = 
REMARK  13 active torsions:
REMARK  status: ('A' for Active; 'I' for Inactive)
REMARK    1  A    between atoms: O_1  and  C_13
REMARK    2  A    between atoms: O_1  and  C_19
REMARK    3  A    between atoms: O_3  and  C_14
REMARK    4  A    between atoms: O_4  and  C_22
REMARK    5  A    between atoms: O_5  and  C_24
REMARK    6  A    between atoms: O_6  and  C_26
REMARK    7  A    between atoms: O_8  and  C_30
REMARK    8  A    between atoms: O_11  and  C_35
REMARK    9  A    between atoms: O_11  and  C_39
REMARK   10  A    between atoms: N_12  and  C_21
REMARK   11  A    between atoms: C_14  and  C_25
REMARK   12  A    between atoms: C_23  and  C_29
REMARK   13  A    between atoms: C_25  and  C_30
REMARK                            x       y       z     vdW  Elec       q    Type
REMARK                         _______ _______ _______ _____ _____    ______ ____
ROOT
ATOM      1  O   UNL     1      -4.206  24.900  16.608  0.00  0.00    +0.000 OA
ATOM      2  O   UNL     1      -1.369  28.815  18.820  0.00  0.00    +0.000 OA
ATOM      3  C   UNL     1      -0.819  26.077  12.940  0.00  0.00    +0.000 C 
ATOM      4  C   UNL     1       0.916  27.909  12.703  0.00  0.00    +0.000 C 
ATOM      5  C   UNL     1       0.600  26.423  12.487  0.00  0.00    +0.000 C 
ATOM      6  C   UNL     1       0.779  28.283  14.186  0.00  0.00    +0.000 C 
ATOM      7  C   UNL     1      -1.089  26.541  14.358  0.00  0.00    +0.000 A 
ATOM      8  C   UNL     1      -0.359  27.604  14.926  0.00  0.00    +0.000 A 
ATOM      9  C   UNL     1      -2.120  25.946  15.109  0.00  0.00    +0.000 A 
ATOM     10  C   UNL     1      -0.663  28.020  16.234  0.00  0.00    +0.000 A 
ATOM     11  C   UNL     1      -2.425  26.377  16.414  0.00  0.00    +0.000 A 
ATOM     12  C   UNL     1      -1.692  27.415  16.976  0.00  0.00    +0.000 A 
ATOM     13  C   UNL     1      -3.523  25.745  17.180  0.00  0.00    +0.000 C 
ATOM     14  C   UNL     1      -1.998  27.875  18.344  0.00  0.00    +0.000 C 
ATOM     15  C   UNL     1      -3.787  26.155  18.580  0.00  0.00    +0.000 A 
ATOM     16  C   UNL     1      -3.046  27.202  19.131  0.00  0.00    +0.000 A 
ATOM     17  C   UNL     1      -4.766  25.534  19.372  0.00  0.00    +0.000 A 
ATOM     18  C   UNL     1      -3.277  27.626  20.449  0.00  0.00    +0.000 A 
ATOM     19  C   UNL     1      -4.977  25.941  20.695  0.00  0.00    +0.000 A 
ATOM     20  C   UNL     1      -4.241  26.994  21.230  0.00  0.00    +0.000 A 
ENDROOT
BRANCH   4  21
ATOM     21  O   UNL     1       0.049  28.728  11.909  0.00  0.00    +0.000 OA
ATOM     22  H   UNL     1      -0.045  29.585  12.376  0.00  0.00    +0.000 HD
ENDBRANCH   4  21
BRANCH   9  23
ATOM     23  O   UNL     1      -2.815  24.922  14.509  0.00  0.00    +0.000 OA
ATOM     24  H   UNL     1      -2.887  24.174  15.147  0.00  0.00    +0.000 HD
ENDBRANCH   9  23
BRANCH  10  25
ATOM     25  O   UNL     1       0.099  29.042  16.748  0.00  0.00    +0.000 OA
ATOM     26  H   UNL     1      -0.153  29.184  17.689  0.00  0.00    +0.000 HD
ENDBRANCH  10  25
BRANCH   4  28
ATOM     27  O   UNL     1       3.231  28.608  13.029  0.00  0.00    +0.000 OA
ATOM     28  C   UNL     1       2.356  28.206  12.252  0.00  0.00    +0.000 C 
BRANCH  28  29
ATOM     29  C   UNL     1       2.681  28.007  10.774  0.00  0.00    +0.000 C 
BRANCH  29  30
ATOM     30  O   UNL     1       2.128  29.049   9.978  0.00  0.00    +0.000 OA
ATOM     31  H   UNL     1       2.851  29.358   9.395  0.00  0.00    +0.000 HD
ENDBRANCH  29  30
ENDBRANCH  28  29
ENDBRANCH   4  28
BRANCH  17  32
ATOM     32  O   UNL     1      -5.475  24.448  18.933  0.00  0.00    +0.000 OA
ATOM     33  C   UNL     1      -6.876  24.730  18.927  0.00  0.00    +0.000 C 
ENDBRANCH  17  32
BRANCH   3  34
ATOM     34  O   UNL     1      -1.754  26.778  12.102  0.00  0.00    +0.000 OA
BRANCH  34  36
ATOM     35  O   UNL     1      -1.736  25.992   9.882  0.00  0.00    +0.000 OA
ATOM     36  C   UNL     1      -2.383  25.915  11.150  0.00  0.00    +0.000 C 
ATOM     37  C   UNL     1      -3.870  26.265  11.062  0.00  0.00    +0.000 C 
ATOM     38  C   UNL     1      -4.076  27.622  10.384  0.00  0.00    +0.000 C 
ATOM     39  C   UNL     1      -3.359  27.631   9.019  0.00  0.00    +0.000 C 
ATOM     40  C   UNL     1      -1.879  27.261   9.230  0.00  0.00    +0.000 C 
ATOM     41  C   UNL     1      -1.104  27.176   7.919  0.00  0.00    +0.000 C 
BRANCH  38  42
ATOM     42  N   UNL     1      -5.512  27.908  10.216  0.00  0.00    +0.000 NA
ATOM     43  H   UNL     1      -5.693  28.236   9.269  0.00  0.00    +0.000 HD
ATOM     44  H   UNL     1      -5.733  28.695  10.835  0.00  0.00    +0.000 HD
ENDBRANCH  38  42
BRANCH  39  45
ATOM     45  O   UNL     1      -4.024  26.692   8.153  0.00  0.00    +0.000 OA
ATOM     46  H   UNL     1      -3.388  25.988   7.943  0.00  0.00    +0.000 HD
ENDBRANCH  39  45
ENDBRANCH  34  36
ENDBRANCH   3  34
TORSDOF 11
ENDMDL
MODEL 3
REMARK VINA RESULT:      -6.4      3.312      9.404
REMARK  Name = 
REMARK  13 active torsions:
REMARK  status: ('A' for Active; 'I' for Inactive)
REMARK    1  A    between atoms: O_1  and  C_13
REMARK    2  A    between atoms: O_1  and  C_19
REMARK    3  A    between atoms: O_3  and  C_14
REMARK    4  A    between atoms: O_4  and  C_22
REMARK    5  A    between atoms: O_5  and  C_24
REMARK    6  A    between atoms: O_6  and  C_26
REMARK    7  A    between atoms: O_8  and  C_30
REMARK    8  A    between atoms: O_11  and  C_35
REMARK    9  A    between atoms: O_11  and  C_39
REMARK   10  A    between atoms: N_12  and  C_21
REMARK   11  A    between atoms: C_14  and  C_25
REMARK   12  A    between atoms: C_23  and  C_29
REMARK   13  A    between atoms: C_25  and  C_30
REMARK                            x       y       z     vdW  Elec       q    Type
REMARK                         _______ _______ _______ _____ _____    ______ ____
ROOT
ATOM      1  O   UNL     1     -20.184  43.552   4.866  0.00  0.00    +0.000 OA
ATOM      2  O   UNL     1     -16.753  42.602   0.917  0.00  0.00    +0.000 OA
ATOM      3  C   UNL     1     -17.807  39.279   6.415  0.00  0.00    +0.000 C 
ATOM      4  C   UNL     1     -16.131  37.730   5.315  0.00  0.00    +0.000 C 
ATOM      5  C   UNL     1     -16.538  38.446   6.609  0.00  0.00    +0.000 C 
ATOM      6  C   UNL     1     -15.873  38.744   4.191  0.00  0.00    +0.000 C 
ATOM      7  C   UNL     1     -17.692  40.216   5.229  0.00  0.00    +0.000 A 
ATOM      8  C   UNL     1     -16.807  39.940   4.168  0.00  0.00    +0.000 A 
ATOM      9  C   UNL     1     -18.516  41.354   5.149  0.00  0.00    +0.000 A 
ATOM     10  C   UNL     1     -16.754  40.822   3.074  0.00  0.00    +0.000 A 
ATOM     11  C   UNL     1     -18.465  42.226   4.044  0.00  0.00    +0.000 A 
ATOM     12  C   UNL     1     -17.579  41.958   3.007  0.00  0.00    +0.000 A 
ATOM     13  C   UNL     1     -19.352  43.409   3.975  0.00  0.00    +0.000 C 
ATOM     14  C   UNL     1     -17.513  42.864   1.845  0.00  0.00    +0.000 C 
ATOM     15  C   UNL     1     -19.238  44.361   2.845  0.00  0.00    +0.000 A 
ATOM     16  C   UNL     1     -18.347  44.078   1.807  0.00  0.00    +0.000 A 
ATOM     17  C   UNL     1     -20.002  45.537   2.772  0.00  0.00    +0.000 A 
ATOM     18  C   UNL     1     -18.221  44.949   0.714  0.00  0.00    +0.000 A 
ATOM     19  C   UNL     1     -19.856  46.417   1.694  0.00  0.00    +0.000 A 
ATOM     20  C   UNL     1     -18.974  46.118   0.660  0.00  0.00    +0.000 A 
ENDROOT
BRANCH   4  21
ATOM     21  O   UNL     1     -17.144  36.799   4.913  0.00  0.00    +0.000 OA
ATOM     22  H   UNL     1     -16.699  36.094   4.397  0.00  0.00    +0.000 HD
ENDBRANCH   4  21
BRANCH   9  23
ATOM     23  O   UNL     1     -19.374  41.576   6.200  0.00  0.00    +0.000 OA
ATOM     24  H   UNL     1     -19.019  41.119   6.999  0.00  0.00    +0.000 HD
ENDBRANCH   9  23
BRANCH  10  25
ATOM     25  O   UNL     1     -15.854  40.519   2.081  0.00  0.00    +0.000 OA
ATOM     26  H   UNL     1     -15.417  41.349   1.783  0.00  0.00    +0.000 HD
ENDBRANCH  10  25
BRANCH   4  28
ATOM     27  O   UNL     1     -14.006  37.231   6.405  0.00  0.00    +0.000 OA
ATOM     28  C   UNL     1     -14.844  36.921   5.550  0.00  0.00    +0.000 C 
BRANCH  28  29
ATOM     29  C   UNL     1     -14.612  35.701   4.661  0.00  0.00    +0.000 C 
BRANCH  29  30
ATOM     30  O   UNL     1     -15.430  34.608   5.059  0.00  0.00    +0.000 OA
ATOM     31  H   UNL     1     -16.346  34.952   5.091  0.00  0.00    +0.000 HD
ENDBRANCH  29  30
ENDBRANCH  28  29
ENDBRANCH   4  28
BRANCH  17  32
ATOM     32  O   UNL     1     -20.833  45.926   3.788  0.00  0.00    +0.000 OA
ATOM     33  C   UNL     1     -20.938  47.351   3.835  0.00  0.00    +0.000 C 
ENDBRANCH  17  32
BRANCH   3  34
ATOM     34  O   UNL     1     -18.901  38.393   6.124  0.00  0.00    +0.000 OA
BRANCH  34  36
ATOM     35  O   UNL     1     -19.184  36.380   7.312  0.00  0.00    +0.000 OA
ATOM     36  C   UNL     1     -19.434  37.783   7.302  0.00  0.00    +0.000 C 
ATOM     37  C   UNL     1     -20.927  38.104   7.401  0.00  0.00    +0.000 C 
ATOM     38  C   UNL     1     -21.721  37.363   6.322  0.00  0.00    +0.000 C 
ATOM     39  C   UNL     1     -21.409  35.855   6.396  0.00  0.00    +0.000 C 
ATOM     40  C   UNL     1     -19.885  35.655   6.293  0.00  0.00    +0.000 C 
ATOM     41  C   UNL     1     -19.477  34.192   6.428  0.00  0.00    +0.000 C 
BRANCH  38  42
ATOM     42  N   UNL     1     -23.167  37.601   6.483  0.00  0.00    +0.000 NA
ATOM     43  H   UNL     1     -23.453  38.400   5.921  0.00  0.00    +0.000 HD
ATOM     44  H   UNL     1     -23.316  37.874   7.460  0.00  0.00    +0.000 HD
ENDBRANCH  38  42
BRANCH  39  45
ATOM     45  O   UNL     1     -21.930  35.346   7.638  0.00  0.00    +0.000 OA
ATOM     46  H   UNL     1     -22.742  35.841   7.839  0.00  0.00    +0.000 HD
ENDBRANCH  39  45
ENDBRANCH  34  36
ENDBRANCH   3  34
TORSDOF 11
ENDMDL
MODEL 4
REMARK VINA RESULT:      -6.2     21.185     24.895
REMARK  Name = 
REMARK  13 active torsions:
REMARK  status: ('A' for Active; 'I' for Inactive)
REMARK    1  A    between atoms: O_1  and  C_13
REMARK    2  A    between atoms: O_1  and  C_19
REMARK    3  A    between atoms: O_3  and  C_14
REMARK    4  A    between atoms: O_4  and  C_22
REMARK    5  A    between atoms: O_5  and  C_24
REMARK    6  A    between atoms: O_6  and  C_26
REMARK    7  A    between atoms: O_8  and  C_30
REMARK    8  A    between atoms: O_11  and  C_35
REMARK    9  A    between atoms: O_11  and  C_39
REMARK   10  A    between atoms: N_12  and  C_21
REMARK   11  A    between atoms: C_14  and  C_25
REMARK   12  A    between atoms: C_23  and  C_29
REMARK   13  A    between atoms: C_25  and  C_30
REMARK                            x       y       z     vdW  Elec       q    Type
REMARK                         _______ _______ _______ _____ _____    ______ ____
ROOT
ATOM      1  O   UNL     1       7.676  43.120   1.885  0.00  0.00    +0.000 OA
ATOM      2  O   UNL     1       4.483  39.296   3.743  0.00  0.00    +0.000 OA
ATOM      3  C   UNL     1       9.710  42.054   6.472  0.00  0.00    +0.000 C 
ATOM      4  C   UNL     1       8.975  40.576   8.394  0.00  0.00    +0.000 C 
ATOM      5  C   UNL     1      10.156  41.055   7.540  0.00  0.00    +0.000 C 
ATOM      6  C   UNL     1       7.911  39.899   7.518  0.00  0.00    +0.000 C 
ATOM      7  C   UNL     1       8.558  41.519   5.644  0.00  0.00    +0.000 A 
ATOM      8  C   UNL     1       7.693  40.532   6.156  0.00  0.00    +0.000 A 
ATOM      9  C   UNL     1       8.305  42.049   4.365  0.00  0.00    +0.000 A 
ATOM     10  C   UNL     1       6.619  40.086   5.364  0.00  0.00    +0.000 A 
ATOM     11  C   UNL     1       7.221  41.604   3.583  0.00  0.00    +0.000 A 
ATOM     12  C   UNL     1       6.379  40.619   4.086  0.00  0.00    +0.000 A 
ATOM     13  C   UNL     1       6.966  42.186   2.246  0.00  0.00    +0.000 C 
ATOM     14  C   UNL     1       5.242  40.141   3.278  0.00  0.00    +0.000 C 
ATOM     15  C   UNL     1       5.868  41.658   1.401  0.00  0.00    +0.000 A 
ATOM     16  C   UNL     1       5.028  40.671   1.920  0.00  0.00    +0.000 A 
ATOM     17  C   UNL     1       5.634  42.123   0.097  0.00  0.00    +0.000 A 
ATOM     18  C   UNL     1       3.969  40.158   1.154  0.00  0.00    +0.000 A 
ATOM     19  C   UNL     1       4.595  41.591  -0.675  0.00  0.00    +0.000 A 
ATOM     20  C   UNL     1       3.756  40.617  -0.143  0.00  0.00    +0.000 A 
ENDROOT
BRANCH   4  21
ATOM     21  O   UNL     1       8.395  41.672   9.112  0.00  0.00    +0.000 OA
ATOM     22  H   UNL     1       7.486  41.795   8.765  0.00  0.00    +0.000 HD
ENDBRANCH   4  21
BRANCH   9  23
ATOM     23  O   UNL     1       9.166  43.020   3.912  0.00  0.00    +0.000 OA
ATOM     24  H   UNL     1      10.083  42.657   3.921  0.00  0.00    +0.000 HD
ENDBRANCH   9  23
BRANCH  10  25
ATOM     25  O   UNL     1       5.824  39.102   5.902  0.00  0.00    +0.000 OA
ATOM     26  H   UNL     1       6.386  38.495   6.435  0.00  0.00    +0.000 HD
ENDBRANCH  10  25
BRANCH   4  28
ATOM     27  O   UNL     1      10.465  39.757  10.145  0.00  0.00    +0.000 OA
ATOM     28  C   UNL     1       9.467  39.562   9.441  0.00  0.00    +0.000 C 
BRANCH  28  29
ATOM     29  C   UNL     1       8.679  38.261   9.577  0.00  0.00    +0.000 C 
BRANCH  29  30
ATOM     30  O   UNL     1       8.009  38.191  10.831  0.00  0.00    +0.000 OA
ATOM     31  H   UNL     1       7.126  38.588  10.689  0.00  0.00    +0.000 HD
ENDBRANCH  29  30
ENDBRANCH  28  29
ENDBRANCH   4  28
BRANCH  17  32
ATOM     32  O   UNL     1       6.464  43.027  -0.511  0.00  0.00    +0.000 OA
ATOM     33  C   UNL     1       7.130  42.429  -1.625  0.00  0.00    +0.000 C 
ENDBRANCH  17  32
BRANCH   3  34
ATOM     34  O   UNL     1       9.221  43.239   7.123  0.00  0.00    +0.000 OA
BRANCH  34  36
ATOM     35  O   UNL     1      10.756  44.955   7.621  0.00  0.00    +0.000 OA
ATOM     36  C   UNL     1       9.862  44.425   6.645  0.00  0.00    +0.000 C 
ATOM     37  C   UNL     1       8.793  45.439   6.229  0.00  0.00    +0.000 C 
ATOM     38  C   UNL     1       8.059  45.995   7.452  0.00  0.00    +0.000 C 
ATOM     39  C   UNL     1       9.084  46.557   8.459  0.00  0.00    +0.000 C 
ATOM     40  C   UNL     1      10.107  45.456   8.796  0.00  0.00    +0.000 C 
ATOM     41  C   UNL     1      11.204  45.945   9.735  0.00  0.00    +0.000 C 
BRANCH  38  42
ATOM     42  N   UNL     1       7.100  47.040   7.053  0.00  0.00    +0.000 NA
ATOM     43  H   UNL     1       7.485  47.961   7.252  0.00  0.00    +0.000 HD
ATOM     44  H   UNL     1       6.280  46.939   7.661  0.00  0.00    +0.000 HD
ENDBRANCH  38  42
BRANCH  39  45
ATOM     45  O   UNL     1       9.716  47.706   7.865  0.00  0.00    +0.000 OA
ATOM     46  H   UNL     1      10.334  47.383   7.189  0.00  0.00    +0.000 HD
ENDBRANCH  39  45
ENDBRANCH  34  36
ENDBRANCH   3  34
TORSDOF 11
ENDMDL
MODEL 5
REMARK VINA RESULT:      -6.1      4.591      8.274
REMARK  Name = 
REMARK  13 active torsions:
REMARK  status: ('A' for Active; 'I' for Inactive)
REMARK    1  A    between atoms: O_1  and  C_13
REMARK    2  A    between atoms: O_1  and  C_19
REMARK    3  A    between atoms: O_3  and  C_14
REMARK    4  A    between atoms: O_4  and  C_22
REMARK    5  A    between atoms: O_5  and  C_24
REMARK    6  A    between atoms: O_6  and  C_26
REMARK    7  A    between atoms: O_8  and  C_30
REMARK    8  A    between atoms: O_11  and  C_35
REMARK    9  A    between atoms: O_11  and  C_39
REMARK   10  A    between atoms: N_12  and  C_21
REMARK   11  A    between atoms: C_14  and  C_25
REMARK   12  A    between atoms: C_23  and  C_29
REMARK   13  A    between atoms: C_25  and  C_30
REMARK                            x       y       z     vdW  Elec       q    Type
REMARK                         _______ _______ _______ _____ _____    ______ ____
ROOT
ATOM      1  O   UNL     1     -20.046  41.215   5.631  0.00  0.00    +0.000 OA
ATOM      2  O   UNL     1     -15.986  37.865   6.376  0.00  0.00    +0.000 OA
ATOM      3  C   UNL     1     -22.394  36.821   6.853  0.00  0.00    +0.000 C 
ATOM      4  C   UNL     1     -21.564  34.455   7.222  0.00  0.00    +0.000 C 
ATOM      5  C   UNL     1     -22.514  35.558   7.708  0.00  0.00    +0.000 C 
ATOM      6  C   UNL     1     -20.106  34.933   7.273  0.00  0.00    +0.000 C 
ATOM      7  C   UNL     1     -20.956  37.286   6.731  0.00  0.00    +0.000 A 
ATOM      8  C   UNL     1     -19.885  36.387   6.893  0.00  0.00    +0.000 A 
ATOM      9  C   UNL     1     -20.676  38.624   6.397  0.00  0.00    +0.000 A 
ATOM     10  C   UNL     1     -18.567  36.856   6.743  0.00  0.00    +0.000 A 
ATOM     11  C   UNL     1     -19.354  39.084   6.237  0.00  0.00    +0.000 A 
ATOM     12  C   UNL     1     -18.300  38.195   6.414  0.00  0.00    +0.000 A 
ATOM     13  C   UNL     1     -19.084  40.492   5.871  0.00  0.00    +0.000 C 
ATOM     14  C   UNL     1     -16.910  38.663   6.252  0.00  0.00    +0.000 C 
ATOM     15  C   UNL     1     -17.688  40.984   5.779  0.00  0.00    +0.000 A 
ATOM     16  C   UNL     1     -16.638  40.080   5.955  0.00  0.00    +0.000 A 
ATOM     17  C   UNL     1     -17.381  42.327   5.511  0.00  0.00    +0.000 A 
ATOM     18  C   UNL     1     -15.304  40.507   5.862  0.00  0.00    +0.000 A 
ATOM     19  C   UNL     1     -16.050  42.756   5.445  0.00  0.00    +0.000 A 
ATOM     20  C   UNL     1     -15.012  41.843   5.609  0.00  0.00    +0.000 A 
ENDROOT
BRANCH   4  21
ATOM     21  O   UNL     1     -21.902  34.050   5.890  0.00  0.00    +0.000 OA
ATOM     22  H   UNL     1     -22.654  34.609   5.601  0.00  0.00    +0.000 HD
ENDBRANCH   4  21
BRANCH   9  23
ATOM     23  O   UNL     1     -21.752  39.464   6.234  0.00  0.00    +0.000 OA
ATOM     24  H   UNL     1     -22.566  38.995   6.534  0.00  0.00    +0.000 HD
ENDBRANCH   9  23
BRANCH  10  25
ATOM     25  O   UNL     1     -17.561  35.941   6.940  0.00  0.00    +0.000 OA
ATOM     26  H   UNL     1     -16.812  36.159   6.340  0.00  0.00    +0.000 HD
ENDBRANCH  10  25
BRANCH   4  28
ATOM     27  O   UNL     1     -20.740  32.520   8.458  0.00  0.00    +0.000 OA
ATOM     28  C   UNL     1     -21.706  33.214   8.120  0.00  0.00    +0.000 C 
BRANCH  28  29
ATOM     29  C   UNL     1     -23.113  32.839   8.578  0.00  0.00    +0.000 C 
BRANCH  29  30
ATOM     30  O   UNL     1     -23.253  32.981   9.987  0.00  0.00    +0.000 OA
ATOM     31  H   UNL     1     -24.140  33.369  10.134  0.00  0.00    +0.000 HD
ENDBRANCH  29  30
ENDBRANCH  28  29
ENDBRANCH   4  28
BRANCH  17  32
ATOM     32  O   UNL     1     -18.351  43.288   5.410  0.00  0.00    +0.000 OA
ATOM     33  C   UNL     1     -18.358  43.861   4.101  0.00  0.00    +0.000 C 
ENDBRANCH  17  32
BRANCH   3  34
ATOM     34  O   UNL     1     -22.833  36.518   5.518  0.00  0.00    +0.000 OA
BRANCH  34  36
ATOM     35  O   UNL     1     -24.670  35.773   4.245  0.00  0.00    +0.000 OA
ATOM     36  C   UNL     1     -24.259  36.489   5.408  0.00  0.00    +0.000 C 
ATOM     37  C   UNL     1     -24.791  37.924   5.422  0.00  0.00    +0.000 C 
ATOM     38  C   UNL     1     -24.429  38.656   4.127  0.00  0.00    +0.000 C 
ATOM     39  C   UNL     1     -24.909  37.832   2.915  0.00  0.00    +0.000 C 
ATOM     40  C   UNL     1     -24.318  36.412   3.012  0.00  0.00    +0.000 C 
ATOM     41  C   UNL     1     -24.798  35.502   1.887  0.00  0.00    +0.000 C 
BRANCH  38  42
ATOM     42  N   UNL     1     -25.026  40.003   4.106  0.00  0.00    +0.000 NA
ATOM     43  H   UNL     1     -25.867  40.003   3.530  0.00  0.00    +0.000 HD
ATOM     44  H   UNL     1     -24.357  40.617   3.629  0.00  0.00    +0.000 HD
ENDBRANCH  38  42
BRANCH  39  45
ATOM     45  O   UNL     1     -26.348  37.811   2.925  0.00  0.00    +0.000 OA
ATOM     46  H   UNL     1     -26.646  37.745   2.003  0.00  0.00    +0.000 HD
ENDBRANCH  39  45
ENDBRANCH  34  36
ENDBRANCH   3  34
TORSDOF 11
ENDMDL
MODEL 6
REMARK VINA RESULT:      -6.1      2.834      7.575
REMARK  Name = 
REMARK  13 active torsions:
REMARK  status: ('A' for Active; 'I' for Inactive)
REMARK    1  A    between atoms: O_1  and  C_13
REMARK    2  A    between atoms: O_1  and  C_19
REMARK    3  A    between atoms: O_3  and  C_14
REMARK    4  A    between atoms: O_4  and  C_22
REMARK    5  A    between atoms: O_5  and  C_24
REMARK    6  A    between atoms: O_6  and  C_26
REMARK    7  A    between atoms: O_8  and  C_30
REMARK    8  A    between atoms: O_11  and  C_35
REMARK    9  A    between atoms: O_11  and  C_39
REMARK   10  A    between atoms: N_12  and  C_21
REMARK   11  A    between atoms: C_14  and  C_25
REMARK   12  A    between atoms: C_23  and  C_29
REMARK   13  A    between atoms: C_25  and  C_30
REMARK                            x       y       z     vdW  Elec       q    Type
REMARK                         _______ _______ _______ _____ _____    ______ ____
ROOT
ATOM      1  O   UNL     1     -19.180  34.259   7.062  0.00  0.00    +0.000 OA
ATOM      2  O   UNL     1     -22.062  38.617   6.074  0.00  0.00    +0.000 OA
ATOM      3  C   UNL     1     -15.615  37.743   5.852  0.00  0.00    +0.000 C 
ATOM      4  C   UNL     1     -15.737  40.122   4.986  0.00  0.00    +0.000 C 
ATOM      5  C   UNL     1     -15.033  39.155   5.948  0.00  0.00    +0.000 C 
ATOM      6  C   UNL     1     -17.239  40.198   5.295  0.00  0.00    +0.000 C 
ATOM      7  C   UNL     1     -17.123  37.742   6.006  0.00  0.00    +0.000 A 
ATOM      8  C   UNL     1     -17.885  38.888   5.708  0.00  0.00    +0.000 A 
ATOM      9  C   UNL     1     -17.789  36.566   6.400  0.00  0.00    +0.000 A 
ATOM     10  C   UNL     1     -19.285  38.833   5.838  0.00  0.00    +0.000 A 
ATOM     11  C   UNL     1     -19.192  36.516   6.517  0.00  0.00    +0.000 A 
ATOM     12  C   UNL     1     -19.938  37.654   6.236  0.00  0.00    +0.000 A 
ATOM     13  C   UNL     1     -19.871  35.264   6.919  0.00  0.00    +0.000 C 
ATOM     14  C   UNL     1     -21.407  37.617   6.357  0.00  0.00    +0.000 C 
ATOM     15  C   UNL     1     -21.340  35.242   7.112  0.00  0.00    +0.000 A 
ATOM     16  C   UNL     1     -22.079  36.391   6.822  0.00  0.00    +0.000 A 
ATOM     17  C   UNL     1     -22.022  34.102   7.566  0.00  0.00    +0.000 A 
ATOM     18  C   UNL     1     -23.474  36.404   6.980  0.00  0.00    +0.000 A 
ATOM     19  C   UNL     1     -23.410  34.125   7.747  0.00  0.00    +0.000 A 
ATOM     20  C   UNL     1     -24.137  35.272   7.443  0.00  0.00    +0.000 A 
ENDROOT
BRANCH   4  21
ATOM     21  O   UNL     1     -15.536  39.715   3.626  0.00  0.00    +0.000 OA
ATOM     22  H   UNL     1     -14.632  39.998   3.372  0.00  0.00    +0.000 HD
ENDBRANCH   4  21
BRANCH   9  23
ATOM     23  O   UNL     1     -17.006  35.468   6.668  0.00  0.00    +0.000 OA
ATOM     24  H   UNL     1     -16.218  35.490   6.075  0.00  0.00    +0.000 HD
ENDBRANCH   9  23
BRANCH  10  25
ATOM     25  O   UNL     1     -19.975  39.988   5.560  0.00  0.00    +0.000 OA
ATOM     26  H   UNL     1     -19.570  40.419   4.774  0.00  0.00    +0.000 HD
ENDBRANCH  10  25
BRANCH   4  28
ATOM     27  O   UNL     1     -13.983  41.804   4.767  0.00  0.00    +0.000 OA
ATOM     28  C   UNL     1     -15.133  41.529   5.129  0.00  0.00    +0.000 C 
BRANCH  28  29
ATOM     29  C   UNL     1     -16.011  42.604   5.767  0.00  0.00    +0.000 C 
BRANCH  29  30
ATOM     30  O   UNL     1     -15.880  43.848   5.089  0.00  0.00    +0.000 OA
ATOM     31  H   UNL     1     -14.929  44.078   5.126  0.00  0.00    +0.000 HD
ENDBRANCH  29  30
ENDBRANCH  28  29
ENDBRANCH   4  28
BRANCH  17  32
ATOM     32  O   UNL     1     -21.361  32.966   7.950  0.00  0.00    +0.000 OA
ATOM     33  C   UNL     1     -22.171  32.185   8.831  0.00  0.00    +0.000 C 
ENDBRANCH  17  32
BRANCH   3  34
ATOM     34  O   UNL     1     -15.344  37.221   4.540  0.00  0.00    +0.000 OA
BRANCH  34  36
ATOM     35  O   UNL     1     -14.266  35.249   5.245  0.00  0.00    +0.000 OA
ATOM     36  C   UNL     1     -15.362  35.791   4.511  0.00  0.00    +0.000 C 
ATOM     37  C   UNL     1     -15.371  35.319   3.055  0.00  0.00    +0.000 C 
ATOM     38  C   UNL     1     -14.024  35.593   2.381  0.00  0.00    +0.000 C 
ATOM     39  C   UNL     1     -12.889  34.974   3.222  0.00  0.00    +0.000 C 
ATOM     40  C   UNL     1     -12.984  35.514   4.662  0.00  0.00    +0.000 C 
ATOM     41  C   UNL     1     -11.940  34.899   5.587  0.00  0.00    +0.000 C 
BRANCH  38  42
ATOM     42  N   UNL     1     -14.007  35.050   1.011  0.00  0.00    +0.000 NA
ATOM     43  H   UNL     1     -14.802  35.408   0.484  0.00  0.00    +0.000 HD
ATOM     44  H   UNL     1     -14.153  34.038   1.090  0.00  0.00    +0.000 HD
ENDBRANCH  38  42
BRANCH  39  45
ATOM     45  O   UNL     1     -13.027  33.542   3.181  0.00  0.00    +0.000 OA
ATOM     46  H   UNL     1     -13.745  33.300   3.790  0.00  0.00    +0.000 HD
ENDBRANCH  39  45
ENDBRANCH  34  36
ENDBRANCH   3  34
TORSDOF 11
ENDMDL
MODEL 7
REMARK VINA RESULT:      -6.0     28.708     31.161
REMARK  Name = 
REMARK  13 active torsions:
REMARK  status: ('A' for Active; 'I' for Inactive)
REMARK    1  A    between atoms: O_1  and  C_13
REMARK    2  A    between atoms: O_1  and  C_19
REMARK    3  A    between atoms: O_3  and  C_14
REMARK    4  A    between atoms: O_4  and  C_22
REMARK    5  A    between atoms: O_5  and  C_24
REMARK    6  A    between atoms: O_6  and  C_26
REMARK    7  A    between atoms: O_8  and  C_30
REMARK    8  A    between atoms: O_11  and  C_35
REMARK    9  A    between atoms: O_11  and  C_39
REMARK   10  A    between atoms: N_12  and  C_21
REMARK   11  A    between atoms: C_14  and  C_25
REMARK   12  A    between atoms: C_23  and  C_29
REMARK   13  A    between atoms: C_25  and  C_30
REMARK                            x       y       z     vdW  Elec       q    Type
REMARK                         _______ _______ _______ _____ _____    ______ ____
ROOT
ATOM      1  O   UNL     1      -4.980  47.061  30.167  0.00  0.00    +0.000 OA
ATOM      2  O   UNL     1      -2.868  45.922  25.423  0.00  0.00    +0.000 OA
ATOM      3  C   UNL     1       0.059  47.044  31.128  0.00  0.00    +0.000 C 
ATOM      4  C   UNL     1       2.087  46.428  29.741  0.00  0.00    +0.000 C 
ATOM      5  C   UNL     1       1.495  47.415  30.756  0.00  0.00    +0.000 C 
ATOM      6  C   UNL     1       1.249  46.403  28.455  0.00  0.00    +0.000 C 
ATOM      7  C   UNL     1      -0.813  46.860  29.902  0.00  0.00    +0.000 A 
ATOM      8  C   UNL     1      -0.252  46.522  28.655  0.00  0.00    +0.000 A 
ATOM      9  C   UNL     1      -2.212  46.970  30.010  0.00  0.00    +0.000 A 
ATOM     10  C   UNL     1      -1.101  46.332  27.550  0.00  0.00    +0.000 A 
ATOM     11  C   UNL     1      -3.057  46.767  28.901  0.00  0.00    +0.000 A 
ATOM     12  C   UNL     1      -2.496  46.449  27.670  0.00  0.00    +0.000 A 
ATOM     13  C   UNL     1      -4.526  46.875  29.042  0.00  0.00    +0.000 C 
ATOM     14  C   UNL     1      -3.368  46.236  26.499  0.00  0.00    +0.000 C 
ATOM     15  C   UNL     1      -5.401  46.733  27.854  0.00  0.00    +0.000 A 
ATOM     16  C   UNL     1      -4.826  46.410  26.623  0.00  0.00    +0.000 A 
ATOM     17  C   UNL     1      -6.793  46.902  27.922  0.00  0.00    +0.000 A 
ATOM     18  C   UNL     1      -5.624  46.255  25.479  0.00  0.00    +0.000 A 
ATOM     19  C   UNL     1      -7.584  46.773  26.774  0.00  0.00    +0.000 A 
ATOM     20  C   UNL     1      -7.002  46.438  25.556  0.00  0.00    +0.000 A 
ENDROOT
BRANCH   4  21
ATOM     21  O   UNL     1       2.163  45.112  30.303  0.00  0.00    +0.000 OA
ATOM     22  H   UNL     1       1.300  44.933  30.733  0.00  0.00    +0.000 HD
ENDBRANCH   4  21
BRANCH   9  23
ATOM     23  O   UNL     1      -2.717  47.288  31.249  0.00  0.00    +0.000 OA
ATOM     24  H   UNL     1      -2.048  47.824  31.735  0.00  0.00    +0.000 HD
ENDBRANCH   9  23
BRANCH  10  25
ATOM     25  O   UNL     1      -0.497  46.031  26.354  0.00  0.00    +0.000 OA
ATOM     26  H   UNL     1      -1.031  45.346  25.891  0.00  0.00    +0.000 HD
ENDBRANCH  10  25
BRANCH   4  28
ATOM     27  O   UNL     1       4.319  46.094  28.812  0.00  0.00    +0.000 OA
ATOM     28  C   UNL     1       3.523  46.849  29.383  0.00  0.00    +0.000 C 
BRANCH  28  29
ATOM     29  C   UNL     1       3.959  48.257  29.781  0.00  0.00    +0.000 C 
BRANCH  29  30
ATOM     30  O   UNL     1       4.066  49.106  28.644  0.00  0.00    +0.000 OA
ATOM     31  H   UNL     1       3.925  48.533  27.863  0.00  0.00    +0.000 HD
ENDBRANCH  29  30
ENDBRANCH  28  29
ENDBRANCH   4  28
BRANCH  17  32
ATOM     32  O   UNL     1      -7.421  47.301  29.071  0.00  0.00    +0.000 OA
ATOM     33  C   UNL     1      -8.010  48.593  28.901  0.00  0.00    +0.000 C 
ENDBRANCH  17  32
BRANCH   3  34
ATOM     34  O   UNL     1       0.070  45.778  31.809  0.00  0.00    +0.000 OA
BRANCH  34  36
ATOM     35  O   UNL     1       1.151  45.795  33.901  0.00  0.00    +0.000 OA
ATOM     36  C   UNL     1      -0.096  45.919  33.222  0.00  0.00    +0.000 C 
ATOM     37  C   UNL     1      -1.124  44.896  33.711  0.00  0.00    +0.000 C 
ATOM     38  C   UNL     1      -0.560  43.475  33.639  0.00  0.00    +0.000 C 
ATOM     39  C   UNL     1       0.781  43.411  34.398  0.00  0.00    +0.000 C 
ATOM     40  C   UNL     1       1.728  44.485  33.828  0.00  0.00    +0.000 C 
ATOM     41  C   UNL     1       3.059  44.543  34.568  0.00  0.00    +0.000 C 
BRANCH  38  42
ATOM     42  N   UNL     1      -1.518  42.505  34.201  0.00  0.00    +0.000 NA
ATOM     43  H   UNL     1      -2.334  42.992  34.566  0.00  0.00    +0.000 HD
ATOM     44  H   UNL     1      -1.061  42.072  35.011  0.00  0.00    +0.000 HD
ENDBRANCH  38  42
BRANCH  39  45
ATOM     45  O   UNL     1       0.518  43.624  35.797  0.00  0.00    +0.000 OA
ATOM     46  H   UNL     1       0.565  44.581  35.961  0.00  0.00    +0.000 HD
ENDBRANCH  39  45
ENDBRANCH  34  36
ENDBRANCH   3  34
TORSDOF 11
ENDMDL
MODEL 8
REMARK VINA RESULT:      -5.9     27.216     29.886
REMARK  Name = 
REMARK  13 active torsions:
REMARK  status: ('A' for Active; 'I' for Inactive)
REMARK    1  A    between atoms: O_1  and  C_13
REMARK    2  A    between atoms: O_1  and  C_19
REMARK    3  A    between atoms: O_3  and  C_14
REMARK    4  A    between atoms: O_4  and  C_22
REMARK    5  A    between atoms: O_5  and  C_24
REMARK    6  A    between atoms: O_6  and  C_26
REMARK    7  A    between atoms: O_8  and  C_30
REMARK    8  A    between atoms: O_11  and  C_35
REMARK    9  A    between atoms: O_11  and  C_39
REMARK   10  A    between atoms: N_12  and  C_21
REMARK   11  A    between atoms: C_14  and  C_25
REMARK   12  A    between atoms: C_23  and  C_29
REMARK   13  A    between atoms: C_25  and  C_30
REMARK                            x       y       z     vdW  Elec       q    Type
REMARK                         _______ _______ _______ _____ _____    ______ ____
ROOT
ATOM      1  O   UNL     1      -6.187  50.485  28.208  0.00  0.00    +0.000 OA
ATOM      2  O   UNL     1      -5.325  46.558  24.730  0.00  0.00    +0.000 OA
ATOM      3  C   UNL     1      -1.577  48.716  29.596  0.00  0.00    +0.000 C 
ATOM      4  C   UNL     1      -0.185  46.733  28.854  0.00  0.00    +0.000 C 
ATOM      5  C   UNL     1      -0.174  48.215  29.250  0.00  0.00    +0.000 C 
ATOM      6  C   UNL     1      -1.091  46.503  27.636  0.00  0.00    +0.000 C 
ATOM      7  C   UNL     1      -2.576  48.401  28.499  0.00  0.00    +0.000 A 
ATOM      8  C   UNL     1      -2.360  47.336  27.603  0.00  0.00    +0.000 A 
ATOM      9  C   UNL     1      -3.768  49.143  28.399  0.00  0.00    +0.000 A 
ATOM     10  C   UNL     1      -3.327  47.062  26.619  0.00  0.00    +0.000 A 
ATOM     11  C   UNL     1      -4.736  48.855  27.418  0.00  0.00    +0.000 A 
ATOM     12  C   UNL     1      -4.511  47.813  26.526  0.00  0.00    +0.000 A 
ATOM     13  C   UNL     1      -5.988  49.640  27.340  0.00  0.00    +0.000 C 
ATOM     14  C   UNL     1      -5.515  47.501  25.491  0.00  0.00    +0.000 C 
ATOM     15  C   UNL     1      -6.966  49.378  26.258  0.00  0.00    +0.000 A 
ATOM     16  C   UNL     1      -6.730  48.326  25.371  0.00  0.00    +0.000 A 
ATOM     17  C   UNL     1      -8.131  50.145  26.096  0.00  0.00    +0.000 A 
ATOM     18  C   UNL     1      -7.641  48.039  24.341  0.00  0.00    +0.000 A 
ATOM     19  C   UNL     1      -9.025  49.874  25.053  0.00  0.00    +0.000 A 
ATOM     20  C   UNL     1      -8.785  48.814  24.183  0.00  0.00    +0.000 A 
ENDROOT
BRANCH   4  21
ATOM     21  O   UNL     1      -0.622  45.922  29.952  0.00  0.00    +0.000 OA
ATOM     22  H   UNL     1       0.177  45.674  30.463  0.00  0.00    +0.000 HD
ENDBRANCH   4  21
BRANCH   9  23
ATOM     23  O   UNL     1      -3.943  50.164  29.303  0.00  0.00    +0.000 OA
ATOM     24  H   UNL     1      -3.776  51.022  28.846  0.00  0.00    +0.000 HD
ENDBRANCH   9  23
BRANCH  10  25
ATOM     25  O   UNL     1      -3.051  46.030  25.755  0.00  0.00    +0.000 OA
ATOM     26  H   UNL     1      -2.084  45.850  25.773  0.00  0.00    +0.000 HD
ENDBRANCH  10  25
BRANCH   4  28
ATOM     27  O   UNL     1       2.248  46.919  28.822  0.00  0.00    +0.000 OA
ATOM     28  C   UNL     1       1.241  46.279  28.498  0.00  0.00    +0.000 C 
BRANCH  28  29
ATOM     29  C   UNL     1       1.383  44.990  27.692  0.00  0.00    +0.000 C 
BRANCH  29  30
ATOM     30  O   UNL     1       1.319  43.844  28.534  0.00  0.00    +0.000 OA
ATOM     31  H   UNL     1       0.416  43.835  28.912  0.00  0.00    +0.000 HD
ENDBRANCH  29  30
ENDBRANCH  28  29
ENDBRANCH   4  28
BRANCH  17  32
ATOM     32  O   UNL     1      -8.391  51.243  26.871  0.00  0.00    +0.000 OA
ATOM     33  C   UNL     1      -8.931  52.303  26.077  0.00  0.00    +0.000 C 
ENDBRANCH  17  32
BRANCH   3  34
ATOM     34  O   UNL     1      -2.038  48.024  30.769  0.00  0.00    +0.000 OA
BRANCH  34  36
ATOM     35  O   UNL     1      -0.928  47.316  32.722  0.00  0.00    +0.000 OA
ATOM     36  C   UNL     1      -1.346  48.439  31.951  0.00  0.00    +0.000 C 
ATOM     37  C   UNL     1      -2.244  49.386  32.750  0.00  0.00    +0.000 C 
ATOM     38  C   UNL     1      -3.423  48.632  33.370  0.00  0.00    +0.000 C 
ATOM     39  C   UNL     1      -2.898  47.439  34.194  0.00  0.00    +0.000 C 
ATOM     40  C   UNL     1      -2.006  46.564  33.292  0.00  0.00    +0.000 C 
ATOM     41  C   UNL     1      -1.383  45.393  34.045  0.00  0.00    +0.000 C 
BRANCH  38  42
ATOM     42  N   UNL     1      -4.229  49.530  34.217  0.00  0.00    +0.000 NA
ATOM     43  H   UNL     1      -5.176  49.168  34.306  0.00  0.00    +0.000 HD
ATOM     44  H   UNL     1      -4.312  50.419  33.712  0.00  0.00    +0.000 HD
ENDBRANCH  38  42
BRANCH  39  45
ATOM     45  O   UNL     1      -2.168  47.956  35.322  0.00  0.00    +0.000 OA
ATOM     46  H   UNL     1      -2.358  48.907  35.383  0.00  0.00    +0.000 HD
ENDBRANCH  39  45
ENDBRANCH  34  36
ENDBRANCH   3  34
TORSDOF 11
ENDMDL
MODEL 9
REMARK VINA RESULT:      -5.9     23.307     26.659
REMARK  Name = 
REMARK  13 active torsions:
REMARK  status: ('A' for Active; 'I' for Inactive)
REMARK    1  A    between atoms: O_1  and  C_13
REMARK    2  A    between atoms: O_1  and  C_19
REMARK    3  A    between atoms: O_3  and  C_14
REMARK    4  A    between atoms: O_4  and  C_22
REMARK    5  A    between atoms: O_5  and  C_24
REMARK    6  A    between atoms: O_6  and  C_26
REMARK    7  A    between atoms: O_8  and  C_30
REMARK    8  A    between atoms: O_11  and  C_35
REMARK    9  A    between atoms: O_11  and  C_39
REMARK   10  A    between atoms: N_12  and  C_21
REMARK   11  A    between atoms: C_14  and  C_25
REMARK   12  A    between atoms: C_23  and  C_29
REMARK   13  A    between atoms: C_25  and  C_30
REMARK                            x       y       z     vdW  Elec       q    Type
REMARK                         _______ _______ _______ _____ _____    ______ ____
ROOT
ATOM      1  O   UNL     1       7.525  45.893   6.209  0.00  0.00    +0.000 OA
ATOM      2  O   UNL     1      11.403  45.230   9.785  0.00  0.00    +0.000 OA
ATOM      3  C   UNL     1       7.751  40.795   6.724  0.00  0.00    +0.000 C 
ATOM      4  C   UNL     1       9.326  39.244   7.964  0.00  0.00    +0.000 C 
ATOM      5  C   UNL     1       7.867  39.539   7.590  0.00  0.00    +0.000 C 
ATOM      6  C   UNL     1       9.936  40.421   8.740  0.00  0.00    +0.000 C 
ATOM      7  C   UNL     1       8.454  41.982   7.353  0.00  0.00    +0.000 A 
ATOM      8  C   UNL     1       9.505  41.800   8.273  0.00  0.00    +0.000 A 
ATOM      9  C   UNL     1       8.096  43.290   6.979  0.00  0.00    +0.000 A 
ATOM     10  C   UNL     1      10.148  42.930   8.809  0.00  0.00    +0.000 A 
ATOM     11  C   UNL     1       8.753  44.416   7.513  0.00  0.00    +0.000 A 
ATOM     12  C   UNL     1       9.780  44.232   8.431  0.00  0.00    +0.000 A 
ATOM     13  C   UNL     1       8.369  45.783   7.093  0.00  0.00    +0.000 C 
ATOM     14  C   UNL     1      10.474  45.402   9.001  0.00  0.00    +0.000 C 
ATOM     15  C   UNL     1       9.015  46.963   7.716  0.00  0.00    +0.000 A 
ATOM     16  C   UNL     1      10.047  46.764   8.635  0.00  0.00    +0.000 A 
ATOM     17  C   UNL     1       8.633  48.278   7.409  0.00  0.00    +0.000 A 
ATOM     18  C   UNL     1      10.691  47.857   9.236  0.00  0.00    +0.000 A 
ATOM     19  C   UNL     1       9.258  49.366   8.028  0.00  0.00    +0.000 A 
ATOM     20  C   UNL     1      10.295  49.157   8.933  0.00  0.00    +0.000 A 
ENDROOT
BRANCH   4  21
ATOM     21  O   UNL     1      10.103  38.975   6.791  0.00  0.00    +0.000 OA
ATOM     22  H   UNL     1      10.470  38.071   6.890  0.00  0.00    +0.000 HD
ENDBRANCH   4  21
BRANCH   9  23
ATOM     23  O   UNL     1       7.074  43.420   6.068  0.00  0.00    +0.000 OA
ATOM     24  H   UNL     1       6.720  42.523   5.863  0.00  0.00    +0.000 HD
ENDBRANCH   9  23
BRANCH  10  25
ATOM     25  O   UNL     1      11.148  42.694   9.722  0.00  0.00    +0.000 OA
ATOM     26  H   UNL     1      11.027  41.795  10.102  0.00  0.00    +0.000 HD
ENDBRANCH  10  25
BRANCH   4  28
ATOM     27  O   UNL     1       9.502  36.847   8.382  0.00  0.00    +0.000 OA
ATOM     28  C   UNL     1       9.393  37.987   8.848  0.00  0.00    +0.000 C 
BRANCH  28  29
ATOM     29  C   UNL     1       9.298  38.188  10.358  0.00  0.00    +0.000 C 
BRANCH  29  30
ATOM     30  O   UNL     1       7.976  37.955  10.829  0.00  0.00    +0.000 OA
ATOM     31  H   UNL     1       7.415  37.866  10.031  0.00  0.00    +0.000 HD
ENDBRANCH  29  30
ENDBRANCH  28  29
ENDBRANCH   4  28
BRANCH  17  32
ATOM     32  O   UNL     1       7.575  48.553   6.584  0.00  0.00    +0.000 OA
ATOM     33  C   UNL     1       7.998  49.343   5.470  0.00  0.00    +0.000 C 
ENDBRANCH  17  32
BRANCH   3  34
ATOM     34  O   UNL     1       8.412  40.554   5.471  0.00  0.00    +0.000 OA
BRANCH  34  36
ATOM     35  O   UNL     1       8.461  39.188   3.553  0.00  0.00    +0.000 OA
ATOM     36  C   UNL     1       7.654  39.696   4.613  0.00  0.00    +0.000 C 
ATOM     37  C   UNL     1       6.432  40.457   4.096  0.00  0.00    +0.000 C 
ATOM     38  C   UNL     1       6.843  41.547   3.103  0.00  0.00    +0.000 C 
ATOM     39  C   UNL     1       7.703  40.928   1.982  0.00  0.00    +0.000 C 
ATOM     40  C   UNL     1       8.894  40.186   2.619  0.00  0.00    +0.000 C 
ATOM     41  C   UNL     1       9.763  39.479   1.585  0.00  0.00    +0.000 C 
BRANCH  38  42
ATOM     42  N   UNL     1       5.656  42.211   2.536  0.00  0.00    +0.000 NA
ATOM     43  H   UNL     1       5.518  41.914   1.572  0.00  0.00    +0.000 HD
ATOM     44  H   UNL     1       5.867  43.214   2.496  0.00  0.00    +0.000 HD
ENDBRANCH  38  42
BRANCH  39  45
ATOM     45  O   UNL     1       6.871  40.037   1.215  0.00  0.00    +0.000 OA
ATOM     46  H   UNL     1       6.404  40.573   0.552  0.00  0.00    +0.000 HD
ENDBRANCH  39  45
ENDBRANCH  34  36
ENDBRANCH   3  34
TORSDOF 11
ENDMDL
