MODEL 1
REMARK VINA RESULT:      -6.7      0.000      0.000
REMARK  Name = Dronabinol.pdbqt.pdb
REMARK  3 active torsions:
REMARK  status: ('A' for Active; 'I' for Inactive)
REMARK    1  A    between atoms: C_13  and  O_18
REMARK    2  A    between atoms: C_16  and  C_20
REMARK    3  A    between atoms: C_21  and  C_22
REMARK                            x       y       z     vdW  Elec       q    Type
REMARK                         _______ _______ _______ _____ _____    ______ ____
ROOT
ATOM      1  O   UNL     1      -6.297  45.879  25.810  0.00  0.00    +0.000 OA
ATOM      2  C   UNL     1      -4.007  46.589  26.380  0.00  0.00    +0.000 A 
ATOM      3  C   UNL     1      -4.561  47.925  26.709  0.00  0.00    +0.000 A 
ATOM      4  C   UNL     1      -4.980  45.451  26.229  0.00  0.00    +0.000 C 
ATOM      5  C   UNL     1      -2.571  46.546  26.478  0.00  0.00    +0.000 A 
ATOM      6  C   UNL     1      -6.007  48.129  26.749  0.00  0.00    +0.000 A 
ATOM      7  C   UNL     1      -1.683  47.751  26.840  0.00  0.00    +0.000 A 
ATOM      8  C   UNL     1      -3.535  48.901  27.008  0.00  0.00    +0.000 A 
ATOM      9  C   UNL     1      -2.237  49.046  27.118  0.00  0.00    +0.000 A 
ATOM     10  C   UNL     1      -6.798  47.065  26.289  0.00  0.00    +0.000 A 
ATOM     11  C   UNL     1      -4.472  44.485  25.124  0.00  0.00    +0.000 C 
ATOM     12  C   UNL     1      -5.112  44.698  27.586  0.00  0.00    +0.000 C 
ATOM     13  C   UNL     1      -6.649  49.294  27.188  0.00  0.00    +0.000 A 
ATOM     14  C   UNL     1      -8.188  47.184  26.237  0.00  0.00    +0.000 A 
ATOM     15  C   UNL     1      -1.561  50.279  26.608  0.00  0.00    +0.000 C 
ATOM     16  C   UNL     1      -8.807  48.348  26.676  0.00  0.00    +0.000 A 
ATOM     17  C   UNL     1      -8.041  49.404  27.155  0.00  0.00    +0.000 A 
ENDROOT
BRANCH  13  18
ATOM     18  O   UNL     1      -5.923  50.348  27.667  0.00  0.00    +0.000 OA
ATOM     19  H   UNL     1      -6.523  50.979  28.105  0.00  0.00    +0.000 HD
ENDBRANCH  13  18
BRANCH  16  20
ATOM     20  C   UNL     1     -10.227  48.454  26.647  0.00  0.00    +0.000 C 
ATOM     21  C   UNL     1     -11.755  48.576  26.626  0.00  0.00    +0.000 C 
BRANCH  21  22
ATOM     22  C   UNL     1     -13.280  48.707  26.612  0.00  0.00    +0.000 C 
ATOM     23  C   UNL     1     -14.806  48.842  26.598  0.00  0.00    +0.000 C 
ATOM     24  C   UNL     1     -16.332  48.979  26.581  0.00  0.00    +0.000 C 
ENDBRANCH  21  22
ENDBRANCH  16  20
TORSDOF 3
ENDMDL
MODEL 2
REMARK VINA RESULT:      -5.7     24.712     27.821
REMARK  Name = Dronabinol.pdbqt.pdb
REMARK  3 active torsions:
REMARK  status: ('A' for Active; 'I' for Inactive)
REMARK    1  A    between atoms: C_13  and  O_18
REMARK    2  A    between atoms: C_16  and  C_20
REMARK    3  A    between atoms: C_21  and  C_22
REMARK                            x       y       z     vdW  Elec       q    Type
REMARK                         _______ _______ _______ _____ _____    ______ ____
ROOT
ATOM      1  O   UNL     1     -22.033  35.070   6.238  0.00  0.00    +0.000 OA
ATOM      2  C   UNL     1     -22.561  33.000   7.467  0.00  0.00    +0.000 A 
ATOM      3  C   UNL     1     -21.140  32.952   7.888  0.00  0.00    +0.000 A 
ATOM      4  C   UNL     1     -23.068  34.290   6.880  0.00  0.00    +0.000 C 
ATOM      5  C   UNL     1     -23.307  31.849   7.902  0.00  0.00    +0.000 A 
ATOM      6  C   UNL     1     -20.255  34.081   7.612  0.00  0.00    +0.000 A 
ATOM      7  C   UNL     1     -22.709  30.663   8.682  0.00  0.00    +0.000 A 
ATOM      8  C   UNL     1     -20.806  31.737   8.600  0.00  0.00    +0.000 A 
ATOM      9  C   UNL     1     -21.322  30.617   9.047  0.00  0.00    +0.000 A 
ATOM     10  C   UNL     1     -20.774  35.091   6.787  0.00  0.00    +0.000 A 
ATOM     11  C   UNL     1     -24.113  33.974   5.775  0.00  0.00    +0.000 C 
ATOM     12  C   UNL     1     -23.714  35.154   8.003  0.00  0.00    +0.000 C 
ATOM     13  C   UNL     1     -18.944  34.217   8.085  0.00  0.00    +0.000 A 
ATOM     14  C   UNL     1     -19.987  36.184   6.421  0.00  0.00    +0.000 A 
ATOM     15  C   UNL     1     -20.558  29.334   8.949  0.00  0.00    +0.000 C 
ATOM     16  C   UNL     1     -18.687  36.301   6.901  0.00  0.00    +0.000 A 
ATOM     17  C   UNL     1     -18.163  35.321   7.735  0.00  0.00    +0.000 A 
ENDROOT
BRANCH  13  18
ATOM     18  O   UNL     1     -18.402  33.271   8.910  0.00  0.00    +0.000 OA
ATOM     19  H   UNL     1     -17.435  33.259   8.793  0.00  0.00    +0.000 HD
ENDBRANCH  13  18
BRANCH  16  20
ATOM     20  C   UNL     1     -17.897  37.431   6.546  0.00  0.00    +0.000 C 
ATOM     21  C   UNL     1     -17.035  38.641   6.165  0.00  0.00    +0.000 C 
BRANCH  21  22
ATOM     22  C   UNL     1     -16.166  39.842   5.782  0.00  0.00    +0.000 C 
ATOM     23  C   UNL     1     -15.296  41.042   5.394  0.00  0.00    +0.000 C 
ATOM     24  C   UNL     1     -14.429  42.243   5.004  0.00  0.00    +0.000 C 
ENDBRANCH  21  22
ENDBRANCH  16  20
TORSDOF 3
ENDMDL
MODEL 3
REMARK VINA RESULT:      -5.7     23.611     26.241
REMARK  Name = Dronabinol.pdbqt.pdb
REMARK  3 active torsions:
REMARK  status: ('A' for Active; 'I' for Inactive)
REMARK    1  A    between atoms: C_13  and  O_18
REMARK    2  A    between atoms: C_16  and  C_20
REMARK    3  A    between atoms: C_21  and  C_22
REMARK                            x       y       z     vdW  Elec       q    Type
REMARK                         _______ _______ _______ _____ _____    ______ ____
ROOT
ATOM      1  O   UNL     1     -20.915  38.871   6.312  0.00  0.00    +0.000 OA
ATOM      2  C   UNL     1     -19.462  40.694   5.511  0.00  0.00    +0.000 A 
ATOM      3  C   UNL     1     -18.298  39.875   5.928  0.00  0.00    +0.000 A 
ATOM      4  C   UNL     1     -20.798  40.006   5.422  0.00  0.00    +0.000 C 
ATOM      5  C   UNL     1     -19.080  41.996   5.030  0.00  0.00    +0.000 A 
ATOM      6  C   UNL     1     -18.490  38.492   6.358  0.00  0.00    +0.000 A 
ATOM      7  C   UNL     1     -17.633  42.521   4.985  0.00  0.00    +0.000 A 
ATOM      8  C   UNL     1     -17.041  40.583   5.807  0.00  0.00    +0.000 A 
ATOM      9  C   UNL     1     -16.524  41.728   5.430  0.00  0.00    +0.000 A 
ATOM     10  C   UNL     1     -19.818  38.071   6.522  0.00  0.00    +0.000 A 
ATOM     11  C   UNL     1     -21.915  40.999   5.847  0.00  0.00    +0.000 C 
ATOM     12  C   UNL     1     -21.035  39.519   3.963  0.00  0.00    +0.000 C 
ATOM     13  C   UNL     1     -17.464  37.579   6.632  0.00  0.00    +0.000 A 
ATOM     14  C   UNL     1     -20.104  36.785   6.982  0.00  0.00    +0.000 A 
ATOM     15  C   UNL     1     -15.413  42.355   6.212  0.00  0.00    +0.000 C 
ATOM     16  C   UNL     1     -19.072  35.892   7.249  0.00  0.00    +0.000 A 
ATOM     17  C   UNL     1     -17.751  36.286   7.072  0.00  0.00    +0.000 A 
ENDROOT
BRANCH  13  18
ATOM     18  O   UNL     1     -16.155  37.935   6.465  0.00  0.00    +0.000 OA
ATOM     19  H   UNL     1     -16.091  38.601   5.756  0.00  0.00    +0.000 HD
ENDBRANCH  13  18
BRANCH  16  20
ATOM     20  C   UNL     1     -19.370  34.572   7.692  0.00  0.00    +0.000 C 
ATOM     21  C   UNL     1     -19.701  33.151   8.161  0.00  0.00    +0.000 C 
BRANCH  21  22
ATOM     22  C   UNL     1     -20.039  31.730   8.621  0.00  0.00    +0.000 C 
ATOM     23  C   UNL     1     -20.380  30.310   9.085  0.00  0.00    +0.000 C 
ATOM     24  C   UNL     1     -20.724  28.891   9.549  0.00  0.00    +0.000 C 
ENDBRANCH  21  22
ENDBRANCH  16  20
TORSDOF 3
ENDMDL
MODEL 4
REMARK VINA RESULT:      -5.7     14.951     19.478
REMARK  Name = Dronabinol.pdbqt.pdb
REMARK  3 active torsions:
REMARK  status: ('A' for Active; 'I' for Inactive)
REMARK    1  A    between atoms: C_13  and  O_18
REMARK    2  A    between atoms: C_16  and  C_20
REMARK    3  A    between atoms: C_21  and  C_22
REMARK                            x       y       z     vdW  Elec       q    Type
REMARK                         _______ _______ _______ _____ _____    ______ ____
ROOT
ATOM      1  O   UNL     1       6.017  54.139  17.417  0.00  0.00    +0.000 OA
ATOM      2  C   UNL     1       4.091  55.375  18.332  0.00  0.00    +0.000 A 
ATOM      3  C   UNL     1       5.000  55.913  19.374  0.00  0.00    +0.000 A 
ATOM      4  C   UNL     1       4.720  54.714  17.135  0.00  0.00    +0.000 C 
ATOM      5  C   UNL     1       2.723  55.778  18.530  0.00  0.00    +0.000 A 
ATOM      6  C   UNL     1       6.440  55.680  19.281  0.00  0.00    +0.000 A 
ATOM      7  C   UNL     1       2.226  56.635  19.709  0.00  0.00    +0.000 A 
ATOM      8  C   UNL     1       4.305  56.681  20.384  0.00  0.00    +0.000 A 
ATOM      9  C   UNL     1       3.116  57.114  20.728  0.00  0.00    +0.000 A 
ATOM     10  C   UNL     1       6.862  54.789  18.283  0.00  0.00    +0.000 A 
ATOM     11  C   UNL     1       3.822  53.536  16.669  0.00  0.00    +0.000 C 
ATOM     12  C   UNL     1       4.879  55.758  15.990  0.00  0.00    +0.000 C 
ATOM     13  C   UNL     1       7.408  56.256  20.114  0.00  0.00    +0.000 A 
ATOM     14  C   UNL     1       8.212  54.460  18.150  0.00  0.00    +0.000 A 
ATOM     15  C   UNL     1       2.690  57.113  22.162  0.00  0.00    +0.000 C 
ATOM     16  C   UNL     1       9.159  55.042  18.986  0.00  0.00    +0.000 A 
ATOM     17  C   UNL     1       8.761  55.942  19.967  0.00  0.00    +0.000 A 
ENDROOT
BRANCH  13  18
ATOM     18  O   UNL     1       7.047  57.146  21.085  0.00  0.00    +0.000 OA
ATOM     19  H   UNL     1       7.136  56.723  21.958  0.00  0.00    +0.000 HD
ENDBRANCH  13  18
BRANCH  16  20
ATOM     20  C   UNL     1      10.538  54.723  18.829  0.00  0.00    +0.000 C 
ATOM     21  C   UNL     1      12.019  54.368  18.655  0.00  0.00    +0.000 C 
BRANCH  21  22
ATOM     22  C   UNL     1      13.496  54.005  18.475  0.00  0.00    +0.000 C 
ATOM     23  C   UNL     1      14.973  53.637  18.297  0.00  0.00    +0.000 C 
ATOM     24  C   UNL     1      16.449  53.267  18.117  0.00  0.00    +0.000 C 
ENDBRANCH  21  22
ENDBRANCH  16  20
TORSDOF 3
ENDMDL
MODEL 5
REMARK VINA RESULT:      -5.5      4.039      7.348
REMARK  Name = Dronabinol.pdbqt.pdb
REMARK  3 active torsions:
REMARK  status: ('A' for Active; 'I' for Inactive)
REMARK    1  A    between atoms: C_13  and  O_18
REMARK    2  A    between atoms: C_16  and  C_20
REMARK    3  A    between atoms: C_21  and  C_22
REMARK                            x       y       z     vdW  Elec       q    Type
REMARK                         _______ _______ _______ _____ _____    ______ ____
ROOT
ATOM      1  O   UNL     1      -0.522  49.927  29.011  0.00  0.00    +0.000 OA
ATOM      2  C   UNL     1       1.812  49.248  29.418  0.00  0.00    +0.000 A 
ATOM      3  C   UNL     1       1.457  47.908  28.889  0.00  0.00    +0.000 A 
ATOM      4  C   UNL     1       0.846  50.373  29.163  0.00  0.00    +0.000 C 
ATOM      5  C   UNL     1       3.164  49.309  29.910  0.00  0.00    +0.000 A 
ATOM      6  C   UNL     1       0.155  47.688  28.265  0.00  0.00    +0.000 A 
ATOM      7  C   UNL     1       4.139  48.117  29.937  0.00  0.00    +0.000 A 
ATOM      8  C   UNL     1       2.530  46.947  29.030  0.00  0.00    +0.000 A 
ATOM      9  C   UNL     1       3.763  46.818  29.456  0.00  0.00    +0.000 A 
ATOM     10  C   UNL     1      -0.769  48.739  28.368  0.00  0.00    +0.000 A 
ATOM     11  C   UNL     1       0.848  51.337  30.382  0.00  0.00    +0.000 C 
ATOM     12  C   UNL     1       1.264  51.135  27.871  0.00  0.00    +0.000 C 
ATOM     13  C   UNL     1      -0.237  46.518  27.601  0.00  0.00    +0.000 A 
ATOM     14  C   UNL     1      -2.059  48.603  27.851  0.00  0.00    +0.000 A 
ATOM     15  C   UNL     1       4.191  45.589  30.193  0.00  0.00    +0.000 C 
ATOM     16  C   UNL     1      -2.431  47.435  27.196  0.00  0.00    +0.000 A 
ATOM     17  C   UNL     1      -1.521  46.392  27.067  0.00  0.00    +0.000 A 
ENDROOT
BRANCH  13  18
ATOM     18  O   UNL     1       0.635  45.477  27.456  0.00  0.00    +0.000 OA
ATOM     19  H   UNL     1       1.157  45.606  26.643  0.00  0.00    +0.000 HD
ENDBRANCH  13  18
BRANCH  16  20
ATOM     20  C   UNL     1      -3.739  47.312  26.647  0.00  0.00    +0.000 C 
ATOM     21  C   UNL     1      -5.152  47.188  26.066  0.00  0.00    +0.000 C 
BRANCH  21  22
ATOM     22  C   UNL     1      -6.566  47.073  25.491  0.00  0.00    +0.000 C 
ATOM     23  C   UNL     1      -7.983  46.962  24.919  0.00  0.00    +0.000 C 
ATOM     24  C   UNL     1      -9.400  46.853  24.345  0.00  0.00    +0.000 C 
ENDBRANCH  21  22
ENDBRANCH  16  20
TORSDOF 3
ENDMDL
MODEL 6
REMARK VINA RESULT:      -5.5     24.677     26.869
REMARK  Name = Dronabinol.pdbqt.pdb
REMARK  3 active torsions:
REMARK  status: ('A' for Active; 'I' for Inactive)
REMARK    1  A    between atoms: C_13  and  O_18
REMARK    2  A    between atoms: C_16  and  C_20
REMARK    3  A    between atoms: C_21  and  C_22
REMARK                            x       y       z     vdW  Elec       q    Type
REMARK                         _______ _______ _______ _____ _____    ______ ____
ROOT
ATOM      1  O   UNL     1     -18.979  41.767   2.977  0.00  0.00    +0.000 OA
ATOM      2  C   UNL     1     -18.719  40.148   4.817  0.00  0.00    +0.000 A 
ATOM      3  C   UNL     1     -17.258  40.400   4.760  0.00  0.00    +0.000 A 
ATOM      4  C   UNL     1     -19.620  41.117   4.099  0.00  0.00    +0.000 C 
ATOM      5  C   UNL     1     -19.067  39.116   5.758  0.00  0.00    +0.000 A 
ATOM      6  C   UNL     1     -16.732  41.477   3.925  0.00  0.00    +0.000 A 
ATOM      7  C   UNL     1     -18.050  38.316   6.594  0.00  0.00    +0.000 A 
ATOM      8  C   UNL     1     -16.503  39.520   5.626  0.00  0.00    +0.000 A 
ATOM      9  C   UNL     1     -16.637  38.549   6.496  0.00  0.00    +0.000 A 
ATOM     10  C   UNL     1     -17.651  42.106   3.070  0.00  0.00    +0.000 A 
ATOM     11  C   UNL     1     -20.835  40.349   3.512  0.00  0.00    +0.000 C 
ATOM     12  C   UNL     1     -20.103  42.212   5.096  0.00  0.00    +0.000 C 
ATOM     13  C   UNL     1     -15.399  41.906   3.901  0.00  0.00    +0.000 A 
ATOM     14  C   UNL     1     -17.234  43.109   2.194  0.00  0.00    +0.000 A 
ATOM     15  C   UNL     1     -15.681  37.398   6.508  0.00  0.00    +0.000 C 
ATOM     16  C   UNL     1     -15.906  43.522   2.185  0.00  0.00    +0.000 A 
ATOM     17  C   UNL     1     -14.987  42.924   3.039  0.00  0.00    +0.000 A 
ENDROOT
BRANCH  13  18
ATOM     18  O   UNL     1     -14.473  41.340   4.731  0.00  0.00    +0.000 OA
ATOM     19  H   UNL     1     -14.675  40.393   4.839  0.00  0.00    +0.000 HD
ENDBRANCH  13  18
BRANCH  16  20
ATOM     20  C   UNL     1     -15.491  44.564   1.308  0.00  0.00    +0.000 C 
ATOM     21  C   UNL     1     -15.056  45.685   0.357  0.00  0.00    +0.000 C 
BRANCH  21  22
ATOM     22  C   UNL     1     -14.631  46.806  -0.595  0.00  0.00    +0.000 C 
ATOM     23  C   UNL     1     -14.211  47.930  -1.549  0.00  0.00    +0.000 C 
ATOM     24  C   UNL     1     -13.792  49.055  -2.500  0.00  0.00    +0.000 C 
ENDBRANCH  21  22
ENDBRANCH  16  20
TORSDOF 3
ENDMDL
MODEL 7
REMARK VINA RESULT:      -5.5     21.726     24.316
REMARK  Name = Dronabinol.pdbqt.pdb
REMARK  3 active torsions:
REMARK  status: ('A' for Active; 'I' for Inactive)
REMARK    1  A    between atoms: C_13  and  O_18
REMARK    2  A    between atoms: C_16  and  C_20
REMARK    3  A    between atoms: C_21  and  C_22
REMARK                            x       y       z     vdW  Elec       q    Type
REMARK                         _______ _______ _______ _____ _____    ______ ____
ROOT
ATOM      1  O   UNL     1      -2.793  25.705  16.814  0.00  0.00    +0.000 OA
ATOM      2  C   UNL     1      -3.107  26.229  19.202  0.00  0.00    +0.000 A 
ATOM      3  C   UNL     1      -1.974  27.180  19.086  0.00  0.00    +0.000 A 
ATOM      4  C   UNL     1      -3.720  25.720  17.925  0.00  0.00    +0.000 C 
ATOM      5  C   UNL     1      -3.596  26.112  20.551  0.00  0.00    +0.000 A 
ATOM      6  C   UNL     1      -1.410  27.492  17.775  0.00  0.00    +0.000 A 
ATOM      7  C   UNL     1      -2.999  26.850  21.764  0.00  0.00    +0.000 A 
ATOM      8  C   UNL     1      -1.580  27.743  20.360  0.00  0.00    +0.000 A 
ATOM      9  C   UNL     1      -1.878  27.736  21.637  0.00  0.00    +0.000 A 
ATOM     10  C   UNL     1      -1.871  26.716  16.700  0.00  0.00    +0.000 A 
ATOM     11  C   UNL     1      -4.172  24.247  18.125  0.00  0.00    +0.000 C 
ATOM     12  C   UNL     1      -4.937  26.612  17.543  0.00  0.00    +0.000 C 
ATOM     13  C   UNL     1      -0.447  28.477  17.521  0.00  0.00    +0.000 A 
ATOM     14  C   UNL     1      -1.352  26.902  15.417  0.00  0.00    +0.000 A 
ATOM     15  C   UNL     1      -0.797  27.739  22.671  0.00  0.00    +0.000 C 
ATOM     16  C   UNL     1      -0.396  27.884  15.184  0.00  0.00    +0.000 A 
ATOM     17  C   UNL     1       0.056  28.675  16.234  0.00  0.00    +0.000 A 
ENDROOT
BRANCH  13  18
ATOM     18  O   UNL     1       0.015  29.272  18.531  0.00  0.00    +0.000 OA
ATOM     19  H   UNL     1       0.337  28.711  19.260  0.00  0.00    +0.000 HD
ENDBRANCH  13  18
BRANCH  16  20
ATOM     20  C   UNL     1       0.110  28.087  13.869  0.00  0.00    +0.000 C 
ATOM     21  C   UNL     1       0.655  28.292  12.451  0.00  0.00    +0.000 C 
BRANCH  21  22
ATOM     22  C   UNL     1       1.197  28.486  11.032  0.00  0.00    +0.000 C 
ATOM     23  C   UNL     1       1.741  28.676   9.612  0.00  0.00    +0.000 C 
ATOM     24  C   UNL     1       2.283  28.864   8.192  0.00  0.00    +0.000 C 
ENDBRANCH  21  22
ENDBRANCH  16  20
TORSDOF 3
ENDMDL
MODEL 8
REMARK VINA RESULT:      -5.4     15.094     17.315
REMARK  Name = Dronabinol.pdbqt.pdb
REMARK  3 active torsions:
REMARK  status: ('A' for Active; 'I' for Inactive)
REMARK    1  A    between atoms: C_13  and  O_18
REMARK    2  A    between atoms: C_16  and  C_20
REMARK    3  A    between atoms: C_21  and  C_22
REMARK                            x       y       z     vdW  Elec       q    Type
REMARK                         _______ _______ _______ _____ _____    ______ ____
ROOT
ATOM      1  O   UNL     1       3.069  54.242  17.813  0.00  0.00    +0.000 OA
ATOM      2  C   UNL     1       3.339  54.505  15.377  0.00  0.00    +0.000 A 
ATOM      3  C   UNL     1       3.699  55.923  15.625  0.00  0.00    +0.000 A 
ATOM      4  C   UNL     1       3.336  53.573  16.559  0.00  0.00    +0.000 C 
ATOM      5  C   UNL     1       3.264  54.190  13.975  0.00  0.00    +0.000 A 
ATOM      6  C   UNL     1       3.908  56.398  16.991  0.00  0.00    +0.000 A 
ATOM      7  C   UNL     1       3.485  55.205  12.838  0.00  0.00    +0.000 A 
ATOM      8  C   UNL     1       3.846  56.687  14.405  0.00  0.00    +0.000 A 
ATOM      9  C   UNL     1       3.794  56.582  13.099  0.00  0.00    +0.000 A 
ATOM     10  C   UNL     1       3.574  55.503  18.019  0.00  0.00    +0.000 A 
ATOM     11  C   UNL     1       2.203  52.526  16.382  0.00  0.00    +0.000 C 
ATOM     12  C   UNL     1       4.718  52.862  16.662  0.00  0.00    +0.000 C 
ATOM     13  C   UNL     1       4.391  57.665  17.342  0.00  0.00    +0.000 A 
ATOM     14  C   UNL     1       3.688  55.883  19.357  0.00  0.00    +0.000 A 
ATOM     15  C   UNL     1       3.175  57.664  12.271  0.00  0.00    +0.000 C 
ATOM     16  C   UNL     1       4.169  57.146  19.686  0.00  0.00    +0.000 A 
ATOM     17  C   UNL     1       4.524  58.038  18.681  0.00  0.00    +0.000 A 
ENDROOT
BRANCH  13  18
ATOM     18  O   UNL     1       4.752  58.562  16.377  0.00  0.00    +0.000 OA
ATOM     19  H   UNL     1       3.989  59.129  16.164  0.00  0.00    +0.000 HD
ENDBRANCH  13  18
BRANCH  16  20
ATOM     20  C   UNL     1       4.308  57.520  21.053  0.00  0.00    +0.000 C 
ATOM     21  C   UNL     1       4.454  57.910  22.528  0.00  0.00    +0.000 C 
BRANCH  21  22
ATOM     22  C   UNL     1       4.599  58.289  24.005  0.00  0.00    +0.000 C 
ATOM     23  C   UNL     1       4.745  58.663  25.483  0.00  0.00    +0.000 C 
ATOM     24  C   UNL     1       4.893  59.036  26.962  0.00  0.00    +0.000 C 
ENDBRANCH  21  22
ENDBRANCH  16  20
TORSDOF 3
ENDMDL
MODEL 9
REMARK VINA RESULT:      -5.3     10.691     13.238
REMARK  Name = Dronabinol.pdbqt.pdb
REMARK  3 active torsions:
REMARK  status: ('A' for Active; 'I' for Inactive)
REMARK    1  A    between atoms: C_13  and  O_18
REMARK    2  A    between atoms: C_16  and  C_20
REMARK    3  A    between atoms: C_21  and  C_22
REMARK                            x       y       z     vdW  Elec       q    Type
REMARK                         _______ _______ _______ _____ _____    ______ ____
ROOT
ATOM      1  O   UNL     1      -1.323  37.931  33.838  0.00  0.00    +0.000 OA
ATOM      2  C   UNL     1      -0.185  40.106  33.617  0.00  0.00    +0.000 A 
ATOM      3  C   UNL     1      -1.382  40.733  34.231  0.00  0.00    +0.000 A 
ATOM      4  C   UNL     1      -0.051  38.611  33.727  0.00  0.00    +0.000 C 
ATOM      5  C   UNL     1       0.793  41.075  33.197  0.00  0.00    +0.000 A 
ATOM      6  C   UNL     1      -2.438  39.897  34.797  0.00  0.00    +0.000 A 
ATOM      7  C   UNL     1       0.621  42.601  33.319  0.00  0.00    +0.000 A 
ATOM      8  C   UNL     1      -1.323  42.179  34.226  0.00  0.00    +0.000 A 
ATOM      9  C   UNL     1      -0.561  43.188  33.881  0.00  0.00    +0.000 A 
ATOM     10  C   UNL     1      -2.333  38.518  34.560  0.00  0.00    +0.000 A 
ATOM     11  C   UNL     1       0.618  38.061  32.437  0.00  0.00    +0.000 C 
ATOM     12  C   UNL     1       0.811  38.258  34.975  0.00  0.00    +0.000 C 
ATOM     13  C   UNL     1      -3.536  40.365  35.530  0.00  0.00    +0.000 A 
ATOM     14  C   UNL     1      -3.321  37.642  35.014  0.00  0.00    +0.000 A 
ATOM     15  C   UNL     1      -1.156  44.417  33.269  0.00  0.00    +0.000 C 
ATOM     16  C   UNL     1      -4.405  38.126  35.739  0.00  0.00    +0.000 A 
ATOM     17  C   UNL     1      -4.513  39.486  36.001  0.00  0.00    +0.000 A 
ENDROOT
BRANCH  13  18
ATOM     18  O   UNL     1      -3.669  41.697  35.806  0.00  0.00    +0.000 OA
ATOM     19  H   UNL     1      -3.828  42.183  34.976  0.00  0.00    +0.000 HD
ENDBRANCH  13  18
BRANCH  16  20
ATOM     20  C   UNL     1      -5.396  37.226  36.222  0.00  0.00    +0.000 C 
ATOM     21  C   UNL     1      -6.466  36.252  36.730  0.00  0.00    +0.000 C 
BRANCH  21  22
ATOM     22  C   UNL     1      -7.534  35.274  37.228  0.00  0.00    +0.000 C 
ATOM     23  C   UNL     1      -8.599  34.292  37.726  0.00  0.00    +0.000 C 
ATOM     24  C   UNL     1      -9.663  33.308  38.225  0.00  0.00    +0.000 C 
ENDBRANCH  21  22
ENDBRANCH  16  20
TORSDOF 3
ENDMDL
