MODEL 1
REMARK VINA RESULT:      -7.0      0.000      0.000
REMARK  Name = Ellipticine.pdbqt.pdb
REMARK  0 active torsions:
REMARK  status: ('A' for Active; 'I' for Inactive)
REMARK                            x       y       z     vdW  Elec       q    Type
REMARK                         _______ _______ _______ _____ _____    ______ ____
ROOT
ATOM      1  N   UNL     1     -18.563  41.119   5.775  0.00  0.00    +0.000 N 
ATOM      2  N   UNL     1     -18.173  34.926   7.426  0.00  0.00    +0.000 NA
ATOM      3  C   UNL     1     -17.064  39.474   6.026  0.00  0.00    +0.000 A 
ATOM      4  C   UNL     1     -18.422  39.792   6.122  0.00  0.00    +0.000 A 
ATOM      5  C   UNL     1     -16.658  38.150   6.336  0.00  0.00    +0.000 A 
ATOM      6  C   UNL     1     -16.389  40.674   5.606  0.00  0.00    +0.000 A 
ATOM      7  C   UNL     1     -19.399  38.861   6.509  0.00  0.00    +0.000 A 
ATOM      8  C   UNL     1     -18.994  37.548   6.816  0.00  0.00    +0.000 A 
ATOM      9  C   UNL     1     -17.629  37.199   6.728  0.00  0.00    +0.000 A 
ATOM     10  C   UNL     1     -17.349  41.673   5.460  0.00  0.00    +0.000 A 
ATOM     11  C   UNL     1     -15.196  37.772   6.243  0.00  0.00    +0.000 C 
ATOM     12  C   UNL     1     -15.044  40.998   5.336  0.00  0.00    +0.000 A 
ATOM     13  C   UNL     1     -20.838  39.313   6.578  0.00  0.00    +0.000 C 
ATOM     14  C   UNL     1     -17.040  42.978   5.060  0.00  0.00    +0.000 A 
ATOM     15  C   UNL     1     -19.914  36.565   7.210  0.00  0.00    +0.000 A 
ATOM     16  C   UNL     1     -17.297  35.882   7.046  0.00  0.00    +0.000 A 
ATOM     17  C   UNL     1     -14.714  42.295   4.935  0.00  0.00    +0.000 A 
ATOM     18  C   UNL     1     -15.699  43.265   4.800  0.00  0.00    +0.000 A 
ATOM     19  C   UNL     1     -19.465  35.289   7.500  0.00  0.00    +0.000 A 
ATOM     20  H   UNL     1     -19.450  41.610   5.760  0.00  0.00    +0.000 HD
ENDROOT
TORSDOF 0
ENDMDL
MODEL 2
REMARK VINA RESULT:      -6.9     24.248     25.470
REMARK  Name = Ellipticine.pdbqt.pdb
REMARK  0 active torsions:
REMARK  status: ('A' for Active; 'I' for Inactive)
REMARK                            x       y       z     vdW  Elec       q    Type
REMARK                         _______ _______ _______ _____ _____    ______ ____
ROOT
ATOM      1  N   UNL     1      -6.589  46.484  25.011  0.00  0.00    +0.000 N 
ATOM      2  N   UNL     1      -1.033  48.036  27.831  0.00  0.00    +0.000 NA
ATOM      3  C   UNL     1      -5.588  48.185  26.071  0.00  0.00    +0.000 A 
ATOM      4  C   UNL     1      -5.417  46.870  25.628  0.00  0.00    +0.000 A 
ATOM      5  C   UNL     1      -4.510  48.814  26.745  0.00  0.00    +0.000 A 
ATOM      6  C   UNL     1      -6.920  48.577  25.691  0.00  0.00    +0.000 A 
ATOM      7  C   UNL     1      -4.229  46.147  25.822  0.00  0.00    +0.000 A 
ATOM      8  C   UNL     1      -3.161  46.774  26.491  0.00  0.00    +0.000 A 
ATOM      9  C   UNL     1      -3.306  48.101  26.949  0.00  0.00    +0.000 A 
ATOM     10  C   UNL     1      -7.511  47.498  25.037  0.00  0.00    +0.000 A 
ATOM     11  C   UNL     1      -4.661  50.237  27.237  0.00  0.00    +0.000 C 
ATOM     12  C   UNL     1      -7.676  49.756  25.847  0.00  0.00    +0.000 A 
ATOM     13  C   UNL     1      -4.154  44.731  25.302  0.00  0.00    +0.000 C 
ATOM     14  C   UNL     1      -8.815  47.532  24.530  0.00  0.00    +0.000 A 
ATOM     15  C   UNL     1      -1.945  46.113  26.720  0.00  0.00    +0.000 A 
ATOM     16  C   UNL     1      -2.209  48.661  27.604  0.00  0.00    +0.000 A 
ATOM     17  C   UNL     1      -8.980  49.811  25.349  0.00  0.00    +0.000 A 
ATOM     18  C   UNL     1      -9.536  48.715  24.701  0.00  0.00    +0.000 A 
ATOM     19  C   UNL     1      -0.926  46.773  27.383  0.00  0.00    +0.000 A 
ATOM     20  H   UNL     1      -6.738  45.571  24.597  0.00  0.00    +0.000 HD
ENDROOT
TORSDOF 0
ENDMDL
MODEL 3
REMARK VINA RESULT:      -6.8      1.181      2.846
REMARK  Name = Ellipticine.pdbqt.pdb
REMARK  0 active torsions:
REMARK  status: ('A' for Active; 'I' for Inactive)
REMARK                            x       y       z     vdW  Elec       q    Type
REMARK                         _______ _______ _______ _____ _____    ______ ____
ROOT
ATOM      1  N   UNL     1     -15.246  40.055   5.257  0.00  0.00    +0.000 N 
ATOM      2  N   UNL     1     -19.828  36.165   7.516  0.00  0.00    +0.000 NA
ATOM      3  C   UNL     1     -17.433  40.036   5.740  0.00  0.00    +0.000 A 
ATOM      4  C   UNL     1     -16.268  39.262   5.736  0.00  0.00    +0.000 A 
ATOM      5  C   UNL     1     -18.636  39.438   6.196  0.00  0.00    +0.000 A 
ATOM      6  C   UNL     1     -17.066  41.334   5.239  0.00  0.00    +0.000 A 
ATOM      7  C   UNL     1     -16.237  37.925   6.163  0.00  0.00    +0.000 A 
ATOM      8  C   UNL     1     -17.433  37.335   6.614  0.00  0.00    +0.000 A 
ATOM      9  C   UNL     1     -18.624  38.092   6.629  0.00  0.00    +0.000 A 
ATOM     10  C   UNL     1     -15.704  41.310   4.950  0.00  0.00    +0.000 A 
ATOM     11  C   UNL     1     -19.916  40.246   6.213  0.00  0.00    +0.000 C 
ATOM     12  C   UNL     1     -17.775  42.530   5.006  0.00  0.00    +0.000 A 
ATOM     13  C   UNL     1     -14.922  37.184   6.116  0.00  0.00    +0.000 C 
ATOM     14  C   UNL     1     -15.010  42.414   4.441  0.00  0.00    +0.000 A 
ATOM     15  C   UNL     1     -17.478  36.004   7.056  0.00  0.00    +0.000 A 
ATOM     16  C   UNL     1     -19.772  37.445   7.089  0.00  0.00    +0.000 A 
ATOM     17  C   UNL     1     -17.102  43.644   4.499  0.00  0.00    +0.000 A 
ATOM     18  C   UNL     1     -15.742  43.582   4.222  0.00  0.00    +0.000 A 
ATOM     19  C   UNL     1     -18.678  35.471   7.490  0.00  0.00    +0.000 A 
ATOM     20  H   UNL     1     -14.288  39.741   5.150  0.00  0.00    +0.000 HD
ENDROOT
TORSDOF 0
ENDMDL
MODEL 4
REMARK VINA RESULT:      -6.5      1.390      5.560
REMARK  Name = Ellipticine.pdbqt.pdb
REMARK  0 active torsions:
REMARK  status: ('A' for Active; 'I' for Inactive)
REMARK                            x       y       z     vdW  Elec       q    Type
REMARK                         _______ _______ _______ _____ _____    ______ ____
ROOT
ATOM      1  N   UNL     1     -19.781  38.449   6.502  0.00  0.00    +0.000 N 
ATOM      2  N   UNL     1     -14.824  42.278   5.087  0.00  0.00    +0.000 NA
ATOM      3  C   UNL     1     -17.547  38.419   6.339  0.00  0.00    +0.000 A 
ATOM      4  C   UNL     1     -18.681  39.227   6.207  0.00  0.00    +0.000 A 
ATOM      5  C   UNL     1     -16.276  38.996   6.086  0.00  0.00    +0.000 A 
ATOM      6  C   UNL     1     -18.015  37.115   6.727  0.00  0.00    +0.000 A 
ATOM      7  C   UNL     1     -18.616  40.579   5.837  0.00  0.00    +0.000 A 
ATOM      8  C   UNL     1     -17.353  41.149   5.586  0.00  0.00    +0.000 A 
ATOM      9  C   UNL     1     -16.192  40.358   5.711  0.00  0.00    +0.000 A 
ATOM     10  C   UNL     1     -19.404  37.170   6.819  0.00  0.00    +0.000 A 
ATOM     11  C   UNL     1     -15.028  38.150   6.219  0.00  0.00    +0.000 C 
ATOM     12  C   UNL     1     -17.377  35.890   7.010  0.00  0.00    +0.000 A 
ATOM     13  C   UNL     1     -19.905  41.359   5.725  0.00  0.00    +0.000 C 
ATOM     14  C   UNL     1     -20.191  36.070   7.177  0.00  0.00    +0.000 A 
ATOM     15  C   UNL     1     -17.212  42.494   5.212  0.00  0.00    +0.000 A 
ATOM     16  C   UNL     1     -14.974  40.985   5.448  0.00  0.00    +0.000 A 
ATOM     17  C   UNL     1     -18.144  34.779   7.369  0.00  0.00    +0.000 A 
ATOM     18  C   UNL     1     -19.528  34.872   7.450  0.00  0.00    +0.000 A 
ATOM     19  C   UNL     1     -15.949  43.006   4.977  0.00  0.00    +0.000 A 
ATOM     20  H   UNL     1     -20.736  38.788   6.484  0.00  0.00    +0.000 HD
ENDROOT
TORSDOF 0
ENDMDL
MODEL 5
REMARK VINA RESULT:      -6.4      1.277      6.163
REMARK  Name = Ellipticine.pdbqt.pdb
REMARK  0 active torsions:
REMARK  status: ('A' for Active; 'I' for Inactive)
REMARK                            x       y       z     vdW  Elec       q    Type
REMARK                         _______ _______ _______ _____ _____    ______ ____
ROOT
ATOM      1  N   UNL     1     -17.549  36.946   6.719  0.00  0.00    +0.000 N 
ATOM      2  N   UNL     1     -16.070  42.966   5.043  0.00  0.00    +0.000 NA
ATOM      3  C   UNL     1     -18.513  38.922   6.289  0.00  0.00    +0.000 A 
ATOM      4  C   UNL     1     -17.287  38.252   6.360  0.00  0.00    +0.000 A 
ATOM      5  C   UNL     1     -18.510  40.296   5.934  0.00  0.00    +0.000 A 
ATOM      6  C   UNL     1     -19.528  37.958   6.622  0.00  0.00    +0.000 A 
ATOM      7  C   UNL     1     -16.059  38.878   6.097  0.00  0.00    +0.000 A 
ATOM      8  C   UNL     1     -16.059  40.241   5.745  0.00  0.00    +0.000 A 
ATOM      9  C   UNL     1     -17.281  40.943   5.666  0.00  0.00    +0.000 A 
ATOM     10  C   UNL     1     -18.895  36.745   6.883  0.00  0.00    +0.000 A 
ATOM     11  C   UNL     1     -19.818  41.052   5.848  0.00  0.00    +0.000 C 
ATOM     12  C   UNL     1     -20.933  38.012   6.725  0.00  0.00    +0.000 A 
ATOM     13  C   UNL     1     -14.795  38.058   6.204  0.00  0.00    +0.000 C 
ATOM     14  C   UNL     1     -19.587  35.582   7.240  0.00  0.00    +0.000 A 
ATOM     15  C   UNL     1     -14.869  40.932   5.468  0.00  0.00    +0.000 A 
ATOM     16  C   UNL     1     -17.208  42.290   5.312  0.00  0.00    +0.000 A 
ATOM     17  C   UNL     1     -21.643  36.862   7.080  0.00  0.00    +0.000 A 
ATOM     18  C   UNL     1     -20.977  35.670   7.333  0.00  0.00    +0.000 A 
ATOM     19  C   UNL     1     -14.923  42.271   5.127  0.00  0.00    +0.000 A 
ATOM     20  H   UNL     1     -16.834  36.238   6.842  0.00  0.00    +0.000 HD
ENDROOT
TORSDOF 0
ENDMDL
MODEL 6
REMARK VINA RESULT:      -6.4     28.879     31.812
REMARK  Name = Ellipticine.pdbqt.pdb
REMARK  0 active torsions:
REMARK  status: ('A' for Active; 'I' for Inactive)
REMARK                            x       y       z     vdW  Elec       q    Type
REMARK                         _______ _______ _______ _____ _____    ______ ____
ROOT
ATOM      1  N   UNL     1       8.384  54.263  17.915  0.00  0.00    +0.000 N 
ATOM      2  N   UNL     1       2.225  56.066  17.698  0.00  0.00    +0.000 NA
ATOM      3  C   UNL     1       6.877  55.459  19.063  0.00  0.00    +0.000 A 
ATOM      4  C   UNL     1       7.069  54.679  17.918  0.00  0.00    +0.000 A 
ATOM      5  C   UNL     1       5.590  56.009  19.294  0.00  0.00    +0.000 A 
ATOM      6  C   UNL     1       8.139  55.494  19.752  0.00  0.00    +0.000 A 
ATOM      7  C   UNL     1       6.047  54.418  16.991  0.00  0.00    +0.000 A 
ATOM      8  C   UNL     1       4.771  54.966  17.224  0.00  0.00    +0.000 A 
ATOM      9  C   UNL     1       4.548  55.757  18.371  0.00  0.00    +0.000 A 
ATOM     10  C   UNL     1       9.050  54.743  19.013  0.00  0.00    +0.000 A 
ATOM     11  C   UNL     1       5.347  56.858  20.524  0.00  0.00    +0.000 C 
ATOM     12  C   UNL     1       8.588  56.101  20.943  0.00  0.00    +0.000 A 
ATOM     13  C   UNL     1       6.366  53.562  15.788  0.00  0.00    +0.000 C 
ATOM     14  C   UNL     1      10.384  54.564  19.396  0.00  0.00    +0.000 A 
ATOM     15  C   UNL     1       3.702  54.748  16.341  0.00  0.00    +0.000 A 
ATOM     16  C   UNL     1       3.261  56.268  18.540  0.00  0.00    +0.000 A 
ATOM     17  C   UNL     1       9.916  55.935  21.344  0.00  0.00    +0.000 A 
ATOM     18  C   UNL     1      10.796  55.179  20.580  0.00  0.00    +0.000 A 
ATOM     19  C   UNL     1       2.468  55.308  16.614  0.00  0.00    +0.000 A 
ATOM     20  H   UNL     1       8.793  53.681  17.193  0.00  0.00    +0.000 HD
ENDROOT
TORSDOF 0
ENDMDL
MODEL 7
REMARK VINA RESULT:      -6.1     26.729     28.178
REMARK  Name = Ellipticine.pdbqt.pdb
REMARK  0 active torsions:
REMARK  status: ('A' for Active; 'I' for Inactive)
REMARK                            x       y       z     vdW  Elec       q    Type
REMARK                         _______ _______ _______ _____ _____    ______ ____
ROOT
ATOM      1  N   UNL     1      -2.896  45.498  27.500  0.00  0.00    +0.000 N 
ATOM      2  N   UNL     1       1.101  50.409  28.564  0.00  0.00    +0.000 NA
ATOM      3  C   UNL     1      -2.759  47.719  27.246  0.00  0.00    +0.000 A 
ATOM      4  C   UNL     1      -2.077  46.588  27.706  0.00  0.00    +0.000 A 
ATOM      5  C   UNL     1      -2.118  48.981  27.350  0.00  0.00    +0.000 A 
ATOM      6  C   UNL     1      -4.030  47.260  26.752  0.00  0.00    +0.000 A 
ATOM      7  C   UNL     1      -0.790  46.647  28.264  0.00  0.00    +0.000 A 
ATOM      8  C   UNL     1      -0.156  47.900  28.366  0.00  0.00    +0.000 A 
ATOM      9  C   UNL     1      -0.821  49.058  27.910  0.00  0.00    +0.000 A 
ATOM     10  C   UNL     1      -4.081  45.879  26.924  0.00  0.00    +0.000 A 
ATOM     11  C   UNL     1      -2.827  50.226  26.862  0.00  0.00    +0.000 C 
ATOM     12  C   UNL     1      -5.143  47.900  26.171  0.00  0.00    +0.000 A 
ATOM     13  C   UNL     1      -0.147  45.362  28.729  0.00  0.00    +0.000 C 
ATOM     14  C   UNL     1      -5.182  45.101  26.550  0.00  0.00    +0.000 A 
ATOM     15  C   UNL     1       1.129  48.034  28.912  0.00  0.00    +0.000 A 
ATOM     16  C   UNL     1      -0.136  50.266  28.040  0.00  0.00    +0.000 A 
ATOM     17  C   UNL     1      -6.253  47.142  25.790  0.00  0.00    +0.000 A 
ATOM     18  C   UNL     1      -6.268  45.766  25.978  0.00  0.00    +0.000 A 
ATOM     19  C   UNL     1       1.708  49.288  28.990  0.00  0.00    +0.000 A 
ATOM     20  H   UNL     1      -2.645  44.546  27.744  0.00  0.00    +0.000 HD
ENDROOT
TORSDOF 0
ENDMDL
MODEL 8
REMARK VINA RESULT:      -5.7      2.286      4.446
REMARK  Name = Ellipticine.pdbqt.pdb
REMARK  0 active torsions:
REMARK  status: ('A' for Active; 'I' for Inactive)
REMARK                            x       y       z     vdW  Elec       q    Type
REMARK                         _______ _______ _______ _____ _____    ______ ____
ROOT
ATOM      1  N   UNL     1     -17.820  43.189   4.567  0.00  0.00    +0.000 N 
ATOM      2  N   UNL     1     -15.867  37.396   6.532  0.00  0.00    +0.000 NA
ATOM      3  C   UNL     1     -18.629  41.192   5.181  0.00  0.00    +0.000 A 
ATOM      4  C   UNL     1     -17.455  41.928   4.992  0.00  0.00    +0.000 A 
ATOM      5  C   UNL     1     -18.519  39.849   5.622  0.00  0.00    +0.000 A 
ATOM      6  C   UNL     1     -19.722  42.069   4.849  0.00  0.00    +0.000 A 
ATOM      7  C   UNL     1     -16.176  41.397   5.220  0.00  0.00    +0.000 A 
ATOM      8  C   UNL     1     -16.069  40.063   5.658  0.00  0.00    +0.000 A 
ATOM      9  C   UNL     1     -17.237  39.296   5.856  0.00  0.00    +0.000 A 
ATOM     10  C   UNL     1     -19.183  43.297   4.473  0.00  0.00    +0.000 A 
ATOM     11  C   UNL     1     -19.769  39.023   5.836  0.00  0.00    +0.000 C 
ATOM     12  C   UNL     1     -21.123  41.924   4.835  0.00  0.00    +0.000 A 
ATOM     13  C   UNL     1     -14.975  42.282   4.985  0.00  0.00    +0.000 C 
ATOM     14  C   UNL     1     -19.967  44.390   4.085  0.00  0.00    +0.000 A 
ATOM     15  C   UNL     1     -14.824  39.465   5.905  0.00  0.00    +0.000 A 
ATOM     16  C   UNL     1     -17.059  37.983   6.290  0.00  0.00    +0.000 A 
ATOM     17  C   UNL     1     -21.925  43.002   4.451  0.00  0.00    +0.000 A 
ATOM     18  C   UNL     1     -21.351  44.213   4.082  0.00  0.00    +0.000 A 
ATOM     19  C   UNL     1     -14.773  38.152   6.334  0.00  0.00    +0.000 A 
ATOM     20  H   UNL     1     -17.159  43.928   4.356  0.00  0.00    +0.000 HD
ENDROOT
TORSDOF 0
ENDMDL
MODEL 9
REMARK VINA RESULT:      -5.7     15.618     17.764
REMARK  Name = Ellipticine.pdbqt.pdb
REMARK  0 active torsions:
REMARK  status: ('A' for Active; 'I' for Inactive)
REMARK                            x       y       z     vdW  Elec       q    Type
REMARK                         _______ _______ _______ _____ _____    ______ ____
ROOT
ATOM      1  N   UNL     1     -26.683  37.167  20.778  0.00  0.00    +0.000 N 
ATOM      2  N   UNL     1     -27.245  43.308  22.566  0.00  0.00    +0.000 NA
ATOM      3  C   UNL     1     -25.556  39.102  20.741  0.00  0.00    +0.000 A 
ATOM      4  C   UNL     1     -26.751  38.496  21.140  0.00  0.00    +0.000 A 
ATOM      5  C   UNL     1     -25.382  40.485  21.005  0.00  0.00    +0.000 A 
ATOM      6  C   UNL     1     -24.762  38.075  20.120  0.00  0.00    +0.000 A 
ATOM      7  C   UNL     1     -27.782  39.194  21.789  0.00  0.00    +0.000 A 
ATOM      8  C   UNL     1     -27.607  40.566  22.050  0.00  0.00    +0.000 A 
ATOM      9  C   UNL     1     -26.410  41.204  21.658  0.00  0.00    +0.000 A 
ATOM     10  C   UNL     1     -25.491  36.889  20.160  0.00  0.00    +0.000 A 
ATOM     11  C   UNL     1     -24.100  41.173  20.587  0.00  0.00    +0.000 C 
ATOM     12  C   UNL     1     -23.484  38.052  19.526  0.00  0.00    +0.000 A 
ATOM     13  C   UNL     1     -29.032  38.438  22.176  0.00  0.00    +0.000 C 
ATOM     14  C   UNL     1     -25.015  35.681  19.640  0.00  0.00    +0.000 A 
ATOM     15  C   UNL     1     -28.594  41.327  22.694  0.00  0.00    +0.000 A 
ATOM     16  C   UNL     1     -26.302  42.564  21.947  0.00  0.00    +0.000 A 
ATOM     17  C   UNL     1     -22.990  36.855  19.000  0.00  0.00    +0.000 A 
ATOM     18  C   UNL     1     -23.746  35.692  19.058  0.00  0.00    +0.000 A 
ATOM     19  C   UNL     1     -28.373  42.672  22.927  0.00  0.00    +0.000 A 
ATOM     20  H   UNL     1     -27.422  36.494  20.950  0.00  0.00    +0.000 HD
ENDROOT
TORSDOF 0
ENDMDL
