MODEL 1
REMARK VINA RESULT:      -6.5      0.000      0.000
REMARK  Name = Enterolactone.pdbqt.pdb
REMARK  2 active torsions:
REMARK  status: ('A' for Active; 'I' for Inactive)
REMARK    1  A    between atoms: C_10  and  O_14
REMARK    2  A    between atoms: C_19  and  O_23
REMARK                            x       y       z     vdW  Elec       q    Type
REMARK                         _______ _______ _______ _____ _____    ______ ____
ROOT
ATOM      1  O   UNL     1     -26.822  43.338  14.520  0.00  0.00    +0.000 OA
ATOM      2  O   UNL     1     -26.873  41.008  14.443  0.00  0.00    +0.000 OA
ATOM      3  C   UNL     1     -25.794  43.632  16.636  0.00  0.00    +0.000 C 
ATOM      4  C   UNL     1     -25.928  42.223  16.353  0.00  0.00    +0.000 C 
ATOM      5  C   UNL     1     -26.352  44.140  15.462  0.00  0.00    +0.000 C 
ATOM      6  C   UNL     1     -26.597  42.054  15.002  0.00  0.00    +0.000 C 
ATOM      7  C   UNL     1     -24.888  44.215  17.541  0.00  0.00    +0.000 C 
ATOM      8  C   UNL     1     -23.970  44.789  18.469  0.00  0.00    +0.000 C 
ATOM      9  C   UNL     1     -22.741  44.173  18.697  0.00  0.00    +0.000 C 
ATOM     10  C   UNL     1     -21.858  44.737  19.613  0.00  0.00    +0.000 C 
ATOM     11  C   UNL     1     -22.187  45.902  20.298  0.00  0.00    +0.000 C 
ATOM     12  C   UNL     1     -23.416  46.513  20.065  0.00  0.00    +0.000 C 
ATOM     13  C   UNL     1     -24.308  45.956  19.150  0.00  0.00    +0.000 C 
ATOM     14  C   UNL     1     -25.442  41.168  17.159  0.00  0.00    +0.000 C 
ATOM     15  C   UNL     1     -24.944  40.111  17.974  0.00  0.00    +0.000 C 
ATOM     16  C   UNL     1     -25.023  40.209  19.360  0.00  0.00    +0.000 C 
ATOM     17  C   UNL     1     -24.523  39.175  20.145  0.00  0.00    +0.000 C 
ATOM     18  C   UNL     1     -23.948  38.050  19.564  0.00  0.00    +0.000 C 
ATOM     19  C   UNL     1     -23.872  37.958  18.177  0.00  0.00    +0.000 C 
ATOM     20  C   UNL     1     -24.369  38.988  17.380  0.00  0.00    +0.000 C 
ENDROOT
BRANCH  10  21
ATOM     21  O   UNL     1     -20.647  44.159  19.860  0.00  0.00    +0.000 OA
ATOM     22  H   UNL     1     -19.950  44.734  19.499  0.00  0.00    +0.000 HD
ENDBRANCH  10  21
BRANCH  17  23
ATOM     23  O   UNL     1     -24.584  39.240  21.507  0.00  0.00    +0.000 OA
ATOM     24  H   UNL     1     -23.683  39.373  21.850  0.00  0.00    +0.000 HD
ENDBRANCH  17  23
TORSDOF 2
ENDMDL
MODEL 2
REMARK VINA RESULT:      -6.3      0.569      5.614
REMARK  Name = Enterolactone.pdbqt.pdb
REMARK  2 active torsions:
REMARK  status: ('A' for Active; 'I' for Inactive)
REMARK    1  A    between atoms: C_10  and  O_14
REMARK    2  A    between atoms: C_19  and  O_23
REMARK                            x       y       z     vdW  Elec       q    Type
REMARK                         _______ _______ _______ _____ _____    ______ ____
ROOT
ATOM      1  O   UNL     1     -27.348  43.248  14.978  0.00  0.00    +0.000 OA
ATOM      2  O   UNL     1     -26.866  45.421  15.670  0.00  0.00    +0.000 OA
ATOM      3  C   UNL     1     -25.769  42.065  16.293  0.00  0.00    +0.000 C 
ATOM      4  C   UNL     1     -25.664  43.479  16.564  0.00  0.00    +0.000 C 
ATOM      5  C   UNL     1     -26.804  42.102  15.357  0.00  0.00    +0.000 C 
ATOM      6  C   UNL     1     -26.674  44.220  15.707  0.00  0.00    +0.000 C 
ATOM      7  C   UNL     1     -25.340  41.023  17.136  0.00  0.00    +0.000 C 
ATOM      8  C   UNL     1     -24.891  39.981  17.998  0.00  0.00    +0.000 C 
ATOM      9  C   UNL     1     -24.908  40.169  19.378  0.00  0.00    +0.000 C 
ATOM     10  C   UNL     1     -24.457  39.147  20.209  0.00  0.00    +0.000 C 
ATOM     11  C   UNL     1     -23.993  37.947  19.679  0.00  0.00    +0.000 C 
ATOM     12  C   UNL     1     -23.980  37.766  18.299  0.00  0.00    +0.000 C 
ATOM     13  C   UNL     1     -24.428  38.782  17.457  0.00  0.00    +0.000 C 
ATOM     14  C   UNL     1     -24.822  44.075  17.529  0.00  0.00    +0.000 C 
ATOM     15  C   UNL     1     -23.973  44.668  18.509  0.00  0.00    +0.000 C 
ATOM     16  C   UNL     1     -22.690  44.167  18.707  0.00  0.00    +0.000 C 
ATOM     17  C   UNL     1     -21.875  44.748  19.675  0.00  0.00    +0.000 C 
ATOM     18  C   UNL     1     -22.326  45.817  20.442  0.00  0.00    +0.000 C 
ATOM     19  C   UNL     1     -23.612  46.314  20.237  0.00  0.00    +0.000 C 
ATOM     20  C   UNL     1     -24.437  45.739  19.271  0.00  0.00    +0.000 C 
ENDROOT
BRANCH  10  21
ATOM     21  O   UNL     1     -24.460  39.299  21.565  0.00  0.00    +0.000 OA
ATOM     22  H   UNL     1     -24.691  38.445  21.972  0.00  0.00    +0.000 HD
ENDBRANCH  10  21
BRANCH  17  23
ATOM     23  O   UNL     1     -20.613  44.281  19.896  0.00  0.00    +0.000 OA
ATOM     24  H   UNL     1     -20.011  44.700  19.254  0.00  0.00    +0.000 HD
ENDBRANCH  17  23
TORSDOF 2
ENDMDL
MODEL 3
REMARK VINA RESULT:      -6.1     17.657     20.724
REMARK  Name = Enterolactone.pdbqt.pdb
REMARK  2 active torsions:
REMARK  status: ('A' for Active; 'I' for Inactive)
REMARK    1  A    between atoms: C_10  and  O_14
REMARK    2  A    between atoms: C_19  and  O_23
REMARK                            x       y       z     vdW  Elec       q    Type
REMARK                         _______ _______ _______ _____ _____    ______ ____
ROOT
ATOM      1  O   UNL     1     -11.004  49.272  26.081  0.00  0.00    +0.000 OA
ATOM      2  O   UNL     1      -9.954  48.060  24.388  0.00  0.00    +0.000 OA
ATOM      3  C   UNL     1      -9.611  48.676  27.904  0.00  0.00    +0.000 C 
ATOM      4  C   UNL     1      -9.138  48.032  26.701  0.00  0.00    +0.000 C 
ATOM      5  C   UNL     1     -10.695  49.369  27.364  0.00  0.00    +0.000 C 
ATOM      6  C   UNL     1     -10.046  48.417  25.548  0.00  0.00    +0.000 C 
ATOM      7  C   UNL     1      -8.855  48.927  29.064  0.00  0.00    +0.000 C 
ATOM      8  C   UNL     1      -8.078  49.166  30.235  0.00  0.00    +0.000 C 
ATOM      9  C   UNL     1      -6.708  49.392  30.121  0.00  0.00    +0.000 C 
ATOM     10  C   UNL     1      -5.958  49.613  31.272  0.00  0.00    +0.000 C 
ATOM     11  C   UNL     1      -6.557  49.611  32.527  0.00  0.00    +0.000 C 
ATOM     12  C   UNL     1      -7.927  49.384  32.634  0.00  0.00    +0.000 C 
ATOM     13  C   UNL     1      -8.688  49.161  31.488  0.00  0.00    +0.000 C 
ATOM     14  C   UNL     1      -7.972  47.242  26.591  0.00  0.00    +0.000 C 
ATOM     15  C   UNL     1      -6.792  46.450  26.487  0.00  0.00    +0.000 C 
ATOM     16  C   UNL     1      -6.447  45.582  27.519  0.00  0.00    +0.000 C 
ATOM     17  C   UNL     1      -5.286  44.823  27.410  0.00  0.00    +0.000 C 
ATOM     18  C   UNL     1      -4.471  44.921  26.288  0.00  0.00    +0.000 C 
ATOM     19  C   UNL     1      -4.822  45.791  25.258  0.00  0.00    +0.000 C 
ATOM     20  C   UNL     1      -5.982  46.557  25.357  0.00  0.00    +0.000 C 
ENDROOT
BRANCH  10  21
ATOM     21  O   UNL     1      -4.614  49.838  31.196  0.00  0.00    +0.000 OA
ATOM     22  H   UNL     1      -4.168  48.993  31.018  0.00  0.00    +0.000 HD
ENDBRANCH  10  21
BRANCH  17  23
ATOM     23  O   UNL     1      -4.919  43.963  28.403  0.00  0.00    +0.000 OA
ATOM     24  H   UNL     1      -5.143  44.368  29.260  0.00  0.00    +0.000 HD
ENDBRANCH  17  23
TORSDOF 2
ENDMDL
MODEL 4
REMARK VINA RESULT:      -5.9     19.069     23.718
REMARK  Name = Enterolactone.pdbqt.pdb
REMARK  2 active torsions:
REMARK  status: ('A' for Active; 'I' for Inactive)
REMARK    1  A    between atoms: C_10  and  O_14
REMARK    2  A    between atoms: C_19  and  O_23
REMARK                            x       y       z     vdW  Elec       q    Type
REMARK                         _______ _______ _______ _____ _____    ______ ____
ROOT
ATOM      1  O   UNL     1      -1.154  50.634  26.718  0.00  0.00    +0.000 OA
ATOM      2  O   UNL     1      -1.447  52.526  28.048  0.00  0.00    +0.000 OA
ATOM      3  C   UNL     1      -3.302  49.660  26.953  0.00  0.00    +0.000 C 
ATOM      4  C   UNL     1      -3.243  50.890  27.706  0.00  0.00    +0.000 C 
ATOM      5  C   UNL     1      -2.009  49.666  26.429  0.00  0.00    +0.000 C 
ATOM      6  C   UNL     1      -1.859  51.494  27.552  0.00  0.00    +0.000 C 
ATOM      7  C   UNL     1      -4.470  49.025  26.490  0.00  0.00    +0.000 C 
ATOM      8  C   UNL     1      -5.663  48.390  26.037  0.00  0.00    +0.000 C 
ATOM      9  C   UNL     1      -6.777  49.162  25.713  0.00  0.00    +0.000 C 
ATOM     10  C   UNL     1      -7.939  48.529  25.282  0.00  0.00    +0.000 C 
ATOM     11  C   UNL     1      -8.001  47.144  25.171  0.00  0.00    +0.000 C 
ATOM     12  C   UNL     1      -6.884  46.379  25.496  0.00  0.00    +0.000 C 
ATOM     13  C   UNL     1      -5.714  47.002  25.929  0.00  0.00    +0.000 C 
ATOM     14  C   UNL     1      -4.317  51.485  28.404  0.00  0.00    +0.000 C 
ATOM     15  C   UNL     1      -5.408  52.081  29.101  0.00  0.00    +0.000 C 
ATOM     16  C   UNL     1      -6.308  51.278  29.795  0.00  0.00    +0.000 C 
ATOM     17  C   UNL     1      -7.375  51.872  30.462  0.00  0.00    +0.000 C 
ATOM     18  C   UNL     1      -7.552  53.251  30.443  0.00  0.00    +0.000 C 
ATOM     19  C   UNL     1      -6.647  54.049  29.748  0.00  0.00    +0.000 C 
ATOM     20  C   UNL     1      -5.575  53.465  29.075  0.00  0.00    +0.000 C 
ENDROOT
BRANCH  10  21
ATOM     21  O   UNL     1      -9.048  49.255  24.957  0.00  0.00    +0.000 OA
ATOM     22  H   UNL     1      -9.272  49.080  24.027  0.00  0.00    +0.000 HD
ENDBRANCH  10  21
BRANCH  17  23
ATOM     23  O   UNL     1      -8.277  51.113  31.151  0.00  0.00    +0.000 OA
ATOM     24  H   UNL     1      -7.871  50.840  31.993  0.00  0.00    +0.000 HD
ENDBRANCH  17  23
TORSDOF 2
ENDMDL
MODEL 5
REMARK VINA RESULT:      -5.7      2.614      5.446
REMARK  Name = Enterolactone.pdbqt.pdb
REMARK  2 active torsions:
REMARK  status: ('A' for Active; 'I' for Inactive)
REMARK    1  A    between atoms: C_10  and  O_14
REMARK    2  A    between atoms: C_19  and  O_23
REMARK                            x       y       z     vdW  Elec       q    Type
REMARK                         _______ _______ _______ _____ _____    ______ ____
ROOT
ATOM      1  O   UNL     1     -27.508  40.836  23.587  0.00  0.00    +0.000 OA
ATOM      2  O   UNL     1     -27.176  38.536  23.773  0.00  0.00    +0.000 OA
ATOM      3  C   UNL     1     -26.238  41.252  21.630  0.00  0.00    +0.000 C 
ATOM      4  C   UNL     1     -26.189  39.845  21.949  0.00  0.00    +0.000 C 
ATOM      5  C   UNL     1     -27.057  41.682  22.675  0.00  0.00    +0.000 C 
ATOM      6  C   UNL     1     -26.998  39.600  23.209  0.00  0.00    +0.000 C 
ATOM      7  C   UNL     1     -25.994  41.827  20.368  0.00  0.00    +0.000 C 
ATOM      8  C   UNL     1     -25.736  42.392  19.085  0.00  0.00    +0.000 C 
ATOM      9  C   UNL     1     -26.038  41.666  17.936  0.00  0.00    +0.000 C 
ATOM     10  C   UNL     1     -25.771  42.225  16.689  0.00  0.00    +0.000 C 
ATOM     11  C   UNL     1     -25.209  43.493  16.580  0.00  0.00    +0.000 C 
ATOM     12  C   UNL     1     -24.910  44.214  17.733  0.00  0.00    +0.000 C 
ATOM     13  C   UNL     1     -25.173  43.663  18.987  0.00  0.00    +0.000 C 
ATOM     14  C   UNL     1     -25.564  38.843  21.174  0.00  0.00    +0.000 C 
ATOM     15  C   UNL     1     -24.936  37.837  20.384  0.00  0.00    +0.000 C 
ATOM     16  C   UNL     1     -23.722  38.106  19.758  0.00  0.00    +0.000 C 
ATOM     17  C   UNL     1     -23.125  37.119  18.980  0.00  0.00    +0.000 C 
ATOM     18  C   UNL     1     -23.723  35.874  18.821  0.00  0.00    +0.000 C 
ATOM     19  C   UNL     1     -24.937  35.611  19.452  0.00  0.00    +0.000 C 
ATOM     20  C   UNL     1     -25.545  36.592  20.233  0.00  0.00    +0.000 C 
ENDROOT
BRANCH  10  21
ATOM     21  O   UNL     1     -26.055  41.541  15.543  0.00  0.00    +0.000 OA
ATOM     22  H   UNL     1     -26.646  42.085  14.995  0.00  0.00    +0.000 HD
ENDBRANCH  10  21
BRANCH  17  23
ATOM     23  O   UNL     1     -21.936  37.350  18.352  0.00  0.00    +0.000 OA
ATOM     24  H   UNL     1     -21.415  37.969  18.894  0.00  0.00    +0.000 HD
ENDBRANCH  17  23
TORSDOF 2
ENDMDL
MODEL 6
REMARK VINA RESULT:      -5.6     16.156     19.280
REMARK  Name = Enterolactone.pdbqt.pdb
REMARK  2 active torsions:
REMARK  status: ('A' for Active; 'I' for Inactive)
REMARK    1  A    between atoms: C_10  and  O_14
REMARK    2  A    between atoms: C_19  and  O_23
REMARK                            x       y       z     vdW  Elec       q    Type
REMARK                         _______ _______ _______ _____ _____    ______ ____
ROOT
ATOM      1  O   UNL     1     -12.939  49.038  25.588  0.00  0.00    +0.000 OA
ATOM      2  O   UNL     1     -11.458  48.440  23.890  0.00  0.00    +0.000 OA
ATOM      3  C   UNL     1     -11.600  48.512  27.472  0.00  0.00    +0.000 C 
ATOM      4  C   UNL     1     -10.868  48.225  26.261  0.00  0.00    +0.000 C 
ATOM      5  C   UNL     1     -12.781  48.989  26.902  0.00  0.00    +0.000 C 
ATOM      6  C   UNL     1     -11.743  48.557  25.068  0.00  0.00    +0.000 C 
ATOM      7  C   UNL     1     -11.044  48.744  28.744  0.00  0.00    +0.000 C 
ATOM      8  C   UNL     1     -10.464  48.968  30.027  0.00  0.00    +0.000 C 
ATOM      9  C   UNL     1      -9.203  49.551  30.124  0.00  0.00    +0.000 C 
ATOM     10  C   UNL     1      -8.643  49.755  31.381  0.00  0.00    +0.000 C 
ATOM     11  C   UNL     1      -9.325  49.386  32.536  0.00  0.00    +0.000 C 
ATOM     12  C   UNL     1     -10.586  48.804  32.432  0.00  0.00    +0.000 C 
ATOM     13  C   UNL     1     -11.156  48.595  31.177  0.00  0.00    +0.000 C 
ATOM     14  C   UNL     1      -9.527  47.787  26.191  0.00  0.00    +0.000 C 
ATOM     15  C   UNL     1      -8.172  47.350  26.128  0.00  0.00    +0.000 C 
ATOM     16  C   UNL     1      -7.695  46.435  27.062  0.00  0.00    +0.000 C 
ATOM     17  C   UNL     1      -6.366  46.025  26.996  0.00  0.00    +0.000 C 
ATOM     18  C   UNL     1      -5.514  46.518  26.014  0.00  0.00    +0.000 C 
ATOM     19  C   UNL     1      -5.998  47.433  25.082  0.00  0.00    +0.000 C 
ATOM     20  C   UNL     1      -7.327  47.851  25.138  0.00  0.00    +0.000 C 
ENDROOT
BRANCH  10  21
ATOM     21  O   UNL     1      -7.409  50.323  31.512  0.00  0.00    +0.000 OA
ATOM     22  H   UNL     1      -7.503  51.289  31.434  0.00  0.00    +0.000 HD
ENDBRANCH  10  21
BRANCH  17  23
ATOM     23  O   UNL     1      -5.867  45.131  27.897  0.00  0.00    +0.000 OA
ATOM     24  H   UNL     1      -6.265  45.312  28.766  0.00  0.00    +0.000 HD
ENDBRANCH  17  23
TORSDOF 2
ENDMDL
MODEL 7
REMARK VINA RESULT:      -5.3     13.540     15.754
REMARK  Name = Enterolactone.pdbqt.pdb
REMARK  2 active torsions:
REMARK  status: ('A' for Active; 'I' for Inactive)
REMARK    1  A    between atoms: C_10  and  O_14
REMARK    2  A    between atoms: C_19  and  O_23
REMARK                            x       y       z     vdW  Elec       q    Type
REMARK                         _______ _______ _______ _____ _____    ______ ____
ROOT
ATOM      1  O   UNL     1     -22.791  42.329   5.096  0.00  0.00    +0.000 OA
ATOM      2  O   UNL     1     -21.588  44.192   4.379  0.00  0.00    +0.000 OA
ATOM      3  C   UNL     1     -21.120  40.668   4.839  0.00  0.00    +0.000 C 
ATOM      4  C   UNL     1     -20.590  41.953   4.451  0.00  0.00    +0.000 C 
ATOM      5  C   UNL     1     -22.408  41.066   5.199  0.00  0.00    +0.000 C 
ATOM      6  C   UNL     1     -21.675  43.001   4.613  0.00  0.00    +0.000 C 
ATOM      7  C   UNL     1     -20.370  39.544   5.233  0.00  0.00    +0.000 C 
ATOM      8  C   UNL     1     -19.595  38.413   5.622  0.00  0.00    +0.000 C 
ATOM      9  C   UNL     1     -18.374  38.599   6.265  0.00  0.00    +0.000 C 
ATOM     10  C   UNL     1     -17.621  37.487   6.630  0.00  0.00    +0.000 C 
ATOM     11  C   UNL     1     -18.072  36.199   6.361  0.00  0.00    +0.000 C 
ATOM     12  C   UNL     1     -19.294  36.019   5.718  0.00  0.00    +0.000 C 
ATOM     13  C   UNL     1     -20.056  37.126   5.348  0.00  0.00    +0.000 C 
ATOM     14  C   UNL     1     -19.256  42.215   4.066  0.00  0.00    +0.000 C 
ATOM     15  C   UNL     1     -17.907  42.471   3.684  0.00  0.00    +0.000 C 
ATOM     16  C   UNL     1     -17.223  41.548   2.898  0.00  0.00    +0.000 C 
ATOM     17  C   UNL     1     -15.902  41.806   2.541  0.00  0.00    +0.000 C 
ATOM     18  C   UNL     1     -15.262  42.967   2.958  0.00  0.00    +0.000 C 
ATOM     19  C   UNL     1     -15.953  43.887   3.744  0.00  0.00    +0.000 C 
ATOM     20  C   UNL     1     -17.276  43.640   4.108  0.00  0.00    +0.000 C 
ENDROOT
BRANCH  10  21
ATOM     21  O   UNL     1     -16.420  37.634   7.261  0.00  0.00    +0.000 OA
ATOM     22  H   UNL     1     -16.050  38.502   7.025  0.00  0.00    +0.000 HD
ENDBRANCH  10  21
BRANCH  17  23
ATOM     23  O   UNL     1     -15.203  40.921   1.773  0.00  0.00    +0.000 OA
ATOM     24  H   UNL     1     -15.141  41.278   0.869  0.00  0.00    +0.000 HD
ENDBRANCH  17  23
TORSDOF 2
ENDMDL
MODEL 8
REMARK VINA RESULT:      -5.2     24.609     26.713
REMARK  Name = Enterolactone.pdbqt.pdb
REMARK  2 active torsions:
REMARK  status: ('A' for Active; 'I' for Inactive)
REMARK    1  A    between atoms: C_10  and  O_14
REMARK    2  A    between atoms: C_19  and  O_23
REMARK                            x       y       z     vdW  Elec       q    Type
REMARK                         _______ _______ _______ _____ _____    ______ ____
ROOT
ATOM      1  O   UNL     1      -6.658  25.756  20.584  0.00  0.00    +0.000 OA
ATOM      2  O   UNL     1      -4.825  26.611  21.742  0.00  0.00    +0.000 OA
ATOM      3  C   UNL     1      -5.933  26.158  18.363  0.00  0.00    +0.000 C 
ATOM      4  C   UNL     1      -4.925  26.611  19.292  0.00  0.00    +0.000 C 
ATOM      5  C   UNL     1      -6.869  25.677  19.279  0.00  0.00    +0.000 C 
ATOM      6  C   UNL     1      -5.410  26.355  20.706  0.00  0.00    +0.000 C 
ATOM      7  C   UNL     1      -5.729  25.827  17.010  0.00  0.00    +0.000 C 
ATOM      8  C   UNL     1      -5.505  25.504  15.641  0.00  0.00    +0.000 C 
ATOM      9  C   UNL     1      -4.273  24.987  15.244  0.00  0.00    +0.000 C 
ATOM     10  C   UNL     1      -4.064  24.686  13.901  0.00  0.00    +0.000 C 
ATOM     11  C   UNL     1      -5.064  24.893  12.957  0.00  0.00    +0.000 C 
ATOM     12  C   UNL     1      -6.293  25.410  13.361  0.00  0.00    +0.000 C 
ATOM     13  C   UNL     1      -6.514  25.716  14.703  0.00  0.00    +0.000 C 
ATOM     14  C   UNL     1      -3.657  27.130  18.947  0.00  0.00    +0.000 C 
ATOM     15  C   UNL     1      -2.378  27.647  18.591  0.00  0.00    +0.000 C 
ATOM     16  C   UNL     1      -2.253  28.486  17.487  0.00  0.00    +0.000 C 
ATOM     17  C   UNL     1      -0.996  28.976  17.143  0.00  0.00    +0.000 C 
ATOM     18  C   UNL     1       0.130  28.638  17.885  0.00  0.00    +0.000 C 
ATOM     19  C   UNL     1      -0.002  27.799  18.989  0.00  0.00    +0.000 C 
ATOM     20  C   UNL     1      -1.256  27.302  19.343  0.00  0.00    +0.000 C 
ENDROOT
BRANCH  10  21
ATOM     21  O   UNL     1      -2.870  24.178  13.479  0.00  0.00    +0.000 OA
ATOM     22  H   UNL     1      -3.039  23.364  12.975  0.00  0.00    +0.000 HD
ENDBRANCH  10  21
BRANCH  17  23
ATOM     23  O   UNL     1      -0.839  29.799  16.067  0.00  0.00    +0.000 OA
ATOM     24  H   UNL     1      -1.714  29.965  15.674  0.00  0.00    +0.000 HD
ENDBRANCH  17  23
TORSDOF 2
ENDMDL
MODEL 9
REMARK VINA RESULT:      -5.2     12.774     14.067
REMARK  Name = Enterolactone.pdbqt.pdb
REMARK  2 active torsions:
REMARK  status: ('A' for Active; 'I' for Inactive)
REMARK    1  A    between atoms: C_10  and  O_14
REMARK    2  A    between atoms: C_19  and  O_23
REMARK                            x       y       z     vdW  Elec       q    Type
REMARK                         _______ _______ _______ _____ _____    ______ ____
ROOT
ATOM      1  O   UNL     1     -21.974  44.231   3.786  0.00  0.00    +0.000 OA
ATOM      2  O   UNL     1     -23.680  42.643   3.825  0.00  0.00    +0.000 OA
ATOM      3  C   UNL     1     -20.256  42.978   4.833  0.00  0.00    +0.000 C 
ATOM      4  C   UNL     1     -21.451  42.174   4.733  0.00  0.00    +0.000 C 
ATOM      5  C   UNL     1     -20.729  44.141   4.224  0.00  0.00    +0.000 C 
ATOM      6  C   UNL     1     -22.541  42.994   4.070  0.00  0.00    +0.000 C 
ATOM      7  C   UNL     1     -18.942  42.499   4.986  0.00  0.00    +0.000 C 
ATOM      8  C   UNL     1     -17.618  41.996   5.148  0.00  0.00    +0.000 C 
ATOM      9  C   UNL     1     -17.275  40.761   4.603  0.00  0.00    +0.000 C 
ATOM     10  C   UNL     1     -15.982  40.276   4.778  0.00  0.00    +0.000 C 
ATOM     11  C   UNL     1     -15.035  41.007   5.487  0.00  0.00    +0.000 C 
ATOM     12  C   UNL     1     -15.384  42.242   6.029  0.00  0.00    +0.000 C 
ATOM     13  C   UNL     1     -16.676  42.736   5.860  0.00  0.00    +0.000 C 
ATOM     14  C   UNL     1     -21.567  40.817   5.110  0.00  0.00    +0.000 C 
ATOM     15  C   UNL     1     -21.675  39.447   5.488  0.00  0.00    +0.000 C 
ATOM     16  C   UNL     1     -21.031  38.992   6.634  0.00  0.00    +0.000 C 
ATOM     17  C   UNL     1     -21.135  37.650   6.986  0.00  0.00    +0.000 C 
ATOM     18  C   UNL     1     -21.872  36.762   6.209  0.00  0.00    +0.000 C 
ATOM     19  C   UNL     1     -22.515  37.224   5.064  0.00  0.00    +0.000 C 
ATOM     20  C   UNL     1     -22.418  38.567   4.701  0.00  0.00    +0.000 C 
ENDROOT
BRANCH  10  21
ATOM     21  O   UNL     1     -15.614  39.070   4.257  0.00  0.00    +0.000 OA
ATOM     22  H   UNL     1     -16.267  38.810   3.585  0.00  0.00    +0.000 HD
ENDBRANCH  10  21
BRANCH  17  23
ATOM     23  O   UNL     1     -20.514  37.171   8.103  0.00  0.00    +0.000 OA
ATOM     24  H   UNL     1     -21.196  36.884   8.736  0.00  0.00    +0.000 HD
ENDBRANCH  17  23
TORSDOF 2
ENDMDL
