MODEL 1
REMARK VINA RESULT:      -6.3      0.000      0.000
REMARK  Name = 
REMARK  12 active torsions:
REMARK  status: ('A' for Active; 'I' for Inactive)
REMARK    1  A    between atoms: O_2  and  C_12
REMARK    2  A    between atoms: O_2  and  C_24
REMARK    3  A    between atoms: O_3  and  C_18
REMARK    4  A    between atoms: O_4  and  C_23
REMARK    5  A    between atoms: O_5  and  C_25
REMARK    6  A    between atoms: O_6  and  C_26
REMARK    7  A    between atoms: O_8  and  C_27
REMARK    8  A    between atoms: O_9  and  C_31
REMARK    9  A    between atoms: O_10  and  C_32
REMARK   10  A    between atoms: O_11  and  C_33
REMARK   11  A    between atoms: C_13  and  C_16
REMARK   12  A    between atoms: C_24  and  C_28
REMARK                            x       y       z     vdW  Elec       q    Type
REMARK                         _______ _______ _______ _____ _____    ______ ____
ROOT
ATOM      1  O   UNL     1       1.752  55.942  19.084  0.00  0.00    +0.000 OA
ATOM      2  C   UNL     1       3.853  57.209  18.781  0.00  0.00    +0.000 C 
ATOM      3  C   UNL     1       2.529  56.725  18.161  0.00  0.00    +0.000 C 
ATOM      4  C   UNL     1       3.527  58.116  19.967  0.00  0.00    +0.000 C 
ATOM      5  C   UNL     1       2.417  57.540  20.809  0.00  0.00    +0.000 A 
ATOM      6  C   UNL     1       1.605  56.507  20.323  0.00  0.00    +0.000 A 
ATOM      7  C   UNL     1       2.160  58.044  22.090  0.00  0.00    +0.000 A 
ATOM      8  C   UNL     1       0.592  55.961  21.115  0.00  0.00    +0.000 A 
ATOM      9  C   UNL     1       1.145  57.515  22.885  0.00  0.00    +0.000 A 
ATOM     10  C   UNL     1       0.371  56.472  22.390  0.00  0.00    +0.000 A 
ENDROOT
BRANCH   3  11
ATOM     11  C   UNL     1       2.766  55.908  16.898  0.00  0.00    +0.000 A 
ATOM     12  C   UNL     1       2.585  54.511  16.924  0.00  0.00    +0.000 A 
ATOM     13  C   UNL     1       3.131  56.527  15.688  0.00  0.00    +0.000 A 
ATOM     14  C   UNL     1       3.311  55.759  14.542  0.00  0.00    +0.000 A 
ATOM     15  C   UNL     1       2.772  53.753  15.767  0.00  0.00    +0.000 A 
ATOM     16  C   UNL     1       3.135  54.377  14.579  0.00  0.00    +0.000 A 
BRANCH  14  17
ATOM     17  O   UNL     1       3.661  56.324  13.346  0.00  0.00    +0.000 OA
ATOM     18  H   UNL     1       3.712  57.288  13.466  0.00  0.00    +0.000 HD
ENDBRANCH  14  17
BRANCH  15  19
ATOM     19  O   UNL     1       2.600  52.398  15.790  0.00  0.00    +0.000 OA
ATOM     20  H   UNL     1       2.086  52.149  16.572  0.00  0.00    +0.000 HD
ENDBRANCH  15  19
BRANCH  16  21
ATOM     21  O   UNL     1       3.320  53.654  13.433  0.00  0.00    +0.000 OA
ATOM     22  H   UNL     1       2.425  53.555  13.055  0.00  0.00    +0.000 HD
ENDBRANCH  16  21
ENDBRANCH   3  11
BRANCH   7  23
ATOM     23  O   UNL     1       2.930  59.072  22.555  0.00  0.00    +0.000 OA
ATOM     24  H   UNL     1       3.686  59.193  21.957  0.00  0.00    +0.000 HD
ENDBRANCH   7  23
BRANCH  10  25
ATOM     25  O   UNL     1      -0.611  55.975  23.194  0.00  0.00    +0.000 OA
ATOM     26  H   UNL     1      -0.964  55.163  22.793  0.00  0.00    +0.000 HD
ENDBRANCH  10  25
BRANCH   2  27
ATOM     27  O   UNL     1       4.614  56.070  19.255  0.00  0.00    +0.000 OA
BRANCH  27  29
ATOM     28  O   UNL     1       6.809  56.588  19.678  0.00  0.00    +0.000 OA
ATOM     29  C   UNL     1       5.939  56.079  18.991  0.00  0.00    +0.000 C 
BRANCH  29  30
ATOM     30  C   UNL     1       6.198  55.399  17.697  0.00  0.00    +0.000 A 
ATOM     31  C   UNL     1       6.038  54.006  17.641  0.00  0.00    +0.000 A 
ATOM     32  C   UNL     1       6.584  56.115  16.550  0.00  0.00    +0.000 A 
ATOM     33  C   UNL     1       6.822  55.433  15.358  0.00  0.00    +0.000 A 
ATOM     34  C   UNL     1       6.282  53.343  16.444  0.00  0.00    +0.000 A 
ATOM     35  C   UNL     1       6.676  54.050  15.309  0.00  0.00    +0.000 A 
BRANCH  33  36
ATOM     36  O   UNL     1       7.200  56.113  14.235  0.00  0.00    +0.000 OA
ATOM     37  H   UNL     1       6.820  55.686  13.453  0.00  0.00    +0.000 HD
ENDBRANCH  33  36
BRANCH  34  38
ATOM     38  O   UNL     1       6.147  51.986  16.334  0.00  0.00    +0.000 OA
ATOM     39  H   UNL     1       6.634  51.564  17.065  0.00  0.00    +0.000 HD
ENDBRANCH  34  38
BRANCH  35  40
ATOM     40  O   UNL     1       6.908  53.364  14.148  0.00  0.00    +0.000 OA
ATOM     41  H   UNL     1       6.764  52.425  14.375  0.00  0.00    +0.000 HD
ENDBRANCH  35  40
ENDBRANCH  29  30
ENDBRANCH  27  29
ENDBRANCH   2  27
TORSDOF 12
ENDMDL
MODEL 2
REMARK VINA RESULT:      -6.1     27.753     30.768
REMARK  Name = 
REMARK  12 active torsions:
REMARK  status: ('A' for Active; 'I' for Inactive)
REMARK    1  A    between atoms: O_2  and  C_12
REMARK    2  A    between atoms: O_2  and  C_24
REMARK    3  A    between atoms: O_3  and  C_18
REMARK    4  A    between atoms: O_4  and  C_23
REMARK    5  A    between atoms: O_5  and  C_25
REMARK    6  A    between atoms: O_6  and  C_26
REMARK    7  A    between atoms: O_8  and  C_27
REMARK    8  A    between atoms: O_9  and  C_31
REMARK    9  A    between atoms: O_10  and  C_32
REMARK   10  A    between atoms: O_11  and  C_33
REMARK   11  A    between atoms: C_13  and  C_16
REMARK   12  A    between atoms: C_24  and  C_28
REMARK                            x       y       z     vdW  Elec       q    Type
REMARK                         _______ _______ _______ _____ _____    ______ ____
ROOT
ATOM      1  O   UNL     1     -20.111  37.431   5.485  0.00  0.00    +0.000 OA
ATOM      2  C   UNL     1     -18.177  38.116   6.861  0.00  0.00    +0.000 C 
ATOM      3  C   UNL     1     -19.568  38.476   6.311  0.00  0.00    +0.000 C 
ATOM      4  C   UNL     1     -18.313  36.878   7.746  0.00  0.00    +0.000 C 
ATOM      5  C   UNL     1     -19.209  35.845   7.110  0.00  0.00    +0.000 A 
ATOM      6  C   UNL     1     -20.046  36.180   6.037  0.00  0.00    +0.000 A 
ATOM      7  C   UNL     1     -19.240  34.532   7.596  0.00  0.00    +0.000 A 
ATOM      8  C   UNL     1     -20.857  35.215   5.437  0.00  0.00    +0.000 A 
ATOM      9  C   UNL     1     -20.055  33.564   7.012  0.00  0.00    +0.000 A 
ATOM     10  C   UNL     1     -20.855  33.915   5.932  0.00  0.00    +0.000 A 
ENDROOT
BRANCH   3  11
ATOM     11  C   UNL     1     -19.538  39.771   5.511  0.00  0.00    +0.000 A 
ATOM     12  C   UNL     1     -19.142  40.970   6.136  0.00  0.00    +0.000 A 
ATOM     13  C   UNL     1     -19.865  39.791   4.142  0.00  0.00    +0.000 A 
ATOM     14  C   UNL     1     -19.799  40.984   3.430  0.00  0.00    +0.000 A 
ATOM     15  C   UNL     1     -19.083  42.161   5.409  0.00  0.00    +0.000 A 
ATOM     16  C   UNL     1     -19.412  42.166   4.058  0.00  0.00    +0.000 A 
BRANCH  14  17
ATOM     17  O   UNL     1     -20.105  41.042   2.097  0.00  0.00    +0.000 OA
ATOM     18  H   UNL     1     -19.273  41.066   1.593  0.00  0.00    +0.000 HD
ENDBRANCH  14  17
BRANCH  15  19
ATOM     19  O   UNL     1     -18.703  43.325   6.013  0.00  0.00    +0.000 OA
ATOM     20  H   UNL     1     -19.038  44.079   5.506  0.00  0.00    +0.000 HD
ENDBRANCH  15  19
BRANCH  16  21
ATOM     21  O   UNL     1     -19.358  43.320   3.326  0.00  0.00    +0.000 OA
ATOM     22  H   UNL     1     -19.218  44.025   3.987  0.00  0.00    +0.000 HD
ENDBRANCH  16  21
ENDBRANCH   3  11
BRANCH   7  23
ATOM     23  O   UNL     1     -18.448  34.211   8.662  0.00  0.00    +0.000 OA
ATOM     24  H   UNL     1     -18.650  34.815   9.396  0.00  0.00    +0.000 HD
ENDBRANCH   7  23
BRANCH  10  25
ATOM     25  O   UNL     1     -21.637  32.943   5.381  0.00  0.00    +0.000 OA
ATOM     26  H   UNL     1     -21.300  32.735   4.493  0.00  0.00    +0.000 HD
ENDBRANCH  10  25
BRANCH   2  27
ATOM     27  O   UNL     1     -17.281  37.813   5.762  0.00  0.00    +0.000 OA
BRANCH  27  29
ATOM     28  O   UNL     1     -15.105  37.814   6.492  0.00  0.00    +0.000 OA
ATOM     29  C   UNL     1     -16.025  38.301   5.856  0.00  0.00    +0.000 C 
BRANCH  29  30
ATOM     30  C   UNL     1     -15.921  39.569   5.091  0.00  0.00    +0.000 A 
ATOM     31  C   UNL     1     -15.451  40.708   5.765  0.00  0.00    +0.000 A 
ATOM     32  C   UNL     1     -16.268  39.643   3.731  0.00  0.00    +0.000 A 
ATOM     33  C   UNL     1     -16.158  40.857   3.055  0.00  0.00    +0.000 A 
ATOM     34  C   UNL     1     -15.351  41.910   5.076  0.00  0.00    +0.000 A 
ATOM     35  C   UNL     1     -15.707  41.988   3.729  0.00  0.00    +0.000 A 
BRANCH  33  36
ATOM     36  O   UNL     1     -16.493  40.948   1.734  0.00  0.00    +0.000 OA
ATOM     37  H   UNL     1     -16.830  40.094   1.424  0.00  0.00    +0.000 HD
ENDBRANCH  33  36
BRANCH  34  38
ATOM     38  O   UNL     1     -14.906  43.052   5.684  0.00  0.00    +0.000 OA
ATOM     39  H   UNL     1     -15.469  43.795   5.401  0.00  0.00    +0.000 HD
ENDBRANCH  34  38
BRANCH  35  40
ATOM     40  O   UNL     1     -15.596  43.189   3.083  0.00  0.00    +0.000 OA
ATOM     41  H   UNL     1     -16.415  43.673   3.304  0.00  0.00    +0.000 HD
ENDBRANCH  35  40
ENDBRANCH  29  30
ENDBRANCH  27  29
ENDBRANCH   2  27
TORSDOF 12
ENDMDL
MODEL 3
REMARK VINA RESULT:      -6.1     13.286     16.456
REMARK  Name = 
REMARK  12 active torsions:
REMARK  status: ('A' for Active; 'I' for Inactive)
REMARK    1  A    between atoms: O_2  and  C_12
REMARK    2  A    between atoms: O_2  and  C_24
REMARK    3  A    between atoms: O_3  and  C_18
REMARK    4  A    between atoms: O_4  and  C_23
REMARK    5  A    between atoms: O_5  and  C_25
REMARK    6  A    between atoms: O_6  and  C_26
REMARK    7  A    between atoms: O_8  and  C_27
REMARK    8  A    between atoms: O_9  and  C_31
REMARK    9  A    between atoms: O_10  and  C_32
REMARK   10  A    between atoms: O_11  and  C_33
REMARK   11  A    between atoms: C_13  and  C_16
REMARK   12  A    between atoms: C_24  and  C_28
REMARK                            x       y       z     vdW  Elec       q    Type
REMARK                         _______ _______ _______ _____ _____    ______ ____
ROOT
ATOM      1  O   UNL     1      -9.123  47.638  26.434  0.00  0.00    +0.000 OA
ATOM      2  C   UNL     1      -7.483  49.451  26.074  0.00  0.00    +0.000 C 
ATOM      3  C   UNL     1      -7.861  47.979  25.835  0.00  0.00    +0.000 C 
ATOM      4  C   UNL     1      -8.540  50.333  25.411  0.00  0.00    +0.000 C 
ATOM      5  C   UNL     1      -9.932  49.816  25.675  0.00  0.00    +0.000 A 
ATOM      6  C   UNL     1     -10.137  48.517  26.158  0.00  0.00    +0.000 A 
ATOM      7  C   UNL     1     -11.050  50.617  25.419  0.00  0.00    +0.000 A 
ATOM      8  C   UNL     1     -11.426  48.049  26.422  0.00  0.00    +0.000 A 
ATOM      9  C   UNL     1     -12.342  50.156  25.668  0.00  0.00    +0.000 A 
ATOM     10  C   UNL     1     -12.518  48.874  26.172  0.00  0.00    +0.000 A 
ENDROOT
BRANCH   3  11
ATOM     11  C   UNL     1      -6.792  47.032  26.365  0.00  0.00    +0.000 A 
ATOM     12  C   UNL     1      -5.495  47.065  25.818  0.00  0.00    +0.000 A 
ATOM     13  C   UNL     1      -7.066  46.143  27.422  0.00  0.00    +0.000 A 
ATOM     14  C   UNL     1      -6.061  45.311  27.906  0.00  0.00    +0.000 A 
ATOM     15  C   UNL     1      -4.497  46.222  26.312  0.00  0.00    +0.000 A 
ATOM     16  C   UNL     1      -4.782  45.347  27.355  0.00  0.00    +0.000 A 
BRANCH  14  17
ATOM     17  O   UNL     1      -6.287  44.436  28.935  0.00  0.00    +0.000 OA
ATOM     18  H   UNL     1      -7.076  43.910  28.722  0.00  0.00    +0.000 HD
ENDBRANCH  14  17
BRANCH  15  19
ATOM     19  O   UNL     1      -3.239  46.249  25.782  0.00  0.00    +0.000 OA
ATOM     20  H   UNL     1      -3.257  45.887  24.884  0.00  0.00    +0.000 HD
ENDBRANCH  15  19
BRANCH  16  21
ATOM     21  O   UNL     1      -3.819  44.515  27.856  0.00  0.00    +0.000 OA
ATOM     22  H   UNL     1      -2.982  45.002  27.733  0.00  0.00    +0.000 HD
ENDBRANCH  16  21
ENDBRANCH   3  11
BRANCH   7  23
ATOM     23  O   UNL     1     -10.855  51.874  24.919  0.00  0.00    +0.000 OA
ATOM     24  H   UNL     1      -9.918  51.973  24.681  0.00  0.00    +0.000 HD
ENDBRANCH   7  23
BRANCH  10  25
ATOM     25  O   UNL     1     -13.794  48.455  26.408  0.00  0.00    +0.000 OA
ATOM     26  H   UNL     1     -14.276  49.162  26.870  0.00  0.00    +0.000 HD
ENDBRANCH  10  25
BRANCH   2  27
ATOM     27  O   UNL     1      -7.467  49.725  27.498  0.00  0.00    +0.000 OA
BRANCH  27  29
ATOM     28  O   UNL     1      -6.746  51.803  28.155  0.00  0.00    +0.000 OA
ATOM     29  C   UNL     1      -6.551  50.620  27.928  0.00  0.00    +0.000 C 
BRANCH  29  30
ATOM     30  C   UNL     1      -5.226  49.961  28.056  0.00  0.00    +0.000 A 
ATOM     31  C   UNL     1      -5.072  48.979  29.048  0.00  0.00    +0.000 A 
ATOM     32  C   UNL     1      -4.152  50.291  27.212  0.00  0.00    +0.000 A 
ATOM     33  C   UNL     1      -2.925  49.649  27.373  0.00  0.00    +0.000 A 
ATOM     34  C   UNL     1      -3.841  48.352  29.195  0.00  0.00    +0.000 A 
ATOM     35  C   UNL     1      -2.770  48.686  28.366  0.00  0.00    +0.000 A 
BRANCH  33  36
ATOM     36  O   UNL     1      -1.870  49.958  26.563  0.00  0.00    +0.000 OA
ATOM     37  H   UNL     1      -1.190  50.421  27.076  0.00  0.00    +0.000 HD
ENDBRANCH  33  36
BRANCH  34  38
ATOM     38  O   UNL     1      -3.633  47.393  30.148  0.00  0.00    +0.000 OA
ATOM     39  H   UNL     1      -3.926  46.533  29.795  0.00  0.00    +0.000 HD
ENDBRANCH  34  38
BRANCH  35  40
ATOM     40  O   UNL     1      -1.573  48.048  28.540  0.00  0.00    +0.000 OA
ATOM     41  H   UNL     1      -1.796  47.209  28.987  0.00  0.00    +0.000 HD
ENDBRANCH  35  40
ENDBRANCH  29  30
ENDBRANCH  27  29
ENDBRANCH   2  27
TORSDOF 12
ENDMDL
MODEL 4
REMARK VINA RESULT:      -6.0     27.189     30.157
REMARK  Name = 
REMARK  12 active torsions:
REMARK  status: ('A' for Active; 'I' for Inactive)
REMARK    1  A    between atoms: O_2  and  C_12
REMARK    2  A    between atoms: O_2  and  C_24
REMARK    3  A    between atoms: O_3  and  C_18
REMARK    4  A    between atoms: O_4  and  C_23
REMARK    5  A    between atoms: O_5  and  C_25
REMARK    6  A    between atoms: O_6  and  C_26
REMARK    7  A    between atoms: O_8  and  C_27
REMARK    8  A    between atoms: O_9  and  C_31
REMARK    9  A    between atoms: O_10  and  C_32
REMARK   10  A    between atoms: O_11  and  C_33
REMARK   11  A    between atoms: C_13  and  C_16
REMARK   12  A    between atoms: C_24  and  C_28
REMARK                            x       y       z     vdW  Elec       q    Type
REMARK                         _______ _______ _______ _____ _____    ______ ____
ROOT
ATOM      1  O   UNL     1     -17.051  37.237   4.243  0.00  0.00    +0.000 OA
ATOM      2  C   UNL     1     -15.987  38.862   5.771  0.00  0.00    +0.000 C 
ATOM      3  C   UNL     1     -17.256  38.080   5.390  0.00  0.00    +0.000 C 
ATOM      4  C   UNL     1     -14.897  37.858   6.147  0.00  0.00    +0.000 C 
ATOM      5  C   UNL     1     -14.860  36.701   5.181  0.00  0.00    +0.000 A 
ATOM      6  C   UNL     1     -15.925  36.460   4.304  0.00  0.00    +0.000 A 
ATOM      7  C   UNL     1     -13.766  35.827   5.158  0.00  0.00    +0.000 A 
ATOM      8  C   UNL     1     -15.876  35.400   3.396  0.00  0.00    +0.000 A 
ATOM      9  C   UNL     1     -13.712  34.760   4.264  0.00  0.00    +0.000 A 
ATOM     10  C   UNL     1     -14.769  34.559   3.385  0.00  0.00    +0.000 A 
ENDROOT
BRANCH   3  11
ATOM     11  C   UNL     1     -18.428  39.012   5.115  0.00  0.00    +0.000 A 
ATOM     12  C   UNL     1     -19.226  39.467   6.183  0.00  0.00    +0.000 A 
ATOM     13  C   UNL     1     -18.712  39.460   3.811  0.00  0.00    +0.000 A 
ATOM     14  C   UNL     1     -19.771  40.336   3.593  0.00  0.00    +0.000 A 
ATOM     15  C   UNL     1     -20.288  40.343   5.949  0.00  0.00    +0.000 A 
ATOM     16  C   UNL     1     -20.558  40.776   4.655  0.00  0.00    +0.000 A 
BRANCH  14  17
ATOM     17  O   UNL     1     -20.075  40.798   2.341  0.00  0.00    +0.000 OA
ATOM     18  H   UNL     1     -20.279  40.035   1.774  0.00  0.00    +0.000 HD
ENDBRANCH  14  17
BRANCH  15  19
ATOM     19  O   UNL     1     -21.065  40.784   6.981  0.00  0.00    +0.000 OA
ATOM     20  H   UNL     1     -20.844  40.293   7.787  0.00  0.00    +0.000 HD
ENDBRANCH  15  19
BRANCH  16  21
ATOM     21  O   UNL     1     -21.590  41.638   4.404  0.00  0.00    +0.000 OA
ATOM     22  H   UNL     1     -22.139  41.180   3.739  0.00  0.00    +0.000 HD
ENDBRANCH  16  21
ENDBRANCH   3  11
BRANCH   7  23
ATOM     23  O   UNL     1     -12.739  36.041   6.034  0.00  0.00    +0.000 OA
ATOM     24  H   UNL     1     -11.933  35.632   5.678  0.00  0.00    +0.000 HD
ENDBRANCH   7  23
BRANCH  10  25
ATOM     25  O   UNL     1     -14.684  33.508   2.521  0.00  0.00    +0.000 OA
ATOM     26  H   UNL     1     -13.836  33.559   2.047  0.00  0.00    +0.000 HD
ENDBRANCH  10  25
BRANCH   2  27
ATOM     27  O   UNL     1     -15.536  39.642   4.636  0.00  0.00    +0.000 OA
BRANCH  27  29
ATOM     28  O   UNL     1     -14.017  41.207   5.351  0.00  0.00    +0.000 OA
ATOM     29  C   UNL     1     -15.107  40.896   4.899  0.00  0.00    +0.000 C 
BRANCH  29  30
ATOM     30  C   UNL     1     -16.183  41.871   4.590  0.00  0.00    +0.000 A 
ATOM     31  C   UNL     1     -16.979  42.330   5.652  0.00  0.00    +0.000 A 
ATOM     32  C   UNL     1     -16.406  42.337   3.283  0.00  0.00    +0.000 A 
ATOM     33  C   UNL     1     -17.433  43.249   3.041  0.00  0.00    +0.000 A 
ATOM     34  C   UNL     1     -17.999  43.237   5.391  0.00  0.00    +0.000 A 
ATOM     35  C   UNL     1     -18.230  43.692   4.092  0.00  0.00    +0.000 A 
BRANCH  33  36
ATOM     36  O   UNL     1     -17.665  43.710   1.777  0.00  0.00    +0.000 OA
ATOM     37  H   UNL     1     -16.861  44.123   1.428  0.00  0.00    +0.000 HD
ENDBRANCH  33  36
BRANCH  34  38
ATOM     38  O   UNL     1     -18.808  43.714   6.385  0.00  0.00    +0.000 OA
ATOM     39  H   UNL     1     -18.810  44.687   6.346  0.00  0.00    +0.000 HD
ENDBRANCH  34  38
BRANCH  35  40
ATOM     40  O   UNL     1     -19.243  44.584   3.873  0.00  0.00    +0.000 OA
ATOM     41  H   UNL     1     -18.953  45.113   3.104  0.00  0.00    +0.000 HD
ENDBRANCH  35  40
ENDBRANCH  29  30
ENDBRANCH  27  29
ENDBRANCH   2  27
TORSDOF 12
ENDMDL
MODEL 5
REMARK VINA RESULT:      -6.0     12.644     15.866
REMARK  Name = 
REMARK  12 active torsions:
REMARK  status: ('A' for Active; 'I' for Inactive)
REMARK    1  A    between atoms: O_2  and  C_12
REMARK    2  A    between atoms: O_2  and  C_24
REMARK    3  A    between atoms: O_3  and  C_18
REMARK    4  A    between atoms: O_4  and  C_23
REMARK    5  A    between atoms: O_5  and  C_25
REMARK    6  A    between atoms: O_6  and  C_26
REMARK    7  A    between atoms: O_8  and  C_27
REMARK    8  A    between atoms: O_9  and  C_31
REMARK    9  A    between atoms: O_10  and  C_32
REMARK   10  A    between atoms: O_11  and  C_33
REMARK   11  A    between atoms: C_13  and  C_16
REMARK   12  A    between atoms: C_24  and  C_28
REMARK                            x       y       z     vdW  Elec       q    Type
REMARK                         _______ _______ _______ _____ _____    ______ ____
ROOT
ATOM      1  O   UNL     1      -1.058  45.727  28.800  0.00  0.00    +0.000 OA
ATOM      2  C   UNL     1      -1.444  48.165  28.896  0.00  0.00    +0.000 C 
ATOM      3  C   UNL     1      -1.889  46.764  29.349  0.00  0.00    +0.000 C 
ATOM      4  C   UNL     1      -0.027  48.412  29.414  0.00  0.00    +0.000 C 
ATOM      5  C   UNL     1       0.846  47.198  29.222  0.00  0.00    +0.000 A 
ATOM      6  C   UNL     1       0.287  45.946  28.936  0.00  0.00    +0.000 A 
ATOM      7  C   UNL     1       2.237  47.295  29.348  0.00  0.00    +0.000 A 
ATOM      8  C   UNL     1       1.101  44.829  28.736  0.00  0.00    +0.000 A 
ATOM      9  C   UNL     1       3.058  46.184  29.163  0.00  0.00    +0.000 A 
ATOM     10  C   UNL     1       2.481  44.959  28.853  0.00  0.00    +0.000 A 
ENDROOT
BRANCH   3  11
ATOM     11  C   UNL     1      -3.338  46.486  28.973  0.00  0.00    +0.000 A 
ATOM     12  C   UNL     1      -3.636  45.487  28.026  0.00  0.00    +0.000 A 
ATOM     13  C   UNL     1      -4.396  47.188  29.581  0.00  0.00    +0.000 A 
ATOM     14  C   UNL     1      -5.712  46.892  29.240  0.00  0.00    +0.000 A 
ATOM     15  C   UNL     1      -4.961  45.203  27.691  0.00  0.00    +0.000 A 
ATOM     16  C   UNL     1      -5.997  45.905  28.298  0.00  0.00    +0.000 A 
BRANCH  14  17
ATOM     17  O   UNL     1      -6.768  47.548  29.813  0.00  0.00    +0.000 OA
ATOM     18  H   UNL     1      -6.763  48.468  29.499  0.00  0.00    +0.000 HD
ENDBRANCH  14  17
BRANCH  15  19
ATOM     19  O   UNL     1      -5.253  44.236  26.771  0.00  0.00    +0.000 OA
ATOM     20  H   UNL     1      -4.457  44.019  26.263  0.00  0.00    +0.000 HD
ENDBRANCH  15  19
BRANCH  16  21
ATOM     21  O   UNL     1      -7.302  45.640  27.987  0.00  0.00    +0.000 OA
ATOM     22  H   UNL     1      -7.705  46.518  27.844  0.00  0.00    +0.000 HD
ENDBRANCH  16  21
ENDBRANCH   3  11
BRANCH   7  23
ATOM     23  O   UNL     1       2.784  48.508  29.658  0.00  0.00    +0.000 OA
ATOM     24  H   UNL     1       3.025  48.512  30.599  0.00  0.00    +0.000 HD
ENDBRANCH   7  23
BRANCH  10  25
ATOM     25  O   UNL     1       3.313  43.894  28.675  0.00  0.00    +0.000 OA
ATOM     26  H   UNL     1       3.808  44.017  27.847  0.00  0.00    +0.000 HD
ENDBRANCH  10  25
BRANCH   2  27
ATOM     27  O   UNL     1      -1.433  48.229  27.448  0.00  0.00    +0.000 OA
BRANCH  27  29
ATOM     28  O   UNL     1      -1.127  50.291  26.487  0.00  0.00    +0.000 OA
ATOM     29  C   UNL     1      -1.844  49.391  26.894  0.00  0.00    +0.000 C 
BRANCH  29  30
ATOM     30  C   UNL     1      -3.327  49.444  26.878  0.00  0.00    +0.000 A 
ATOM     31  C   UNL     1      -4.010  48.533  26.056  0.00  0.00    +0.000 A 
ATOM     32  C   UNL     1      -4.043  50.365  27.663  0.00  0.00    +0.000 A 
ATOM     33  C   UNL     1      -5.435  50.380  27.612  0.00  0.00    +0.000 A 
ATOM     34  C   UNL     1      -5.398  48.566  26.016  0.00  0.00    +0.000 A 
ATOM     35  C   UNL     1      -6.110  49.486  26.785  0.00  0.00    +0.000 A 
BRANCH  33  36
ATOM     36  O   UNL     1      -6.146  51.269  28.367  0.00  0.00    +0.000 OA
ATOM     37  H   UNL     1      -6.488  51.978  27.801  0.00  0.00    +0.000 HD
ENDBRANCH  33  36
BRANCH  34  38
ATOM     38  O   UNL     1      -6.115  47.706  25.228  0.00  0.00    +0.000 OA
ATOM     39  H   UNL     1      -6.186  46.850  25.687  0.00  0.00    +0.000 HD
ENDBRANCH  34  38
BRANCH  35  40
ATOM     40  O   UNL     1      -7.476  49.490  26.720  0.00  0.00    +0.000 OA
ATOM     41  H   UNL     1      -7.763  48.823  27.374  0.00  0.00    +0.000 HD
ENDBRANCH  35  40
ENDBRANCH  29  30
ENDBRANCH  27  29
ENDBRANCH   2  27
TORSDOF 12
ENDMDL
MODEL 6
REMARK VINA RESULT:      -6.0     12.682     15.911
REMARK  Name = 
REMARK  12 active torsions:
REMARK  status: ('A' for Active; 'I' for Inactive)
REMARK    1  A    between atoms: O_2  and  C_12
REMARK    2  A    between atoms: O_2  and  C_24
REMARK    3  A    between atoms: O_3  and  C_18
REMARK    4  A    between atoms: O_4  and  C_23
REMARK    5  A    between atoms: O_5  and  C_25
REMARK    6  A    between atoms: O_6  and  C_26
REMARK    7  A    between atoms: O_8  and  C_27
REMARK    8  A    between atoms: O_9  and  C_31
REMARK    9  A    between atoms: O_10  and  C_32
REMARK   10  A    between atoms: O_11  and  C_33
REMARK   11  A    between atoms: C_13  and  C_16
REMARK   12  A    between atoms: C_24  and  C_28
REMARK                            x       y       z     vdW  Elec       q    Type
REMARK                         _______ _______ _______ _____ _____    ______ ____
ROOT
ATOM      1  O   UNL     1      -1.030  45.728  28.843  0.00  0.00    +0.000 OA
ATOM      2  C   UNL     1      -1.325  48.176  29.009  0.00  0.00    +0.000 C 
ATOM      3  C   UNL     1      -1.807  46.780  29.441  0.00  0.00    +0.000 C 
ATOM      4  C   UNL     1       0.114  48.360  29.489  0.00  0.00    +0.000 C 
ATOM      5  C   UNL     1       0.938  47.121  29.241  0.00  0.00    +0.000 A 
ATOM      6  C   UNL     1       0.326  45.897  28.943  0.00  0.00    +0.000 A 
ATOM      7  C   UNL     1       2.334  47.166  29.328  0.00  0.00    +0.000 A 
ATOM      8  C   UNL     1       1.093  44.758  28.693  0.00  0.00    +0.000 A 
ATOM      9  C   UNL     1       3.109  46.032  29.092  0.00  0.00    +0.000 A 
ATOM     10  C   UNL     1       2.480  44.836  28.771  0.00  0.00    +0.000 A 
ENDROOT
BRANCH   3  11
ATOM     11  C   UNL     1      -3.275  46.563  29.102  0.00  0.00    +0.000 A 
ATOM     12  C   UNL     1      -3.641  45.547  28.197  0.00  0.00    +0.000 A 
ATOM     13  C   UNL     1      -4.284  47.337  29.705  0.00  0.00    +0.000 A 
ATOM     14  C   UNL     1      -5.620  47.096  29.399  0.00  0.00    +0.000 A 
ATOM     15  C   UNL     1      -4.986  45.319  27.897  0.00  0.00    +0.000 A 
ATOM     16  C   UNL     1      -5.972  46.093  28.499  0.00  0.00    +0.000 A 
BRANCH  14  17
ATOM     17  O   UNL     1      -6.630  47.824  29.968  0.00  0.00    +0.000 OA
ATOM     18  H   UNL     1      -6.900  47.382  30.791  0.00  0.00    +0.000 HD
ENDBRANCH  14  17
BRANCH  15  19
ATOM     19  O   UNL     1      -5.344  44.337  27.019  0.00  0.00    +0.000 OA
ATOM     20  H   UNL     1      -4.848  43.528  27.215  0.00  0.00    +0.000 HD
ENDBRANCH  15  19
BRANCH  16  21
ATOM     21  O   UNL     1      -7.295  45.884  28.222  0.00  0.00    +0.000 OA
ATOM     22  H   UNL     1      -7.770  46.249  28.992  0.00  0.00    +0.000 HD
ENDBRANCH  16  21
ENDBRANCH   3  11
BRANCH   7  23
ATOM     23  O   UNL     1       2.933  48.352  29.650  0.00  0.00    +0.000 OA
ATOM     24  H   UNL     1       2.290  49.070  29.527  0.00  0.00    +0.000 HD
ENDBRANCH   7  23
BRANCH  10  25
ATOM     25  O   UNL     1       3.267  43.747  28.543  0.00  0.00    +0.000 OA
ATOM     26  H   UNL     1       3.965  43.991  27.911  0.00  0.00    +0.000 HD
ENDBRANCH  10  25
BRANCH   2  27
ATOM     27  O   UNL     1      -1.355  48.275  27.563  0.00  0.00    +0.000 OA
BRANCH  27  29
ATOM     28  O   UNL     1      -0.994  50.371  26.698  0.00  0.00    +0.000 OA
ATOM     29  C   UNL     1      -1.733  49.466  27.048  0.00  0.00    +0.000 C 
BRANCH  29  30
ATOM     30  C   UNL     1      -3.215  49.543  27.000  0.00  0.00    +0.000 A 
ATOM     31  C   UNL     1      -3.849  50.522  27.782  0.00  0.00    +0.000 A 
ATOM     32  C   UNL     1      -3.976  48.678  26.194  0.00  0.00    +0.000 A 
ATOM     33  C   UNL     1      -5.365  48.786  26.185  0.00  0.00    +0.000 A 
ATOM     34  C   UNL     1      -5.235  50.612  27.762  0.00  0.00    +0.000 A 
ATOM     35  C   UNL     1      -5.992  49.747  26.972  0.00  0.00    +0.000 A 
BRANCH  33  36
ATOM     36  O   UNL     1      -6.119  47.952  25.409  0.00  0.00    +0.000 OA
ATOM     37  H   UNL     1      -5.780  47.956  24.502  0.00  0.00    +0.000 HD
ENDBRANCH  33  36
BRANCH  34  38
ATOM     38  O   UNL     1      -5.906  51.543  28.509  0.00  0.00    +0.000 OA
ATOM     39  H   UNL     1      -5.533  51.547  29.409  0.00  0.00    +0.000 HD
ENDBRANCH  34  38
BRANCH  35  40
ATOM     40  O   UNL     1      -7.355  49.865  26.978  0.00  0.00    +0.000 OA
ATOM     41  H   UNL     1      -7.539  50.706  26.517  0.00  0.00    +0.000 HD
ENDBRANCH  35  40
ENDBRANCH  29  30
ENDBRANCH  27  29
ENDBRANCH   2  27
TORSDOF 12
ENDMDL
MODEL 7
REMARK VINA RESULT:      -5.9     27.175     30.300
REMARK  Name = 
REMARK  12 active torsions:
REMARK  status: ('A' for Active; 'I' for Inactive)
REMARK    1  A    between atoms: O_2  and  C_12
REMARK    2  A    between atoms: O_2  and  C_24
REMARK    3  A    between atoms: O_3  and  C_18
REMARK    4  A    between atoms: O_4  and  C_23
REMARK    5  A    between atoms: O_5  and  C_25
REMARK    6  A    between atoms: O_6  and  C_26
REMARK    7  A    between atoms: O_8  and  C_27
REMARK    8  A    between atoms: O_9  and  C_31
REMARK    9  A    between atoms: O_10  and  C_32
REMARK   10  A    between atoms: O_11  and  C_33
REMARK   11  A    between atoms: C_13  and  C_16
REMARK   12  A    between atoms: C_24  and  C_28
REMARK                            x       y       z     vdW  Elec       q    Type
REMARK                         _______ _______ _______ _____ _____    ______ ____
ROOT
ATOM      1  O   UNL     1     -18.417  38.778   6.460  0.00  0.00    +0.000 OA
ATOM      2  C   UNL     1     -16.459  37.889   5.242  0.00  0.00    +0.000 C 
ATOM      3  C   UNL     1     -16.996  38.899   6.272  0.00  0.00    +0.000 C 
ATOM      4  C   UNL     1     -16.719  36.478   5.769  0.00  0.00    +0.000 C 
ATOM      5  C   UNL     1     -18.102  36.357   6.356  0.00  0.00    +0.000 A 
ATOM      6  C   UNL     1     -18.855  37.497   6.667  0.00  0.00    +0.000 A 
ATOM      7  C   UNL     1     -18.655  35.099   6.624  0.00  0.00    +0.000 A 
ATOM      8  C   UNL     1     -20.145  37.381   7.189  0.00  0.00    +0.000 A 
ATOM      9  C   UNL     1     -19.937  34.972   7.156  0.00  0.00    +0.000 A 
ATOM     10  C   UNL     1     -20.673  36.117   7.430  0.00  0.00    +0.000 A 
ENDROOT
BRANCH   3  11
ATOM     11  C   UNL     1     -16.670  40.332   5.875  0.00  0.00    +0.000 A 
ATOM     12  C   UNL     1     -15.343  40.688   5.564  0.00  0.00    +0.000 A 
ATOM     13  C   UNL     1     -17.680  41.308   5.777  0.00  0.00    +0.000 A 
ATOM     14  C   UNL     1     -17.357  42.603   5.383  0.00  0.00    +0.000 A 
ATOM     15  C   UNL     1     -15.034  41.992   5.173  0.00  0.00    +0.000 A 
ATOM     16  C   UNL     1     -16.041  42.947   5.083  0.00  0.00    +0.000 A 
BRANCH  14  17
ATOM     17  O   UNL     1     -18.311  43.579   5.271  0.00  0.00    +0.000 OA
ATOM     18  H   UNL     1     -18.649  43.780   6.161  0.00  0.00    +0.000 HD
ENDBRANCH  14  17
BRANCH  15  19
ATOM     19  O   UNL     1     -13.748  42.340   4.874  0.00  0.00    +0.000 OA
ATOM     20  H   UNL     1     -13.572  43.239   5.189  0.00  0.00    +0.000 HD
ENDBRANCH  15  19
BRANCH  16  21
ATOM     21  O   UNL     1     -15.761  44.229   4.698  0.00  0.00    +0.000 OA
ATOM     22  H   UNL     1     -14.786  44.266   4.654  0.00  0.00    +0.000 HD
ENDBRANCH  16  21
ENDBRANCH   3  11
BRANCH   7  23
ATOM     23  O   UNL     1     -17.911  33.986   6.352  0.00  0.00    +0.000 OA
ATOM     24  H   UNL     1     -16.984  34.251   6.228  0.00  0.00    +0.000 HD
ENDBRANCH   7  23
BRANCH  10  25
ATOM     25  O   UNL     1     -21.925  35.957   7.946  0.00  0.00    +0.000 OA
ATOM     26  H   UNL     1     -22.210  36.796   8.346  0.00  0.00    +0.000 HD
ENDBRANCH  10  25
BRANCH   2  27
ATOM     27  O   UNL     1     -17.159  38.057   3.984  0.00  0.00    +0.000 OA
BRANCH  27  29
ATOM     28  O   UNL     1     -15.431  37.967   2.476  0.00  0.00    +0.000 OA
ATOM     29  C   UNL     1     -16.425  38.502   2.941  0.00  0.00    +0.000 C 
BRANCH  29  30
ATOM     30  C   UNL     1     -16.982  39.785   2.444  0.00  0.00    +0.000 A 
ATOM     31  C   UNL     1     -18.368  39.983   2.544  0.00  0.00    +0.000 A 
ATOM     32  C   UNL     1     -16.160  40.786   1.897  0.00  0.00    +0.000 A 
ATOM     33  C   UNL     1     -16.730  41.973   1.440  0.00  0.00    +0.000 A 
ATOM     34  C   UNL     1     -18.918  41.171   2.080  0.00  0.00    +0.000 A 
ATOM     35  C   UNL     1     -18.106  42.161   1.526  0.00  0.00    +0.000 A 
BRANCH  33  36
ATOM     36  O   UNL     1     -15.947  42.955   0.903  0.00  0.00    +0.000 OA
ATOM     37  H   UNL     1     -15.022  42.668   0.898  0.00  0.00    +0.000 HD
ENDBRANCH  33  36
BRANCH  34  38
ATOM     38  O   UNL     1     -20.263  41.415   2.147  0.00  0.00    +0.000 OA
ATOM     39  H   UNL     1     -20.435  42.309   1.799  0.00  0.00    +0.000 HD
ENDBRANCH  34  38
BRANCH  35  40
ATOM     40  O   UNL     1     -18.683  43.318   1.079  0.00  0.00    +0.000 OA
ATOM     41  H   UNL     1     -19.389  43.516   1.724  0.00  0.00    +0.000 HD
ENDBRANCH  35  40
ENDBRANCH  29  30
ENDBRANCH  27  29
ENDBRANCH   2  27
TORSDOF 12
ENDMDL
MODEL 8
REMARK VINA RESULT:      -5.7     28.667     31.859
REMARK  Name = 
REMARK  12 active torsions:
REMARK  status: ('A' for Active; 'I' for Inactive)
REMARK    1  A    between atoms: O_2  and  C_12
REMARK    2  A    between atoms: O_2  and  C_24
REMARK    3  A    between atoms: O_3  and  C_18
REMARK    4  A    between atoms: O_4  and  C_23
REMARK    5  A    between atoms: O_5  and  C_25
REMARK    6  A    between atoms: O_6  and  C_26
REMARK    7  A    between atoms: O_8  and  C_27
REMARK    8  A    between atoms: O_9  and  C_31
REMARK    9  A    between atoms: O_10  and  C_32
REMARK   10  A    between atoms: O_11  and  C_33
REMARK   11  A    between atoms: C_13  and  C_16
REMARK   12  A    between atoms: C_24  and  C_28
REMARK                            x       y       z     vdW  Elec       q    Type
REMARK                         _______ _______ _______ _____ _____    ______ ____
ROOT
ATOM      1  O   UNL     1     -16.660  38.855   6.010  0.00  0.00    +0.000 OA
ATOM      2  C   UNL     1     -19.111  38.888   6.323  0.00  0.00    +0.000 C 
ATOM      3  C   UNL     1     -17.751  38.347   6.797  0.00  0.00    +0.000 C 
ATOM      4  C   UNL     1     -19.111  40.407   6.495  0.00  0.00    +0.000 C 
ATOM      5  C   UNL     1     -17.809  41.012   6.034  0.00  0.00    +0.000 A 
ATOM      6  C   UNL     1     -16.677  40.213   5.828  0.00  0.00    +0.000 A 
ATOM      7  C   UNL     1     -17.699  42.392   5.825  0.00  0.00    +0.000 A 
ATOM      8  C   UNL     1     -15.479  40.773   5.380  0.00  0.00    +0.000 A 
ATOM      9  C   UNL     1     -16.505  42.963   5.390  0.00  0.00    +0.000 A 
ATOM     10  C   UNL     1     -15.404  42.146   5.166  0.00  0.00    +0.000 A 
ENDROOT
BRANCH   3  11
ATOM     11  C   UNL     1     -17.713  36.824   6.768  0.00  0.00    +0.000 A 
ATOM     12  C   UNL     1     -18.382  36.089   7.766  0.00  0.00    +0.000 A 
ATOM     13  C   UNL     1     -17.047  36.132   5.739  0.00  0.00    +0.000 A 
ATOM     14  C   UNL     1     -17.054  34.741   5.722  0.00  0.00    +0.000 A 
ATOM     15  C   UNL     1     -18.378  34.693   7.737  0.00  0.00    +0.000 A 
ATOM     16  C   UNL     1     -17.715  34.021   6.716  0.00  0.00    +0.000 A 
BRANCH  14  17
ATOM     17  O   UNL     1     -16.424  34.031   4.736  0.00  0.00    +0.000 OA
ATOM     18  H   UNL     1     -15.925  34.655   4.181  0.00  0.00    +0.000 HD
ENDBRANCH  14  17
BRANCH  15  19
ATOM     19  O   UNL     1     -19.024  33.977   8.704  0.00  0.00    +0.000 OA
ATOM     20  H   UNL     1     -18.525  34.027   9.533  0.00  0.00    +0.000 HD
ENDBRANCH  15  19
BRANCH  16  21
ATOM     21  O   UNL     1     -17.702  32.655   6.667  0.00  0.00    +0.000 OA
ATOM     22  H   UNL     1     -18.632  32.404   6.510  0.00  0.00    +0.000 HD
ENDBRANCH  16  21
ENDBRANCH   3  11
BRANCH   7  23
ATOM     23  O   UNL     1     -18.792  43.178   6.056  0.00  0.00    +0.000 OA
ATOM     24  H   UNL     1     -19.504  42.625   6.420  0.00  0.00    +0.000 HD
ENDBRANCH   7  23
BRANCH  10  25
ATOM     25  O   UNL     1     -14.253  42.736   4.737  0.00  0.00    +0.000 OA
ATOM     26  H   UNL     1     -13.789  43.115   5.504  0.00  0.00    +0.000 HD
ENDBRANCH  10  25
BRANCH   2  27
ATOM     27  O   UNL     1     -19.299  38.574   4.921  0.00  0.00    +0.000 OA
BRANCH  27  29
ATOM     28  O   UNL     1     -21.269  38.901   3.788  0.00  0.00    +0.000 OA
ATOM     29  C   UNL     1     -20.555  38.255   4.538  0.00  0.00    +0.000 C 
BRANCH  29  30
ATOM     30  C   UNL     1     -20.979  36.996   5.202  0.00  0.00    +0.000 A 
ATOM     31  C   UNL     1     -20.585  35.781   4.620  0.00  0.00    +0.000 A 
ATOM     32  C   UNL     1     -21.743  37.003   6.382  0.00  0.00    +0.000 A 
ATOM     33  C   UNL     1     -22.121  35.796   6.967  0.00  0.00    +0.000 A 
ATOM     34  C   UNL     1     -20.974  34.587   5.216  0.00  0.00    +0.000 A 
ATOM     35  C   UNL     1     -21.742  34.592   6.380  0.00  0.00    +0.000 A 
BRANCH  33  36
ATOM     36  O   UNL     1     -22.865  35.784   8.112  0.00  0.00    +0.000 OA
ATOM     37  H   UNL     1     -23.802  35.680   7.891  0.00  0.00    +0.000 HD
ENDBRANCH  33  36
BRANCH  34  38
ATOM     38  O   UNL     1     -20.624  33.374   4.689  0.00  0.00    +0.000 OA
ATOM     39  H   UNL     1     -21.000  32.671   5.249  0.00  0.00    +0.000 HD
ENDBRANCH  34  38
BRANCH  35  40
ATOM     40  O   UNL     1     -22.107  33.397   6.939  0.00  0.00    +0.000 OA
ATOM     41  H   UNL     1     -22.573  32.917   6.227  0.00  0.00    +0.000 HD
ENDBRANCH  35  40
ENDBRANCH  29  30
ENDBRANCH  27  29
ENDBRANCH   2  27
TORSDOF 12
ENDMDL
MODEL 9
REMARK VINA RESULT:      -5.6     27.559     30.623
REMARK  Name = 
REMARK  12 active torsions:
REMARK  status: ('A' for Active; 'I' for Inactive)
REMARK    1  A    between atoms: O_2  and  C_12
REMARK    2  A    between atoms: O_2  and  C_24
REMARK    3  A    between atoms: O_3  and  C_18
REMARK    4  A    between atoms: O_4  and  C_23
REMARK    5  A    between atoms: O_5  and  C_25
REMARK    6  A    between atoms: O_6  and  C_26
REMARK    7  A    between atoms: O_8  and  C_27
REMARK    8  A    between atoms: O_9  and  C_31
REMARK    9  A    between atoms: O_10  and  C_32
REMARK   10  A    between atoms: O_11  and  C_33
REMARK   11  A    between atoms: C_13  and  C_16
REMARK   12  A    between atoms: C_24  and  C_28
REMARK                            x       y       z     vdW  Elec       q    Type
REMARK                         _______ _______ _______ _____ _____    ______ ____
ROOT
ATOM      1  O   UNL     1     -18.036  38.164   4.274  0.00  0.00    +0.000 OA
ATOM      2  C   UNL     1     -17.283  39.860   5.906  0.00  0.00    +0.000 C 
ATOM      3  C   UNL     1     -18.435  38.982   5.387  0.00  0.00    +0.000 C 
ATOM      4  C   UNL     1     -16.167  38.944   6.407  0.00  0.00    +0.000 C 
ATOM      5  C   UNL     1     -15.929  37.798   5.456  0.00  0.00    +0.000 A 
ATOM      6  C   UNL     1     -16.865  37.478   4.465  0.00  0.00    +0.000 A 
ATOM      7  C   UNL     1     -14.773  37.015   5.561  0.00  0.00    +0.000 A 
ATOM      8  C   UNL     1     -16.630  36.430   3.573  0.00  0.00    +0.000 A 
ATOM      9  C   UNL     1     -14.535  35.959   4.683  0.00  0.00    +0.000 A 
ATOM     10  C   UNL     1     -15.466  35.679   3.691  0.00  0.00    +0.000 A 
ENDROOT
BRANCH   3  11
ATOM     11  C   UNL     1     -19.639  39.820   4.976  0.00  0.00    +0.000 A 
ATOM     12  C   UNL     1     -19.851  40.120   3.617  0.00  0.00    +0.000 A 
ATOM     13  C   UNL     1     -20.569  40.274   5.930  0.00  0.00    +0.000 A 
ATOM     14  C   UNL     1     -21.676  41.012   5.522  0.00  0.00    +0.000 A 
ATOM     15  C   UNL     1     -20.965  40.865   3.223  0.00  0.00    +0.000 A 
ATOM     16  C   UNL     1     -21.875  41.309   4.176  0.00  0.00    +0.000 A 
BRANCH  14  17
ATOM     17  O   UNL     1     -22.606  41.467   6.418  0.00  0.00    +0.000 OA
ATOM     18  H   UNL     1     -23.085  42.209   6.012  0.00  0.00    +0.000 HD
ENDBRANCH  14  17
BRANCH  15  19
ATOM     19  O   UNL     1     -21.172  41.160   1.906  0.00  0.00    +0.000 OA
ATOM     20  H   UNL     1     -20.341  41.067   1.417  0.00  0.00    +0.000 HD
ENDBRANCH  15  19
BRANCH  16  21
ATOM     21  O   UNL     1     -22.975  42.036   3.811  0.00  0.00    +0.000 OA
ATOM     22  H   UNL     1     -23.537  42.052   4.609  0.00  0.00    +0.000 HD
ENDBRANCH  16  21
ENDBRANCH   3  11
BRANCH   7  23
ATOM     23  O   UNL     1     -13.873  37.305   6.547  0.00  0.00    +0.000 OA
ATOM     24  H   UNL     1     -14.094  38.170   6.929  0.00  0.00    +0.000 HD
ENDBRANCH   7  23
BRANCH  10  25
ATOM     25  O   UNL     1     -15.200  34.642   2.847  0.00  0.00    +0.000 OA
ATOM     26  H   UNL     1     -15.953  34.027   2.858  0.00  0.00    +0.000 HD
ENDBRANCH  10  25
BRANCH   2  27
ATOM     27  O   UNL     1     -16.770  40.679   4.825  0.00  0.00    +0.000 OA
BRANCH  27  29
ATOM     28  O   UNL     1     -15.699  42.435   5.844  0.00  0.00    +0.000 OA
ATOM     29  C   UNL     1     -16.559  41.984   5.106  0.00  0.00    +0.000 C 
BRANCH  29  30
ATOM     30  C   UNL     1     -17.569  42.818   4.407  0.00  0.00    +0.000 A 
ATOM     31  C   UNL     1     -18.636  43.330   5.161  0.00  0.00    +0.000 A 
ATOM     32  C   UNL     1     -17.470  43.103   3.034  0.00  0.00    +0.000 A 
ATOM     33  C   UNL     1     -18.445  43.887   2.419  0.00  0.00    +0.000 A 
ATOM     34  C   UNL     1     -19.601  44.107   4.531  0.00  0.00    +0.000 A 
ATOM     35  C   UNL     1     -19.511  44.382   3.166  0.00  0.00    +0.000 A 
BRANCH  33  36
ATOM     36  O   UNL     1     -18.366  44.172   1.086  0.00  0.00    +0.000 OA
ATOM     37  H   UNL     1     -19.254  44.169   0.699  0.00  0.00    +0.000 HD
ENDBRANCH  33  36
BRANCH  34  38
ATOM     38  O   UNL     1     -20.665  44.627   5.216  0.00  0.00    +0.000 OA
ATOM     39  H   UNL     1     -21.408  44.000   5.159  0.00  0.00    +0.000 HD
ENDBRANCH  34  38
BRANCH  35  40
ATOM     40  O   UNL     1     -20.479  45.150   2.579  0.00  0.00    +0.000 OA
ATOM     41  H   UNL     1     -20.169  46.070   2.682  0.00  0.00    +0.000 HD
ENDBRANCH  35  40
ENDBRANCH  29  30
ENDBRANCH  27  29
ENDBRANCH   2  27
TORSDOF 12
ENDMDL
