REMARK  Name = Estradiol.pdbqt.pdb
REMARK  2 active torsions:
REMARK  status: ('A' for Active; 'I' for Inactive)
REMARK    1  A    between atoms: C_5  and  O_19
REMARK    2  A    between atoms: C_18  and  O_21
REMARK                            x       y       z     vdW  Elec       q    Type
REMARK                         _______ _______ _______ _____ _____    ______ ____
ROOT
ATOM      1  C   UNL     1       2.907   0.469   0.778  0.00  0.00    +0.000 C 
ATOM      2  C   UNL     1       2.070  -0.875   0.510  0.00  0.00    +0.000 C 
ATOM      3  C   UNL     1       0.607  -0.852   0.357  0.00  0.00    +0.000 A 
ATOM      4  C   UNL     1      -0.257   0.378   0.180  0.00  0.00    +0.000 A 
ATOM      5  C   UNL     1       4.113   0.313  -0.172  0.00  0.00    +0.000 C 
ATOM      6  C   UNL     1       2.015   1.576   0.430  0.00  0.00    +0.000 C 
ATOM      7  C   UNL     1       2.868  -1.698  -0.349  0.00  0.00    +0.000 C 
ATOM      8  C   UNL     1       0.527   1.559   0.175  0.00  0.00    +0.000 C 
ATOM      9  C   UNL     1       4.106  -0.963  -0.796  0.00  0.00    +0.000 C 
ATOM     10  C   UNL     1      -0.167  -2.040   0.313  0.00  0.00    +0.000 A 
ATOM     11  C   UNL     1       3.374   0.479   2.257  0.00  0.00    +0.000 C 
ATOM     12  C   UNL     1      -1.750   0.348   0.025  0.00  0.00    +0.000 A 
ATOM     13  C   UNL     1      -1.666  -2.067   0.144  0.00  0.00    +0.000 A 
ATOM     14  C   UNL     1      -2.460  -0.891   0.008  0.00  0.00    +0.000 A 
ATOM     15  C   UNL     1      -2.480   1.530  -0.101  0.00  0.00    +0.000 A 
ATOM     16  C   UNL     1      -3.841  -0.940  -0.125  0.00  0.00    +0.000 A 
ATOM     17  C   UNL     1      -3.868   1.488  -0.235  0.00  0.00    +0.000 A 
ATOM     18  C   UNL     1      -4.532   0.260  -0.245  0.00  0.00    +0.000 A 
ENDROOT
BRANCH   5  19
ATOM     19  O   UNL     1       4.795   1.389  -0.698  0.00  0.00    +0.000 OA
ATOM     20  H   UNL     1       5.453   1.110  -1.360  0.00  0.00    +0.000 HD
ENDBRANCH   5  19
BRANCH  18  21
ATOM     21  O   UNL     1      -5.891   0.211  -0.371  0.00  0.00    +0.000 OA
ATOM     22  H   UNL     1      -6.227   1.123  -0.429  0.00  0.00    +0.000 HD
ENDBRANCH  18  21
TORSDOF 2
