MODEL 1
REMARK VINA RESULT:      -7.0      0.000      0.000
REMARK  Name = Estradiol.pdbqt.pdb
REMARK  2 active torsions:
REMARK  status: ('A' for Active; 'I' for Inactive)
REMARK    1  A    between atoms: C_5  and  O_19
REMARK    2  A    between atoms: C_18  and  O_21
REMARK                            x       y       z     vdW  Elec       q    Type
REMARK                         _______ _______ _______ _____ _____    ______ ____
ROOT
ATOM      1  C   UNL     1       3.800  53.657  16.084  0.00  0.00    +0.000 C 
ATOM      2  C   UNL     1       3.753  54.924  17.070  0.00  0.00    +0.000 C 
ATOM      3  C   UNL     1       4.888  55.260  17.944  0.00  0.00    +0.000 A 
ATOM      4  C   UNL     1       6.279  54.668  17.875  0.00  0.00    +0.000 A 
ATOM      5  C   UNL     1       3.210  54.224  14.775  0.00  0.00    +0.000 C 
ATOM      6  C   UNL     1       5.209  53.275  15.984  0.00  0.00    +0.000 C 
ATOM      7  C   UNL     1       3.047  55.962  16.381  0.00  0.00    +0.000 C 
ATOM      8  C   UNL     1       6.380  53.715  16.831  0.00  0.00    +0.000 C 
ATOM      9  C   UNL     1       2.739  55.551  14.964  0.00  0.00    +0.000 C 
ATOM     10  C   UNL     1       4.796  56.251  18.955  0.00  0.00    +0.000 A 
ATOM     11  C   UNL     1       2.886  52.544  16.658  0.00  0.00    +0.000 C 
ATOM     12  C   UNL     1       7.407  55.048  18.791  0.00  0.00    +0.000 A 
ATOM     13  C   UNL     1       5.935  56.639  19.865  0.00  0.00    +0.000 A 
ATOM     14  C   UNL     1       7.229  56.045  19.797  0.00  0.00    +0.000 A 
ATOM     15  C   UNL     1       8.654  54.432  18.684  0.00  0.00    +0.000 A 
ATOM     16  C   UNL     1       8.255  56.404  20.660  0.00  0.00    +0.000 A 
ATOM     17  C   UNL     1       9.690  54.787  19.547  0.00  0.00    +0.000 A 
ATOM     18  C   UNL     1       9.482  55.764  20.523  0.00  0.00    +0.000 A 
ENDROOT
BRANCH   5  19
ATOM     19  O   UNL     1       3.529  53.723  13.532  0.00  0.00    +0.000 OA
ATOM     20  H   UNL     1       2.953  52.978  13.284  0.00  0.00    +0.000 HD
ENDBRANCH   5  19
BRANCH  18  21
ATOM     21  O   UNL     1      10.490  56.114  21.375  0.00  0.00    +0.000 OA
ATOM     22  H   UNL     1      11.155  55.404  21.372  0.00  0.00    +0.000 HD
ENDBRANCH  18  21
TORSDOF 2
ENDMDL
MODEL 2
REMARK VINA RESULT:      -6.9     14.432     17.331
REMARK  Name = Estradiol.pdbqt.pdb
REMARK  2 active torsions:
REMARK  status: ('A' for Active; 'I' for Inactive)
REMARK    1  A    between atoms: C_5  and  O_19
REMARK    2  A    between atoms: C_18  and  O_21
REMARK                            x       y       z     vdW  Elec       q    Type
REMARK                         _______ _______ _______ _____ _____    ______ ____
ROOT
ATOM      1  C   UNL     1      -3.510  48.415  27.658  0.00  0.00    +0.000 C 
ATOM      2  C   UNL     1      -4.216  47.138  26.988  0.00  0.00    +0.000 C 
ATOM      3  C   UNL     1      -5.563  47.223  26.401  0.00  0.00    +0.000 A 
ATOM      4  C   UNL     1      -6.339  48.491  26.118  0.00  0.00    +0.000 A 
ATOM      5  C   UNL     1      -2.070  48.333  27.109  0.00  0.00    +0.000 C 
ATOM      6  C   UNL     1      -4.260  49.582  27.190  0.00  0.00    +0.000 C 
ATOM      7  C   UNL     1      -3.189  46.396  26.321  0.00  0.00    +0.000 C 
ATOM      8  C   UNL     1      -5.598  49.640  26.494  0.00  0.00    +0.000 C 
ATOM      9  C   UNL     1      -1.878  47.139  26.364  0.00  0.00    +0.000 C 
ATOM     10  C   UNL     1      -6.279  46.073  25.981  0.00  0.00    +0.000 A 
ATOM     11  C   UNL     1      -3.518  48.239  29.199  0.00  0.00    +0.000 C 
ATOM     12  C   UNL     1      -7.712  48.525  25.514  0.00  0.00    +0.000 A 
ATOM     13  C   UNL     1      -7.654  46.112  25.362  0.00  0.00    +0.000 A 
ATOM     14  C   UNL     1      -8.375  47.319  25.133  0.00  0.00    +0.000 A 
ATOM     15  C   UNL     1      -8.376  49.736  25.314  0.00  0.00    +0.000 A 
ATOM     16  C   UNL     1      -9.649  47.329  24.581  0.00  0.00    +0.000 A 
ATOM     17  C   UNL     1      -9.656  49.753  24.760  0.00  0.00    +0.000 A 
ATOM     18  C   UNL     1     -10.278  48.555  24.401  0.00  0.00    +0.000 A 
ENDROOT
BRANCH   5  19
ATOM     19  O   UNL     1      -1.267  49.442  26.948  0.00  0.00    +0.000 OA
ATOM     20  H   UNL     1      -1.791  50.259  26.874  0.00  0.00    +0.000 HD
ENDBRANCH   5  19
BRANCH  18  21
ATOM     21  O   UNL     1     -11.533  48.563  23.862  0.00  0.00    +0.000 OA
ATOM     22  H   UNL     1     -12.177  48.657  24.586  0.00  0.00    +0.000 HD
ENDBRANCH  18  21
TORSDOF 2
ENDMDL
MODEL 3
REMARK VINA RESULT:      -6.3     28.365     31.612
REMARK  Name = Estradiol.pdbqt.pdb
REMARK  2 active torsions:
REMARK  status: ('A' for Active; 'I' for Inactive)
REMARK    1  A    between atoms: C_5  and  O_19
REMARK    2  A    between atoms: C_18  and  O_21
REMARK                            x       y       z     vdW  Elec       q    Type
REMARK                         _______ _______ _______ _____ _____    ______ ____
ROOT
ATOM      1  C   UNL     1     -16.565  41.092   4.819  0.00  0.00    +0.000 C 
ATOM      2  C   UNL     1     -18.138  40.910   5.081  0.00  0.00    +0.000 C 
ATOM      3  C   UNL     1     -18.690  39.648   5.599  0.00  0.00    +0.000 A 
ATOM      4  C   UNL     1     -17.899  38.491   6.172  0.00  0.00    +0.000 A 
ATOM      5  C   UNL     1     -16.284  42.494   5.400  0.00  0.00    +0.000 C 
ATOM      6  C   UNL     1     -15.906  40.005   5.543  0.00  0.00    +0.000 C 
ATOM      7  C   UNL     1     -18.626  42.162   5.577  0.00  0.00    +0.000 C 
ATOM      8  C   UNL     1     -16.508  38.765   6.158  0.00  0.00    +0.000 C 
ATOM      9  C   UNL     1     -17.490  43.126   5.805  0.00  0.00    +0.000 C 
ATOM     10  C   UNL     1     -20.086  39.400   5.655  0.00  0.00    +0.000 A 
ATOM     11  C   UNL     1     -16.309  41.074   3.289  0.00  0.00    +0.000 C 
ATOM     12  C   UNL     1     -18.511  37.222   6.690  0.00  0.00    +0.000 A 
ATOM     13  C   UNL     1     -20.698  38.128   6.189  0.00  0.00    +0.000 A 
ATOM     14  C   UNL     1     -19.928  37.042   6.697  0.00  0.00    +0.000 A 
ATOM     15  C   UNL     1     -17.710  36.187   7.173  0.00  0.00    +0.000 A 
ATOM     16  C   UNL     1     -20.513  35.872   7.164  0.00  0.00    +0.000 A 
ATOM     17  C   UNL     1     -18.292  35.010   7.644  0.00  0.00    +0.000 A 
ATOM     18  C   UNL     1     -19.680  34.864   7.634  0.00  0.00    +0.000 A 
ENDROOT
BRANCH   5  19
ATOM     19  O   UNL     1     -15.053  42.866   5.895  0.00  0.00    +0.000 OA
ATOM     20  H   UNL     1     -15.133  43.540   6.594  0.00  0.00    +0.000 HD
ENDBRANCH   5  19
BRANCH  18  21
ATOM     21  O   UNL     1     -20.257  33.712   8.089  0.00  0.00    +0.000 OA
ATOM     22  H   UNL     1     -20.875  33.940   8.805  0.00  0.00    +0.000 HD
ENDBRANCH  18  21
TORSDOF 2
ENDMDL
MODEL 4
REMARK VINA RESULT:      -6.3      1.637      2.255
REMARK  Name = Estradiol.pdbqt.pdb
REMARK  2 active torsions:
REMARK  status: ('A' for Active; 'I' for Inactive)
REMARK    1  A    between atoms: C_5  and  O_19
REMARK    2  A    between atoms: C_18  and  O_21
REMARK                            x       y       z     vdW  Elec       q    Type
REMARK                         _______ _______ _______ _____ _____    ______ ____
ROOT
ATOM      1  C   UNL     1       4.489  53.953  16.553  0.00  0.00    +0.000 C 
ATOM      2  C   UNL     1       3.600  54.968  17.425  0.00  0.00    +0.000 C 
ATOM      3  C   UNL     1       4.151  55.656  18.603  0.00  0.00    +0.000 A 
ATOM      4  C   UNL     1       5.609  55.717  19.005  0.00  0.00    +0.000 A 
ATOM      5  C   UNL     1       4.141  54.355  15.105  0.00  0.00    +0.000 C 
ATOM      6  C   UNL     1       5.880  54.214  16.925  0.00  0.00    +0.000 C 
ATOM      7  C   UNL     1       2.760  55.679  16.508  0.00  0.00    +0.000 C 
ATOM      8  C   UNL     1       6.425  55.012  18.085  0.00  0.00    +0.000 C 
ATOM      9  C   UNL     1       3.109  55.331  15.083  0.00  0.00    +0.000 C 
ATOM     10  C   UNL     1       3.336  56.401  19.493  0.00  0.00    +0.000 A 
ATOM     11  C   UNL     1       4.021  52.504  16.846  0.00  0.00    +0.000 C 
ATOM     12  C   UNL     1       6.122  56.435  20.219  0.00  0.00    +0.000 A 
ATOM     13  C   UNL     1       3.857  57.133  20.705  0.00  0.00    +0.000 A 
ATOM     14  C   UNL     1       5.233  57.150  21.078  0.00  0.00    +0.000 A 
ATOM     15  C   UNL     1       7.480  56.418  20.541  0.00  0.00    +0.000 A 
ATOM     16  C   UNL     1       5.686  57.814  22.210  0.00  0.00    +0.000 A 
ATOM     17  C   UNL     1       7.942  57.082  21.677  0.00  0.00    +0.000 A 
ATOM     18  C   UNL     1       7.045  57.770  22.497  0.00  0.00    +0.000 A 
ENDROOT
BRANCH   5  19
ATOM     19  O   UNL     1       5.007  54.172  14.049  0.00  0.00    +0.000 OA
ATOM     20  H   UNL     1       4.923  53.281  13.664  0.00  0.00    +0.000 HD
ENDBRANCH   5  19
BRANCH  18  21
ATOM     21  O   UNL     1       7.489  58.418  23.614  0.00  0.00    +0.000 OA
ATOM     22  H   UNL     1       8.154  59.076  23.343  0.00  0.00    +0.000 HD
ENDBRANCH  18  21
TORSDOF 2
ENDMDL
MODEL 5
REMARK VINA RESULT:      -6.1     16.203     18.350
REMARK  Name = Estradiol.pdbqt.pdb
REMARK  2 active torsions:
REMARK  status: ('A' for Active; 'I' for Inactive)
REMARK    1  A    between atoms: C_5  and  O_19
REMARK    2  A    between atoms: C_18  and  O_21
REMARK                            x       y       z     vdW  Elec       q    Type
REMARK                         _______ _______ _______ _____ _____    ______ ____
ROOT
ATOM      1  C   UNL     1     -10.660  50.345  26.650  0.00  0.00    +0.000 C 
ATOM      2  C   UNL     1      -9.697  50.058  25.397  0.00  0.00    +0.000 C 
ATOM      3  C   UNL     1      -8.608  49.073  25.474  0.00  0.00    +0.000 A 
ATOM      4  C   UNL     1      -8.393  48.057  26.576  0.00  0.00    +0.000 A 
ATOM      5  C   UNL     1     -12.058  50.394  26.000  0.00  0.00    +0.000 C 
ATOM      6  C   UNL     1     -10.470  49.223  27.570  0.00  0.00    +0.000 C 
ATOM      7  C   UNL     1     -10.511  50.136  24.221  0.00  0.00    +0.000 C 
ATOM      8  C   UNL     1      -9.400  48.158  27.569  0.00  0.00    +0.000 C 
ATOM      9  C   UNL     1     -11.964  50.310  24.585  0.00  0.00    +0.000 C 
ATOM     10  C   UNL     1      -7.632  48.943  24.453  0.00  0.00    +0.000 A 
ATOM     11  C   UNL     1     -10.290  51.724  27.257  0.00  0.00    +0.000 C 
ATOM     12  C   UNL     1      -7.264  47.069  26.607  0.00  0.00    +0.000 A 
ATOM     13  C   UNL     1      -6.506  47.939  24.481  0.00  0.00    +0.000 A 
ATOM     14  C   UNL     1      -6.310  47.012  25.546  0.00  0.00    +0.000 A 
ATOM     15  C   UNL     1      -7.116  46.185  27.676  0.00  0.00    +0.000 A 
ATOM     16  C   UNL     1      -5.253  46.112  25.560  0.00  0.00    +0.000 A 
ATOM     17  C   UNL     1      -6.057  45.278  27.697  0.00  0.00    +0.000 A 
ATOM     18  C   UNL     1      -5.140  45.250  26.645  0.00  0.00    +0.000 A 
ENDROOT
BRANCH   5  19
ATOM     19  O   UNL     1     -13.212  50.077  26.683  0.00  0.00    +0.000 OA
ATOM     20  H   UNL     1     -14.006  50.404  26.221  0.00  0.00    +0.000 HD
ENDBRANCH   5  19
BRANCH  18  21
ATOM     21  O   UNL     1      -4.097  44.368  26.661  0.00  0.00    +0.000 OA
ATOM     22  H   UNL     1      -3.385  44.744  27.208  0.00  0.00    +0.000 HD
ENDBRANCH  18  21
TORSDOF 2
ENDMDL
MODEL 6
REMARK VINA RESULT:      -6.1      3.321      5.904
REMARK  Name = Estradiol.pdbqt.pdb
REMARK  2 active torsions:
REMARK  status: ('A' for Active; 'I' for Inactive)
REMARK    1  A    between atoms: C_5  and  O_19
REMARK    2  A    between atoms: C_18  and  O_21
REMARK                            x       y       z     vdW  Elec       q    Type
REMARK                         _______ _______ _______ _____ _____    ______ ____
ROOT
ATOM      1  C   UNL     1       2.612  57.466  21.555  0.00  0.00    +0.000 C 
ATOM      2  C   UNL     1       4.198  57.422  21.307  0.00  0.00    +0.000 C 
ATOM      3  C   UNL     1       4.785  56.613  20.228  0.00  0.00    +0.000 A 
ATOM      4  C   UNL     1       4.034  55.948  19.095  0.00  0.00    +0.000 A 
ATOM      5  C   UNL     1       2.346  58.968  21.789  0.00  0.00    +0.000 C 
ATOM      6  C   UNL     1       1.998  56.936  20.336  0.00  0.00    +0.000 C 
ATOM      7  C   UNL     1       4.697  58.738  21.570  0.00  0.00    +0.000 C 
ATOM      8  C   UNL     1       2.641  56.197  19.187  0.00  0.00    +0.000 C 
ATOM      9  C   UNL     1       3.564  59.698  21.834  0.00  0.00    +0.000 C 
ATOM     10  C   UNL     1       6.184  56.408  20.113  0.00  0.00    +0.000 A 
ATOM     11  C   UNL     1       2.283  56.648  22.830  0.00  0.00    +0.000 C 
ATOM     12  C   UNL     1       4.682  55.133  18.013  0.00  0.00    +0.000 A 
ATOM     13  C   UNL     1       6.833  55.600  19.017  0.00  0.00    +0.000 A 
ATOM     14  C   UNL     1       6.099  54.958  17.977  0.00  0.00    +0.000 A 
ATOM     15  C   UNL     1       3.915  54.523  17.021  0.00  0.00    +0.000 A 
ATOM     16  C   UNL     1       6.717  54.202  16.991  0.00  0.00    +0.000 A 
ATOM     17  C   UNL     1       4.530  53.761  16.026  0.00  0.00    +0.000 A 
ATOM     18  C   UNL     1       5.917  53.608  16.021  0.00  0.00    +0.000 A 
ENDROOT
BRANCH   5  19
ATOM     19  O   UNL     1       1.136  59.566  21.509  0.00  0.00    +0.000 OA
ATOM     20  H   UNL     1       0.914  60.253  22.164  0.00  0.00    +0.000 HD
ENDBRANCH   5  19
BRANCH  18  21
ATOM     21  O   UNL     1       6.526  52.859  15.054  0.00  0.00    +0.000 OA
ATOM     22  H   UNL     1       6.404  53.307  14.198  0.00  0.00    +0.000 HD
ENDBRANCH  18  21
TORSDOF 2
ENDMDL
MODEL 7
REMARK VINA RESULT:      -5.6     27.340     30.451
REMARK  Name = Estradiol.pdbqt.pdb
REMARK  2 active torsions:
REMARK  status: ('A' for Active; 'I' for Inactive)
REMARK    1  A    between atoms: C_5  and  O_19
REMARK    2  A    between atoms: C_18  and  O_21
REMARK                            x       y       z     vdW  Elec       q    Type
REMARK                         _______ _______ _______ _____ _____    ______ ____
ROOT
ATOM      1  C   UNL     1      -0.676  26.736  20.105  0.00  0.00    +0.000 C 
ATOM      2  C   UNL     1      -1.984  26.977  19.206  0.00  0.00    +0.000 C 
ATOM      3  C   UNL     1      -3.337  26.761  19.744  0.00  0.00    +0.000 A 
ATOM      4  C   UNL     1      -3.700  26.547  21.197  0.00  0.00    +0.000 A 
ATOM      5  C   UNL     1       0.196  27.965  19.771  0.00  0.00    +0.000 C 
ATOM      6  C   UNL     1      -1.141  26.696  21.492  0.00  0.00    +0.000 C 
ATOM      7  C   UNL     1      -1.715  28.112  18.374  0.00  0.00    +0.000 C 
ATOM      8  C   UNL     1      -2.549  26.579  22.024  0.00  0.00    +0.000 C 
ATOM      9  C   UNL     1      -0.395  28.741  18.738  0.00  0.00    +0.000 C 
ATOM     10  C   UNL     1      -4.490  26.780  18.918  0.00  0.00    +0.000 A 
ATOM     11  C   UNL     1       0.018  25.431  19.637  0.00  0.00    +0.000 C 
ATOM     12  C   UNL     1      -5.100  26.334  21.697  0.00  0.00    +0.000 A 
ATOM     13  C   UNL     1      -5.897  26.579  19.425  0.00  0.00    +0.000 A 
ATOM     14  C   UNL     1      -6.209  26.350  20.797  0.00  0.00    +0.000 A 
ATOM     15  C   UNL     1      -5.350  26.110  23.051  0.00  0.00    +0.000 A 
ATOM     16  C   UNL     1      -7.510  26.145  21.237  0.00  0.00    +0.000 A 
ATOM     17  C   UNL     1      -6.655  25.904  23.500  0.00  0.00    +0.000 A 
ATOM     18  C   UNL     1      -7.717  25.923  22.594  0.00  0.00    +0.000 A 
ENDROOT
BRANCH   5  19
ATOM     19  O   UNL     1       1.122  28.486  20.649  0.00  0.00    +0.000 OA
ATOM     20  H   UNL     1       1.951  27.975  20.643  0.00  0.00    +0.000 HD
ENDBRANCH   5  19
BRANCH  18  21
ATOM     21  O   UNL     1      -8.996  25.718  23.025  0.00  0.00    +0.000 OA
ATOM     22  H   UNL     1      -8.977  25.586  23.990  0.00  0.00    +0.000 HD
ENDBRANCH  18  21
TORSDOF 2
ENDMDL
MODEL 8
REMARK VINA RESULT:      -5.4     14.461     15.814
REMARK  Name = Estradiol.pdbqt.pdb
REMARK  2 active torsions:
REMARK  status: ('A' for Active; 'I' for Inactive)
REMARK    1  A    between atoms: C_5  and  O_19
REMARK    2  A    between atoms: C_18  and  O_21
REMARK                            x       y       z     vdW  Elec       q    Type
REMARK                         _______ _______ _______ _____ _____    ______ ____
ROOT
ATOM      1  C   UNL     1      -4.691  48.328  28.171  0.00  0.00    +0.000 C 
ATOM      2  C   UNL     1      -3.840  47.704  26.961  0.00  0.00    +0.000 C 
ATOM      3  C   UNL     1      -2.527  47.081  27.185  0.00  0.00    +0.000 A 
ATOM      4  C   UNL     1      -1.923  46.719  28.525  0.00  0.00    +0.000 A 
ATOM      5  C   UNL     1      -6.118  47.819  27.881  0.00  0.00    +0.000 C 
ATOM      6  C   UNL     1      -4.104  47.788  29.398  0.00  0.00    +0.000 C 
ATOM      7  C   UNL     1      -4.778  47.098  26.063  0.00  0.00    +0.000 C 
ATOM      8  C   UNL     1      -2.796  47.057  29.589  0.00  0.00    +0.000 C 
ATOM      9  C   UNL     1      -6.171  47.136  26.637  0.00  0.00    +0.000 C 
ATOM     10  C   UNL     1      -1.678  46.699  26.114  0.00  0.00    +0.000 A 
ATOM     11  C   UNL     1      -4.633  49.875  28.075  0.00  0.00    +0.000 C 
ATOM     12  C   UNL     1      -0.576  46.081  28.701  0.00  0.00    +0.000 A 
ATOM     13  C   UNL     1      -0.330  46.046  26.295  0.00  0.00    +0.000 A 
ATOM     14  C   UNL     1       0.228  45.742  27.570  0.00  0.00    +0.000 A 
ATOM     15  C   UNL     1      -0.074  45.808  29.974  0.00  0.00    +0.000 A 
ATOM     16  C   UNL     1       1.480  45.160  27.712  0.00  0.00    +0.000 A 
ATOM     17  C   UNL     1       1.183  45.223  30.124  0.00  0.00    +0.000 A 
ATOM     18  C   UNL     1       1.945  44.906  28.997  0.00  0.00    +0.000 A 
ENDROOT
BRANCH   5  19
ATOM     19  O   UNL     1      -7.059  47.625  28.870  0.00  0.00    +0.000 OA
ATOM     20  H   UNL     1      -7.241  46.679  29.014  0.00  0.00    +0.000 HD
ENDBRANCH   5  19
BRANCH  18  21
ATOM     21  O   UNL     1       3.179  44.338  29.136  0.00  0.00    +0.000 OA
ATOM     22  H   UNL     1       3.075  43.488  29.599  0.00  0.00    +0.000 HD
ENDBRANCH  18  21
TORSDOF 2
ENDMDL
MODEL 9
REMARK VINA RESULT:      -5.2     28.141     32.008
REMARK  Name = Estradiol.pdbqt.pdb
REMARK  2 active torsions:
REMARK  status: ('A' for Active; 'I' for Inactive)
REMARK    1  A    between atoms: C_5  and  O_19
REMARK    2  A    between atoms: C_18  and  O_21
REMARK                            x       y       z     vdW  Elec       q    Type
REMARK                         _______ _______ _______ _____ _____    ______ ____
ROOT
ATOM      1  C   UNL     1     -21.053  37.089   6.268  0.00  0.00    +0.000 C 
ATOM      2  C   UNL     1     -21.255  38.646   5.931  0.00  0.00    +0.000 C 
ATOM      3  C   UNL     1     -20.111  39.565   5.829  0.00  0.00    +0.000 A 
ATOM      4  C   UNL     1     -18.650  39.175   5.769  0.00  0.00    +0.000 A 
ATOM      5  C   UNL     1     -22.007  36.399   5.270  0.00  0.00    +0.000 C 
ATOM      6  C   UNL     1     -19.637  36.805   6.030  0.00  0.00    +0.000 C 
ATOM      7  C   UNL     1     -22.331  38.732   4.989  0.00  0.00    +0.000 C 
ATOM      8  C   UNL     1     -18.492  37.767   5.824  0.00  0.00    +0.000 C 
ATOM      9  C   UNL     1     -22.774  37.358   4.556  0.00  0.00    +0.000 C 
ATOM     10  C   UNL     1     -20.277  40.970   5.724  0.00  0.00    +0.000 A 
ATOM     11  C   UNL     1     -21.509  36.831   7.728  0.00  0.00    +0.000 C 
ATOM     12  C   UNL     1     -17.516  40.154   5.662  0.00  0.00    +0.000 A 
ATOM     13  C   UNL     1     -19.136  41.950   5.603  0.00  0.00    +0.000 A 
ATOM     14  C   UNL     1     -17.766  41.558   5.579  0.00  0.00    +0.000 A 
ATOM     15  C   UNL     1     -16.192  39.716   5.645  0.00  0.00    +0.000 A 
ATOM     16  C   UNL     1     -16.732  42.480   5.488  0.00  0.00    +0.000 A 
ATOM     17  C   UNL     1     -15.148  40.637   5.554  0.00  0.00    +0.000 A 
ATOM     18  C   UNL     1     -15.427  42.003   5.477  0.00  0.00    +0.000 A 
ENDROOT
BRANCH   5  19
ATOM     19  O   UNL     1     -21.801  35.120   4.801  0.00  0.00    +0.000 OA
ATOM     20  H   UNL     1     -20.855  34.935   4.659  0.00  0.00    +0.000 HD
ENDBRANCH   5  19
BRANCH  18  21
ATOM     21  O   UNL     1     -14.410  42.911   5.393  0.00  0.00    +0.000 OA
ATOM     22  H   UNL     1     -13.660  42.581   5.918  0.00  0.00    +0.000 HD
ENDBRANCH  18  21
TORSDOF 2
ENDMDL
