MODEL 1
REMARK VINA RESULT:      -6.3      0.000      0.000
REMARK  Name = 
REMARK  11 active torsions:
REMARK  status: ('A' for Active; 'I' for Inactive)
REMARK    1  A    between atoms: O_1  and  C_16
REMARK    2  A    between atoms: O_1  and  C_22
REMARK    3  A    between atoms: O_6  and  C_24
REMARK    4  A    between atoms: O_8  and  C_26
REMARK    5  A    between atoms: O_11  and  C_36
REMARK    6  A    between atoms: O_11  and  C_41
REMARK    7  A    between atoms: O_12  and  C_37
REMARK    8  A    between atoms: O_12  and  C_42
REMARK    9  A    between atoms: O_13  and  C_39
REMARK   10  A    between atoms: C_17  and  C_23
REMARK   11  A    between atoms: C_35  and  C_40
REMARK                            x       y       z     vdW  Elec       q    Type
REMARK                         _______ _______ _______ _____ _____    ______ ____
ROOT
ATOM      1  O   UNL     1     -24.036  38.641  17.254  0.00  0.00    +0.000 OA
ATOM      2  O   UNL     1     -23.322  36.892  18.552  0.00  0.00    +0.000 OA
ATOM      3  O   UNL     1     -27.787  41.834  24.073  0.00  0.00    +0.000 OA
ATOM      4  O   UNL     1     -27.291  39.636  24.934  0.00  0.00    +0.000 OA
ATOM      5  C   UNL     1     -25.415  39.706  18.782  0.00  0.00    +0.000 C 
ATOM      6  C   UNL     1     -24.486  38.782  19.546  0.00  0.00    +0.000 C 
ATOM      7  C   UNL     1     -25.782  40.913  19.635  0.00  0.00    +0.000 C 
ATOM      8  C   UNL     1     -25.226  38.092  20.690  0.00  0.00    +0.000 C 
ATOM      9  C   UNL     1     -26.185  40.480  21.044  0.00  0.00    +0.000 A 
ATOM     10  C   UNL     1     -25.892  39.174  21.557  0.00  0.00    +0.000 A 
ATOM     11  C   UNL     1     -24.617  39.929  17.521  0.00  0.00    +0.000 C 
ATOM     12  C   UNL     1     -23.906  37.957  18.437  0.00  0.00    +0.000 C 
ATOM     13  C   UNL     1     -26.831  41.418  21.872  0.00  0.00    +0.000 A 
ATOM     14  C   UNL     1     -26.252  38.841  22.879  0.00  0.00    +0.000 A 
ATOM     15  C   UNL     1     -27.163  41.046  23.157  0.00  0.00    +0.000 A 
ATOM     16  C   UNL     1     -26.881  39.796  23.647  0.00  0.00    +0.000 A 
ATOM     17  C   UNL     1     -27.867  40.932  25.197  0.00  0.00    +0.000 C 
ENDROOT
BRANCH   8  18
ATOM     18  C   UNL     1     -26.193  36.986  20.259  0.00  0.00    +0.000 A 
ATOM     19  C   UNL     1     -27.431  37.252  19.647  0.00  0.00    +0.000 A 
ATOM     20  C   UNL     1     -25.836  35.644  20.468  0.00  0.00    +0.000 A 
ATOM     21  C   UNL     1     -26.675  34.607  20.056  0.00  0.00    +0.000 A 
ATOM     22  C   UNL     1     -28.300  36.228  19.243  0.00  0.00    +0.000 A 
ATOM     23  C   UNL     1     -27.908  34.905  19.453  0.00  0.00    +0.000 A 
BRANCH  21  24
ATOM     24  O   UNL     1     -26.409  33.264  20.192  0.00  0.00    +0.000 OA
ATOM     25  C   UNL     1     -25.363  32.742  19.376  0.00  0.00    +0.000 C 
ENDBRANCH  21  24
BRANCH  22  26
ATOM     26  O   UNL     1     -29.448  36.700  18.667  0.00  0.00    +0.000 OA
ATOM     27  C   UNL     1     -29.445  36.932  17.266  0.00  0.00    +0.000 C 
ENDBRANCH  22  26
BRANCH  23  28
ATOM     28  O   UNL     1     -28.694  33.845  19.074  0.00  0.00    +0.000 OA
ATOM     29  H   UNL     1     -28.588  33.186  19.787  0.00  0.00    +0.000 HD
ENDBRANCH  23  28
ENDBRANCH   8  18
BRANCH   7  30
ATOM     30  O   UNL     1     -24.641  41.759  19.778  0.00  0.00    +0.000 OA
BRANCH  30  34
ATOM     31  O   UNL     1     -25.950  43.073  18.355  0.00  0.00    +0.000 OA
ATOM     32  O   UNL     1     -25.201  46.082  16.377  0.00  0.00    +0.000 OA
ATOM     33  O   UNL     1     -27.527  45.674  16.290  0.00  0.00    +0.000 OA
ATOM     34  C   UNL     1     -24.858  43.084  19.276  0.00  0.00    +0.000 C 
ATOM     35  C   UNL     1     -23.537  43.533  18.610  0.00  0.00    +0.000 C 
ATOM     36  C   UNL     1     -24.961  44.799  16.965  0.00  0.00    +0.000 C 
ATOM     37  C   UNL     1     -23.719  44.858  17.856  0.00  0.00    +0.000 C 
ATOM     38  C   UNL     1     -26.164  44.368  17.799  0.00  0.00    +0.000 C 
ATOM     39  C   UNL     1     -27.385  44.387  16.887  0.00  0.00    +0.000 C 
ATOM     40  C   UNL     1     -26.364  46.036  15.545  0.00  0.00    +0.000 C 
ATOM     41  C   UNL     1     -26.585  47.425  14.974  0.00  0.00    +0.000 C 
BRANCH  35  42
ATOM     42  O   UNL     1     -22.525  43.677  19.621  0.00  0.00    +0.000 OA
ATOM     43  H   UNL     1     -22.499  42.826  20.099  0.00  0.00    +0.000 HD
ENDBRANCH  35  42
BRANCH  37  44
ATOM     44  O   UNL     1     -22.576  45.118  17.026  0.00  0.00    +0.000 OA
ATOM     45  H   UNL     1     -21.817  44.699  17.476  0.00  0.00    +0.000 HD
ENDBRANCH  37  44
ENDBRANCH  30  34
ENDBRANCH   7  30
TORSDOF 8
ENDMDL
MODEL 2
REMARK VINA RESULT:      -6.1      2.705      8.997
REMARK  Name = 
REMARK  11 active torsions:
REMARK  status: ('A' for Active; 'I' for Inactive)
REMARK    1  A    between atoms: O_1  and  C_16
REMARK    2  A    between atoms: O_1  and  C_22
REMARK    3  A    between atoms: O_6  and  C_24
REMARK    4  A    between atoms: O_8  and  C_26
REMARK    5  A    between atoms: O_11  and  C_36
REMARK    6  A    between atoms: O_11  and  C_41
REMARK    7  A    between atoms: O_12  and  C_37
REMARK    8  A    between atoms: O_12  and  C_42
REMARK    9  A    between atoms: O_13  and  C_39
REMARK   10  A    between atoms: C_17  and  C_23
REMARK   11  A    between atoms: C_35  and  C_40
REMARK                            x       y       z     vdW  Elec       q    Type
REMARK                         _______ _______ _______ _____ _____    ______ ____
ROOT
ATOM      1  O   UNL     1     -27.241  43.633  22.487  0.00  0.00    +0.000 OA
ATOM      2  O   UNL     1     -25.136  44.349  21.928  0.00  0.00    +0.000 OA
ATOM      3  O   UNL     1     -25.028  35.938  19.907  0.00  0.00    +0.000 OA
ATOM      4  O   UNL     1     -23.162  37.169  19.003  0.00  0.00    +0.000 OA
ATOM      5  C   UNL     1     -27.140  41.475  21.649  0.00  0.00    +0.000 C 
ATOM      6  C   UNL     1     -25.721  41.992  21.797  0.00  0.00    +0.000 C 
ATOM      7  C   UNL     1     -27.176  39.965  21.839  0.00  0.00    +0.000 C 
ATOM      8  C   UNL     1     -24.854  41.547  20.621  0.00  0.00    +0.000 C 
ATOM      9  C   UNL     1     -26.068  39.288  21.034  0.00  0.00    +0.000 A 
ATOM     10  C   UNL     1     -24.958  40.018  20.495  0.00  0.00    +0.000 A 
ATOM     11  C   UNL     1     -27.863  42.347  22.644  0.00  0.00    +0.000 C 
ATOM     12  C   UNL     1     -25.959  43.454  22.029  0.00  0.00    +0.000 C 
ATOM     13  C   UNL     1     -26.129  37.893  20.855  0.00  0.00    +0.000 A 
ATOM     14  C   UNL     1     -23.943  39.336  19.794  0.00  0.00    +0.000 A 
ATOM     15  C   UNL     1     -25.112  37.271  20.163  0.00  0.00    +0.000 A 
ATOM     16  C   UNL     1     -24.050  37.971  19.649  0.00  0.00    +0.000 A 
ATOM     17  C   UNL     1     -23.790  35.880  19.170  0.00  0.00    +0.000 C 
ENDROOT
BRANCH   8  18
ATOM     18  C   UNL     1     -25.129  42.279  19.304  0.00  0.00    +0.000 A 
ATOM     19  C   UNL     1     -26.329  42.133  18.586  0.00  0.00    +0.000 A 
ATOM     20  C   UNL     1     -24.152  43.147  18.786  0.00  0.00    +0.000 A 
ATOM     21  C   UNL     1     -24.380  43.859  17.609  0.00  0.00    +0.000 A 
ATOM     22  C   UNL     1     -26.572  42.822  17.389  0.00  0.00    +0.000 A 
ATOM     23  C   UNL     1     -25.587  43.686  16.910  0.00  0.00    +0.000 A 
BRANCH  21  24
ATOM     24  O   UNL     1     -23.502  44.747  17.032  0.00  0.00    +0.000 OA
ATOM     25  C   UNL     1     -22.938  45.730  17.897  0.00  0.00    +0.000 C 
ENDBRANCH  21  24
BRANCH  22  26
ATOM     26  O   UNL     1     -27.799  42.540  16.852  0.00  0.00    +0.000 OA
ATOM     27  C   UNL     1     -28.930  43.218  17.380  0.00  0.00    +0.000 C 
ENDBRANCH  22  26
BRANCH  23  28
ATOM     28  O   UNL     1     -25.752  44.408  15.754  0.00  0.00    +0.000 OA
ATOM     29  H   UNL     1     -25.650  45.341  16.024  0.00  0.00    +0.000 HD
ENDBRANCH  23  28
ENDBRANCH   8  18
BRANCH   7  30
ATOM     30  O   UNL     1     -26.934  39.652  23.212  0.00  0.00    +0.000 OA
BRANCH  30  34
ATOM     31  O   UNL     1     -28.922  38.755  24.051  0.00  0.00    +0.000 OA
ATOM     32  O   UNL     1     -29.607  35.911  26.281  0.00  0.00    +0.000 OA
ATOM     33  O   UNL     1     -31.657  36.717  25.425  0.00  0.00    +0.000 OA
ATOM     34  C   UNL     1     -27.588  38.451  23.639  0.00  0.00    +0.000 C 
ATOM     35  C   UNL     1     -26.740  37.864  24.790  0.00  0.00    +0.000 C 
ATOM     36  C   UNL     1     -28.907  37.057  25.786  0.00  0.00    +0.000 C 
ATOM     37  C   UNL     1     -27.460  36.685  25.462  0.00  0.00    +0.000 C 
ATOM     38  C   UNL     1     -29.588  37.588  24.528  0.00  0.00    +0.000 C 
ATOM     39  C   UNL     1     -31.041  37.884  24.882  0.00  0.00    +0.000 C 
ATOM     40  C   UNL     1     -30.964  36.251  26.582  0.00  0.00    +0.000 C 
ATOM     41  C   UNL     1     -31.662  34.996  27.074  0.00  0.00    +0.000 C 
BRANCH  35  42
ATOM     42  O   UNL     1     -25.472  37.433  24.269  0.00  0.00    +0.000 OA
ATOM     43  H   UNL     1     -25.669  36.701  23.652  0.00  0.00    +0.000 HD
ENDBRANCH  35  42
BRANCH  37  44
ATOM     44  O   UNL     1     -26.796  36.332  26.686  0.00  0.00    +0.000 OA
ATOM     45  H   UNL     1     -26.672  37.168  27.175  0.00  0.00    +0.000 HD
ENDBRANCH  37  44
ENDBRANCH  30  34
ENDBRANCH   7  30
TORSDOF 8
ENDMDL
MODEL 3
REMARK VINA RESULT:      -6.1      1.257      2.443
REMARK  Name = 
REMARK  11 active torsions:
REMARK  status: ('A' for Active; 'I' for Inactive)
REMARK    1  A    between atoms: O_1  and  C_16
REMARK    2  A    between atoms: O_1  and  C_22
REMARK    3  A    between atoms: O_6  and  C_24
REMARK    4  A    between atoms: O_8  and  C_26
REMARK    5  A    between atoms: O_11  and  C_36
REMARK    6  A    between atoms: O_11  and  C_41
REMARK    7  A    between atoms: O_12  and  C_37
REMARK    8  A    between atoms: O_12  and  C_42
REMARK    9  A    between atoms: O_13  and  C_39
REMARK   10  A    between atoms: C_17  and  C_23
REMARK   11  A    between atoms: C_35  and  C_40
REMARK                            x       y       z     vdW  Elec       q    Type
REMARK                         _______ _______ _______ _____ _____    ______ ____
ROOT
ATOM      1  O   UNL     1     -24.020  38.987  17.062  0.00  0.00    +0.000 OA
ATOM      2  O   UNL     1     -23.248  37.186  18.253  0.00  0.00    +0.000 OA
ATOM      3  O   UNL     1     -27.711  41.735  24.103  0.00  0.00    +0.000 OA
ATOM      4  O   UNL     1     -27.157  39.505  24.837  0.00  0.00    +0.000 OA
ATOM      5  C   UNL     1     -25.391  39.940  18.667  0.00  0.00    +0.000 C 
ATOM      6  C   UNL     1     -24.431  38.996  19.365  0.00  0.00    +0.000 C 
ATOM      7  C   UNL     1     -25.768  41.092  19.590  0.00  0.00    +0.000 C 
ATOM      8  C   UNL     1     -25.137  38.231  20.484  0.00  0.00    +0.000 C 
ATOM      9  C   UNL     1     -26.137  40.577  20.980  0.00  0.00    +0.000 A 
ATOM     10  C   UNL     1     -25.810  39.251  21.418  0.00  0.00    +0.000 A 
ATOM     11  C   UNL     1     -24.621  40.246  17.408  0.00  0.00    +0.000 C 
ATOM     12  C   UNL     1     -23.855  38.243  18.204  0.00  0.00    +0.000 C 
ATOM     13  C   UNL     1     -26.786  41.456  21.868  0.00  0.00    +0.000 A 
ATOM     14  C   UNL     1     -26.139  38.842  22.726  0.00  0.00    +0.000 A 
ATOM     15  C   UNL     1     -27.088  41.010  23.136  0.00  0.00    +0.000 A 
ATOM     16  C   UNL     1     -26.773  39.741  23.554  0.00  0.00    +0.000 A 
ATOM     17  C   UNL     1     -27.753  40.774  25.178  0.00  0.00    +0.000 C 
ENDROOT
BRANCH   8  18
ATOM     18  C   UNL     1     -26.090  37.131  20.010  0.00  0.00    +0.000 A 
ATOM     19  C   UNL     1     -25.809  35.761  20.160  0.00  0.00    +0.000 A 
ATOM     20  C   UNL     1     -27.308  37.491  19.410  0.00  0.00    +0.000 A 
ATOM     21  C   UNL     1     -28.219  36.517  18.998  0.00  0.00    +0.000 A 
ATOM     22  C   UNL     1     -26.699  34.764  19.736  0.00  0.00    +0.000 A 
ATOM     23  C   UNL     1     -27.906  35.157  19.155  0.00  0.00    +0.000 A 
BRANCH  21  24
ATOM     24  O   UNL     1     -29.444  36.764  18.423  0.00  0.00    +0.000 OA
ATOM     25  C   UNL     1     -29.427  37.427  17.161  0.00  0.00    +0.000 C 
ENDBRANCH  21  24
BRANCH  22  26
ATOM     26  O   UNL     1     -26.236  33.499  19.975  0.00  0.00    +0.000 OA
ATOM     27  C   UNL     1     -26.628  32.863  21.183  0.00  0.00    +0.000 C 
ENDBRANCH  22  26
BRANCH  23  28
ATOM     28  O   UNL     1     -28.838  34.245  18.726  0.00  0.00    +0.000 OA
ATOM     29  H   UNL     1     -28.339  33.622  18.162  0.00  0.00    +0.000 HD
ENDBRANCH  23  28
ENDBRANCH   8  18
BRANCH   7  30
ATOM     30  O   UNL     1     -24.641  41.953  19.759  0.00  0.00    +0.000 OA
BRANCH  30  34
ATOM     31  O   UNL     1     -24.509  43.592  18.097  0.00  0.00    +0.000 OA
ATOM     32  O   UNL     1     -24.074  47.241  18.246  0.00  0.00    +0.000 OA
ATOM     33  O   UNL     1     -24.544  46.622  16.014  0.00  0.00    +0.000 OA
ATOM     34  C   UNL     1     -24.925  43.320  19.436  0.00  0.00    +0.000 C 
ATOM     35  C   UNL     1     -24.174  44.191  20.469  0.00  0.00    +0.000 C 
ATOM     36  C   UNL     1     -23.873  45.874  18.622  0.00  0.00    +0.000 C 
ATOM     37  C   UNL     1     -24.240  45.678  20.093  0.00  0.00    +0.000 C 
ATOM     38  C   UNL     1     -24.734  44.958  17.758  0.00  0.00    +0.000 C 
ATOM     39  C   UNL     1     -24.379  45.234  16.301  0.00  0.00    +0.000 C 
ATOM     40  C   UNL     1     -23.736  47.431  16.869  0.00  0.00    +0.000 C 
ATOM     41  C   UNL     1     -23.995  48.886  16.521  0.00  0.00    +0.000 C 
BRANCH  35  42
ATOM     42  O   UNL     1     -24.753  43.986  21.769  0.00  0.00    +0.000 OA
ATOM     43  H   UNL     1     -24.768  43.019  21.907  0.00  0.00    +0.000 HD
ENDBRANCH  35  42
BRANCH  37  44
ATOM     44  O   UNL     1     -23.320  46.434  20.897  0.00  0.00    +0.000 OA
ATOM     45  H   UNL     1     -23.416  47.363  20.612  0.00  0.00    +0.000 HD
ENDBRANCH  37  44
ENDBRANCH  30  34
ENDBRANCH   7  30
TORSDOF 8
ENDMDL
MODEL 4
REMARK VINA RESULT:      -6.1     36.061     39.493
REMARK  Name = 
REMARK  11 active torsions:
REMARK  status: ('A' for Active; 'I' for Inactive)
REMARK    1  A    between atoms: O_1  and  C_16
REMARK    2  A    between atoms: O_1  and  C_22
REMARK    3  A    between atoms: O_6  and  C_24
REMARK    4  A    between atoms: O_8  and  C_26
REMARK    5  A    between atoms: O_11  and  C_36
REMARK    6  A    between atoms: O_11  and  C_41
REMARK    7  A    between atoms: O_12  and  C_37
REMARK    8  A    between atoms: O_12  and  C_42
REMARK    9  A    between atoms: O_13  and  C_39
REMARK   10  A    between atoms: C_17  and  C_23
REMARK   11  A    between atoms: C_35  and  C_40
REMARK                            x       y       z     vdW  Elec       q    Type
REMARK                         _______ _______ _______ _____ _____    ______ ____
ROOT
ATOM      1  O   UNL     1       7.359  45.431   6.201  0.00  0.00    +0.000 OA
ATOM      2  O   UNL     1       6.776  47.447   7.124  0.00  0.00    +0.000 OA
ATOM      3  O   UNL     1      13.842  45.148  11.552  0.00  0.00    +0.000 OA
ATOM      4  O   UNL     1      13.209  47.452  11.880  0.00  0.00    +0.000 OA
ATOM      5  C   UNL     1       9.378  45.091   7.284  0.00  0.00    +0.000 C 
ATOM      6  C   UNL     1       8.594  46.132   8.060  0.00  0.00    +0.000 C 
ATOM      7  C   UNL     1      10.273  44.292   8.222  0.00  0.00    +0.000 C 
ATOM      8  C   UNL     1       9.516  47.240   8.568  0.00  0.00    +0.000 C 
ATOM      9  C   UNL     1      11.035  45.220   9.168  0.00  0.00    +0.000 A 
ATOM     10  C   UNL     1      10.661  46.590   9.363  0.00  0.00    +0.000 A 
ATOM     11  C   UNL     1       8.262  44.375   6.566  0.00  0.00    +0.000 C 
ATOM     12  C   UNL     1       7.501  46.467   7.091  0.00  0.00    +0.000 C 
ATOM     13  C   UNL     1      12.116  44.689   9.897  0.00  0.00    +0.000 A 
ATOM     14  C   UNL     1      11.375  47.390  10.278  0.00  0.00    +0.000 A 
ATOM     15  C   UNL     1      12.783  45.510  10.780  0.00  0.00    +0.000 A 
ATOM     16  C   UNL     1      12.423  46.821  10.966  0.00  0.00    +0.000 A 
ATOM     17  C   UNL     1      14.109  46.385  12.246  0.00  0.00    +0.000 C 
ENDROOT
BRANCH   8  18
ATOM     18  C   UNL     1      10.008  48.213   7.493  0.00  0.00    +0.000 A 
ATOM     19  C   UNL     1      10.883  47.831   6.461  0.00  0.00    +0.000 A 
ATOM     20  C   UNL     1       9.563  49.546   7.520  0.00  0.00    +0.000 A 
ATOM     21  C   UNL     1       9.960  50.453   6.537  0.00  0.00    +0.000 A 
ATOM     22  C   UNL     1      11.313  48.730   5.474  0.00  0.00    +0.000 A 
ATOM     23  C   UNL     1      10.841  50.043   5.523  0.00  0.00    +0.000 A 
BRANCH  21  24
ATOM     24  O   UNL     1       9.565  51.769   6.460  0.00  0.00    +0.000 OA
ATOM     25  C   UNL     1       8.159  52.007   6.465  0.00  0.00    +0.000 C 
ENDBRANCH  21  24
BRANCH  22  26
ATOM     26  O   UNL     1      12.158  48.158   4.563  0.00  0.00    +0.000 OA
ATOM     27  C   UNL     1      11.590  47.578   3.398  0.00  0.00    +0.000 C 
ENDBRANCH  22  26
BRANCH  23  28
ATOM     28  O   UNL     1      11.201  50.980   4.587  0.00  0.00    +0.000 OA
ATOM     29  H   UNL     1      11.775  50.501   3.958  0.00  0.00    +0.000 HD
ENDBRANCH  23  28
ENDBRANCH   8  18
BRANCH   7  30
ATOM     30  O   UNL     1       9.467  43.446   9.042  0.00  0.00    +0.000 OA
BRANCH  30  34
ATOM     31  O   UNL     1      10.807  41.858   7.969  0.00  0.00    +0.000 OA
ATOM     32  O   UNL     1      10.525  38.207   7.624  0.00  0.00    +0.000 OA
ATOM     33  O   UNL     1      12.621  38.893   6.772  0.00  0.00    +0.000 OA
ATOM     34  C   UNL     1       9.926  42.088   9.070  0.00  0.00    +0.000 C 
ATOM     35  C   UNL     1       8.670  41.189   9.011  0.00  0.00    +0.000 C 
ATOM     36  C   UNL     1      10.069  39.563   7.694  0.00  0.00    +0.000 C 
ATOM     37  C   UNL     1       9.054  39.713   8.827  0.00  0.00    +0.000 C 
ATOM     38  C   UNL     1      11.246  40.503   7.939  0.00  0.00    +0.000 C 
ATOM     39  C   UNL     1      12.259  40.272   6.823  0.00  0.00    +0.000 C 
ATOM     40  C   UNL     1      11.480  38.060   6.568  0.00  0.00    +0.000 C 
ATOM     41  C   UNL     1      11.947  36.616   6.559  0.00  0.00    +0.000 C 
BRANCH  35  42
ATOM     42  O   UNL     1       7.916  41.353  10.224  0.00  0.00    +0.000 OA
ATOM     43  H   UNL     1       7.105  40.819  10.111  0.00  0.00    +0.000 HD
ENDBRANCH  35  42
BRANCH  37  44
ATOM     44  O   UNL     1       7.890  38.936   8.502  0.00  0.00    +0.000 OA
ATOM     45  H   UNL     1       7.124  39.467   8.788  0.00  0.00    +0.000 HD
ENDBRANCH  37  44
ENDBRANCH  30  34
ENDBRANCH   7  30
TORSDOF 8
ENDMDL
MODEL 5
REMARK VINA RESULT:      -6.1     36.096     39.153
REMARK  Name = 
REMARK  11 active torsions:
REMARK  status: ('A' for Active; 'I' for Inactive)
REMARK    1  A    between atoms: O_1  and  C_16
REMARK    2  A    between atoms: O_1  and  C_22
REMARK    3  A    between atoms: O_6  and  C_24
REMARK    4  A    between atoms: O_8  and  C_26
REMARK    5  A    between atoms: O_11  and  C_36
REMARK    6  A    between atoms: O_11  and  C_41
REMARK    7  A    between atoms: O_12  and  C_37
REMARK    8  A    between atoms: O_12  and  C_42
REMARK    9  A    between atoms: O_13  and  C_39
REMARK   10  A    between atoms: C_17  and  C_23
REMARK   11  A    between atoms: C_35  and  C_40
REMARK                            x       y       z     vdW  Elec       q    Type
REMARK                         _______ _______ _______ _____ _____    ______ ____
ROOT
ATOM      1  O   UNL     1       7.190  47.647   7.427  0.00  0.00    +0.000 OA
ATOM      2  O   UNL     1       7.064  49.189   9.119  0.00  0.00    +0.000 OA
ATOM      3  O   UNL     1      14.133  44.598  11.068  0.00  0.00    +0.000 OA
ATOM      4  O   UNL     1      13.934  46.643  12.333  0.00  0.00    +0.000 OA
ATOM      5  C   UNL     1       9.240  46.696   7.935  0.00  0.00    +0.000 C 
ATOM      6  C   UNL     1       8.739  47.426   9.166  0.00  0.00    +0.000 C 
ATOM      7  C   UNL     1      10.097  45.503   8.338  0.00  0.00    +0.000 C 
ATOM      8  C   UNL     1       9.886  48.142   9.879  0.00  0.00    +0.000 C 
ATOM      9  C   UNL     1      11.110  45.898   9.411  0.00  0.00    +0.000 A 
ATOM     10  C   UNL     1      10.994  47.114  10.163  0.00  0.00    +0.000 A 
ATOM     11  C   UNL     1       7.943  46.442   7.210  0.00  0.00    +0.000 C 
ATOM     12  C   UNL     1       7.607  48.229   8.598  0.00  0.00    +0.000 C 
ATOM     13  C   UNL     1      12.168  45.012   9.690  0.00  0.00    +0.000 A 
ATOM     14  C   UNL     1      11.936  47.410  11.170  0.00  0.00    +0.000 A 
ATOM     15  C   UNL     1      13.063  45.345  10.684  0.00  0.00    +0.000 A 
ATOM     16  C   UNL     1      12.950  46.508  11.403  0.00  0.00    +0.000 A 
ATOM     17  C   UNL     1      14.682  45.428  12.113  0.00  0.00    +0.000 C 
ENDROOT
BRANCH   8  18
ATOM     18  C   UNL     1      10.399  49.400   9.174  0.00  0.00    +0.000 A 
ATOM     19  C   UNL     1      11.145  49.356   7.983  0.00  0.00    +0.000 A 
ATOM     20  C   UNL     1      10.108  50.660   9.724  0.00  0.00    +0.000 A 
ATOM     21  C   UNL     1      10.527  51.831   9.091  0.00  0.00    +0.000 A 
ATOM     22  C   UNL     1      11.596  50.518   7.340  0.00  0.00    +0.000 A 
ATOM     23  C   UNL     1      11.278  51.754   7.906  0.00  0.00    +0.000 A 
BRANCH  21  24
ATOM     24  O   UNL     1      10.275  53.109   9.532  0.00  0.00    +0.000 OA
ATOM     25  C   UNL     1       8.933  53.391   9.920  0.00  0.00    +0.000 C 
ENDBRANCH  21  24
BRANCH  22  26
ATOM     26  O   UNL     1      12.301  50.256   6.197  0.00  0.00    +0.000 OA
ATOM     27  C   UNL     1      11.595  50.249   4.965  0.00  0.00    +0.000 C 
ENDBRANCH  22  26
BRANCH  23  28
ATOM     28  O   UNL     1      11.667  52.938   7.332  0.00  0.00    +0.000 OA
ATOM     29  H   UNL     1      11.206  53.630   7.845  0.00  0.00    +0.000 HD
ENDBRANCH  23  28
ENDBRANCH   8  18
BRANCH   7  30
ATOM     30  O   UNL     1       9.266  44.494   8.912  0.00  0.00    +0.000 OA
BRANCH  30  34
ATOM     31  O   UNL     1       8.655  43.032   7.193  0.00  0.00    +0.000 OA
ATOM     32  O   UNL     1       8.455  39.363   7.017  0.00  0.00    +0.000 OA
ATOM     33  O   UNL     1       8.121  40.248   4.851  0.00  0.00    +0.000 OA
ATOM     34  C   UNL     1       9.485  43.196   8.345  0.00  0.00    +0.000 C 
ATOM     35  C   UNL     1       9.162  42.163   9.449  0.00  0.00    +0.000 C 
ATOM     36  C   UNL     1       8.332  40.662   7.607  0.00  0.00    +0.000 C 
ATOM     37  C   UNL     1       9.163  40.734   8.888  0.00  0.00    +0.000 C 
ATOM     38  C   UNL     1       8.812  41.732   6.631  0.00  0.00    +0.000 C 
ATOM     39  C   UNL     1       8.001  41.580   5.348  0.00  0.00    +0.000 C 
ATOM     40  C   UNL     1       7.683  39.290   5.815  0.00  0.00    +0.000 C 
ATOM     41  C   UNL     1       7.873  37.906   5.222  0.00  0.00    +0.000 C 
BRANCH  35  42
ATOM     42  O   UNL     1      10.134  42.280  10.501  0.00  0.00    +0.000 OA
ATOM     43  H   UNL     1      10.874  42.798  10.129  0.00  0.00    +0.000 HD
ENDBRANCH  35  42
BRANCH  37  44
ATOM     44  O   UNL     1       8.600  39.825   9.848  0.00  0.00    +0.000 OA
ATOM     45  H   UNL     1       9.352  39.487  10.370  0.00  0.00    +0.000 HD
ENDBRANCH  37  44
ENDBRANCH  30  34
ENDBRANCH   7  30
TORSDOF 8
ENDMDL
MODEL 6
REMARK VINA RESULT:      -6.0     13.546     18.022
REMARK  Name = 
REMARK  11 active torsions:
REMARK  status: ('A' for Active; 'I' for Inactive)
REMARK    1  A    between atoms: O_1  and  C_16
REMARK    2  A    between atoms: O_1  and  C_22
REMARK    3  A    between atoms: O_6  and  C_24
REMARK    4  A    between atoms: O_8  and  C_26
REMARK    5  A    between atoms: O_11  and  C_36
REMARK    6  A    between atoms: O_11  and  C_41
REMARK    7  A    between atoms: O_12  and  C_37
REMARK    8  A    between atoms: O_12  and  C_42
REMARK    9  A    between atoms: O_13  and  C_39
REMARK   10  A    between atoms: C_17  and  C_23
REMARK   11  A    between atoms: C_35  and  C_40
REMARK                            x       y       z     vdW  Elec       q    Type
REMARK                         _______ _______ _______ _____ _____    ______ ____
ROOT
ATOM      1  O   UNL     1     -21.468  37.503   7.528  0.00  0.00    +0.000 OA
ATOM      2  O   UNL     1     -20.253  39.297   8.279  0.00  0.00    +0.000 OA
ATOM      3  O   UNL     1     -14.283  34.135   4.737  0.00  0.00    +0.000 OA
ATOM      4  O   UNL     1     -13.479  36.361   5.197  0.00  0.00    +0.000 OA
ATOM      5  C   UNL     1     -19.799  36.369   6.389  0.00  0.00    +0.000 C 
ATOM      6  C   UNL     1     -19.141  37.348   7.341  0.00  0.00    +0.000 C 
ATOM      7  C   UNL     1     -18.913  35.147   6.187  0.00  0.00    +0.000 C 
ATOM      8  C   UNL     1     -17.921  38.001   6.692  0.00  0.00    +0.000 C 
ATOM      9  C   UNL     1     -17.468  35.563   5.917  0.00  0.00    +0.000 A 
ATOM     10  C   UNL     1     -16.988  36.887   6.188  0.00  0.00    +0.000 A 
ATOM     11  C   UNL     1     -21.140  36.186   7.055  0.00  0.00    +0.000 C 
ATOM     12  C   UNL     1     -20.305  38.200   7.748  0.00  0.00    +0.000 C 
ATOM     13  C   UNL     1     -16.575  34.594   5.420  0.00  0.00    +0.000 A 
ATOM     14  C   UNL     1     -15.634  37.205   5.957  0.00  0.00    +0.000 A 
ATOM     15  C   UNL     1     -15.261  34.952   5.211  0.00  0.00    +0.000 A 
ATOM     16  C   UNL     1     -14.803  36.219   5.472  0.00  0.00    +0.000 A 
ATOM     17  C   UNL     1     -13.156  35.035   4.729  0.00  0.00    +0.000 C 
ENDROOT
BRANCH   8  18
ATOM     18  C   UNL     1     -18.241  39.046   5.622  0.00  0.00    +0.000 A 
ATOM     19  C   UNL     1     -18.858  38.723   4.400  0.00  0.00    +0.000 A 
ATOM     20  C   UNL     1     -17.923  40.394   5.863  0.00  0.00    +0.000 A 
ATOM     21  C   UNL     1     -18.233  41.381   4.927  0.00  0.00    +0.000 A 
ATOM     22  C   UNL     1     -19.160  39.695   3.435  0.00  0.00    +0.000 A 
ATOM     23  C   UNL     1     -18.842  41.025   3.712  0.00  0.00    +0.000 A 
BRANCH  21  24
ATOM     24  O   UNL     1     -17.985  42.726   5.075  0.00  0.00    +0.000 OA
ATOM     25  C   UNL     1     -16.614  43.115   5.113  0.00  0.00    +0.000 C 
ENDBRANCH  21  24
BRANCH  22  26
ATOM     26  O   UNL     1     -19.758  39.172   2.321  0.00  0.00    +0.000 OA
ATOM     27  C   UNL     1     -19.931  37.764   2.255  0.00  0.00    +0.000 C 
ENDBRANCH  22  26
BRANCH  23  28
ATOM     28  O   UNL     1     -19.117  42.038   2.827  0.00  0.00    +0.000 OA
ATOM     29  H   UNL     1     -19.849  42.539   3.238  0.00  0.00    +0.000 HD
ENDBRANCH  23  28
ENDBRANCH   8  18
BRANCH   7  30
ATOM     30  O   UNL     1     -18.897  34.368   7.384  0.00  0.00    +0.000 OA
BRANCH  30  34
ATOM     31  O   UNL     1     -20.826  33.267   8.112  0.00  0.00    +0.000 OA
ATOM     32  O   UNL     1     -21.593  29.710   8.649  0.00  0.00    +0.000 OA
ATOM     33  O   UNL     1     -23.585  30.961   8.880  0.00  0.00    +0.000 OA
ATOM     34  C   UNL     1     -19.668  33.165   7.281  0.00  0.00    +0.000 C 
ATOM     35  C   UNL     1     -18.744  32.001   7.708  0.00  0.00    +0.000 C 
ATOM     36  C   UNL     1     -20.800  30.902   8.656  0.00  0.00    +0.000 C 
ATOM     37  C   UNL     1     -19.529  30.688   7.833  0.00  0.00    +0.000 C 
ATOM     38  C   UNL     1     -21.593  32.066   8.070  0.00  0.00    +0.000 C 
ATOM     39  C   UNL     1     -22.878  32.200   8.880  0.00  0.00    +0.000 C 
ATOM     40  C   UNL     1     -22.787  29.905   9.413  0.00  0.00    +0.000 C 
ATOM     41  C   UNL     1     -23.598  28.623   9.347  0.00  0.00    +0.000 C 
BRANCH  35  42
ATOM     42  O   UNL     1     -17.693  31.855   6.738  0.00  0.00    +0.000 OA
ATOM     43  H   UNL     1     -18.078  32.121   5.881  0.00  0.00    +0.000 HD
ENDBRANCH  35  42
BRANCH  37  44
ATOM     44  O   UNL     1     -18.726  29.691   8.487  0.00  0.00    +0.000 OA
ATOM     45  H   UNL     1     -19.218  29.437   9.291  0.00  0.00    +0.000 HD
ENDBRANCH  37  44
ENDBRANCH  30  34
ENDBRANCH   7  30
TORSDOF 8
ENDMDL
MODEL 7
REMARK VINA RESULT:      -5.9      2.790      6.179
REMARK  Name = 
REMARK  11 active torsions:
REMARK  status: ('A' for Active; 'I' for Inactive)
REMARK    1  A    between atoms: O_1  and  C_16
REMARK    2  A    between atoms: O_1  and  C_22
REMARK    3  A    between atoms: O_6  and  C_24
REMARK    4  A    between atoms: O_8  and  C_26
REMARK    5  A    between atoms: O_11  and  C_36
REMARK    6  A    between atoms: O_11  and  C_41
REMARK    7  A    between atoms: O_12  and  C_37
REMARK    8  A    between atoms: O_12  and  C_42
REMARK    9  A    between atoms: O_13  and  C_39
REMARK   10  A    between atoms: C_17  and  C_23
REMARK   11  A    between atoms: C_35  and  C_40
REMARK                            x       y       z     vdW  Elec       q    Type
REMARK                         _______ _______ _______ _____ _____    ______ ____
ROOT
ATOM      1  O   UNL     1     -26.938  40.867  15.739  0.00  0.00    +0.000 OA
ATOM      2  O   UNL     1     -25.187  39.565  16.445  0.00  0.00    +0.000 OA
ATOM      3  O   UNL     1     -23.099  47.479  19.247  0.00  0.00    +0.000 OA
ATOM      4  O   UNL     1     -21.757  45.728  20.222  0.00  0.00    +0.000 OA
ATOM      5  C   UNL     1     -26.372  42.857  16.782  0.00  0.00    +0.000 C 
ATOM      6  C   UNL     1     -25.136  41.979  16.734  0.00  0.00    +0.000 C 
ATOM      7  C   UNL     1     -25.981  44.328  16.732  0.00  0.00    +0.000 C 
ATOM      8  C   UNL     1     -24.337  42.094  18.032  0.00  0.00    +0.000 C 
ATOM      9  C   UNL     1     -24.843  44.621  17.708  0.00  0.00    +0.000 A 
ATOM     10  C   UNL     1     -24.045  43.582  18.290  0.00  0.00    +0.000 A 
ATOM     11  C   UNL     1     -27.170  42.282  15.639  0.00  0.00    +0.000 C 
ATOM     12  C   UNL     1     -25.723  40.657  16.343  0.00  0.00    +0.000 C 
ATOM     13  C   UNL     1     -24.552  45.966  18.010  0.00  0.00    +0.000 A 
ATOM     14  C   UNL     1     -22.981  43.913  19.154  0.00  0.00    +0.000 A 
ATOM     15  C   UNL     1     -23.502  46.239  18.860  0.00  0.00    +0.000 A 
ATOM     16  C   UNL     1     -22.739  45.243  19.414  0.00  0.00    +0.000 A 
ATOM     17  C   UNL     1     -21.993  47.147  20.112  0.00  0.00    +0.000 C 
ENDROOT
BRANCH   8  18
ATOM     18  C   UNL     1     -24.960  41.387  19.238  0.00  0.00    +0.000 A 
ATOM     19  C   UNL     1     -24.636  40.067  19.599  0.00  0.00    +0.000 A 
ATOM     20  C   UNL     1     -25.888  42.079  20.034  0.00  0.00    +0.000 A 
ATOM     21  C   UNL     1     -26.450  41.480  21.162  0.00  0.00    +0.000 A 
ATOM     22  C   UNL     1     -25.203  39.437  20.717  0.00  0.00    +0.000 A 
ATOM     23  C   UNL     1     -26.112  40.157  21.493  0.00  0.00    +0.000 A 
BRANCH  21  24
ATOM     24  O   UNL     1     -27.347  42.077  22.018  0.00  0.00    +0.000 OA
ATOM     25  C   UNL     1     -26.911  43.274  22.656  0.00  0.00    +0.000 C 
ENDBRANCH  21  24
BRANCH  22  26
ATOM     26  O   UNL     1     -24.753  38.157  20.893  0.00  0.00    +0.000 OA
ATOM     27  C   UNL     1     -24.524  37.365  19.736  0.00  0.00    +0.000 C 
ENDBRANCH  22  26
BRANCH  23  28
ATOM     28  O   UNL     1     -26.700  39.620  22.610  0.00  0.00    +0.000 OA
ATOM     29  H   UNL     1     -27.608  39.391  22.331  0.00  0.00    +0.000 HD
ENDBRANCH  23  28
ENDBRANCH   8  18
BRANCH   7  30
ATOM     30  O   UNL     1     -25.493  44.646  15.428  0.00  0.00    +0.000 OA
BRANCH  30  34
ATOM     31  O   UNL     1     -27.401  45.397  14.305  0.00  0.00    +0.000 OA
ATOM     32  O   UNL     1     -27.926  48.064  11.827  0.00  0.00    +0.000 OA
ATOM     33  O   UNL     1     -30.030  47.218  12.492  0.00  0.00    +0.000 OA
ATOM     34  C   UNL     1     -26.138  45.787  14.849  0.00  0.00    +0.000 C 
ATOM     35  C   UNL     1     -25.183  46.341  13.767  0.00  0.00    +0.000 C 
ATOM     36  C   UNL     1     -27.245  46.984  12.475  0.00  0.00    +0.000 C 
ATOM     37  C   UNL     1     -25.863  47.442  12.940  0.00  0.00    +0.000 C 
ATOM     38  C   UNL     1     -28.050  46.500  13.678  0.00  0.00    +0.000 C 
ATOM     39  C   UNL     1     -29.438  46.116  13.178  0.00  0.00    +0.000 C 
ATOM     40  C   UNL     1     -29.223  47.644  11.394  0.00  0.00    +0.000 C 
ATOM     41  C   UNL     1     -29.905  48.833  10.742  0.00  0.00    +0.000 C 
BRANCH  35  42
ATOM     42  O   UNL     1     -24.003  46.862  14.403  0.00  0.00    +0.000 OA
ATOM     43  H   UNL     1     -23.628  46.123  14.920  0.00  0.00    +0.000 HD
ENDBRANCH  35  42
BRANCH  37  44
ATOM     44  O   UNL     1     -25.072  47.750  11.780  0.00  0.00    +0.000 OA
ATOM     45  H   UNL     1     -24.159  47.485  12.000  0.00  0.00    +0.000 HD
ENDBRANCH  37  44
ENDBRANCH  30  34
ENDBRANCH   7  30
TORSDOF 8
ENDMDL
MODEL 8
REMARK VINA RESULT:      -5.8     14.678     18.491
REMARK  Name = 
REMARK  11 active torsions:
REMARK  status: ('A' for Active; 'I' for Inactive)
REMARK    1  A    between atoms: O_1  and  C_16
REMARK    2  A    between atoms: O_1  and  C_22
REMARK    3  A    between atoms: O_6  and  C_24
REMARK    4  A    between atoms: O_8  and  C_26
REMARK    5  A    between atoms: O_11  and  C_36
REMARK    6  A    between atoms: O_11  and  C_41
REMARK    7  A    between atoms: O_12  and  C_37
REMARK    8  A    between atoms: O_12  and  C_42
REMARK    9  A    between atoms: O_13  and  C_39
REMARK   10  A    between atoms: C_17  and  C_23
REMARK   11  A    between atoms: C_35  and  C_40
REMARK                            x       y       z     vdW  Elec       q    Type
REMARK                         _______ _______ _______ _____ _____    ______ ____
ROOT
ATOM      1  O   UNL     1     -23.105  39.788   4.984  0.00  0.00    +0.000 OA
ATOM      2  O   UNL     1     -23.286  41.898   5.862  0.00  0.00    +0.000 OA
ATOM      3  O   UNL     1     -14.758  40.826   4.880  0.00  0.00    +0.000 OA
ATOM      4  O   UNL     1     -15.397  43.111   5.311  0.00  0.00    +0.000 OA
ATOM      5  C   UNL     1     -20.833  39.761   4.534  0.00  0.00    +0.000 C 
ATOM      6  C   UNL     1     -21.106  40.875   5.526  0.00  0.00    +0.000 C 
ATOM      7  C   UNL     1     -19.435  39.193   4.745  0.00  0.00    +0.000 C 
ATOM      8  C   UNL     1     -20.259  42.107   5.206  0.00  0.00    +0.000 C 
ATOM      9  C   UNL     1     -18.407  40.315   4.879  0.00  0.00    +0.000 A 
ATOM     10  C   UNL     1     -18.785  41.674   5.134  0.00  0.00    +0.000 A 
ATOM     11  C   UNL     1     -22.021  38.866   4.781  0.00  0.00    +0.000 C 
ATOM     12  C   UNL     1     -22.600  40.970   5.465  0.00  0.00    +0.000 C 
ATOM     13  C   UNL     1     -17.041  39.984   4.785  0.00  0.00    +0.000 A 
ATOM     14  C   UNL     1     -17.791  42.663   5.288  0.00  0.00    +0.000 A 
ATOM     15  C   UNL     1     -16.107  40.985   4.943  0.00  0.00    +0.000 A 
ATOM     16  C   UNL     1     -16.471  42.285   5.188  0.00  0.00    +0.000 A 
ATOM     17  C   UNL     1     -14.314  42.179   5.112  0.00  0.00    +0.000 C 
ENDROOT
BRANCH   8  18
ATOM     18  C   UNL     1     -20.713  42.902   3.980  0.00  0.00    +0.000 A 
ATOM     19  C   UNL     1     -20.640  42.393   2.671  0.00  0.00    +0.000 A 
ATOM     20  C   UNL     1     -21.240  44.192   4.157  0.00  0.00    +0.000 A 
ATOM     21  C   UNL     1     -21.699  44.933   3.067  0.00  0.00    +0.000 A 
ATOM     22  C   UNL     1     -21.075  43.127   1.558  0.00  0.00    +0.000 A 
ATOM     23  C   UNL     1     -21.605  44.400   1.770  0.00  0.00    +0.000 A 
BRANCH  21  24
ATOM     24  O   UNL     1     -22.251  46.192   3.135  0.00  0.00    +0.000 OA
ATOM     25  C   UNL     1     -21.381  47.242   3.548  0.00  0.00    +0.000 C 
ENDBRANCH  21  24
BRANCH  22  26
ATOM     26  O   UNL     1     -20.918  42.451   0.379  0.00  0.00    +0.000 OA
ATOM     27  C   UNL     1     -19.705  42.633  -0.338  0.00  0.00    +0.000 C 
ENDBRANCH  22  26
BRANCH  23  28
ATOM     28  O   UNL     1     -22.066  45.178   0.738  0.00  0.00    +0.000 OA
ATOM     29  H   UNL     1     -21.404  45.890   0.644  0.00  0.00    +0.000 HD
ENDBRANCH  23  28
ENDBRANCH   8  18
BRANCH   7  30
ATOM     30  O   UNL     1     -19.401  38.459   5.970  0.00  0.00    +0.000 OA
BRANCH  30  34
ATOM     31  O   UNL     1     -19.407  36.371   4.917  0.00  0.00    +0.000 OA
ATOM     32  O   UNL     1     -18.279  33.044   6.009  0.00  0.00    +0.000 OA
ATOM     33  O   UNL     1     -18.853  32.939   3.719  0.00  0.00    +0.000 OA
ATOM     34  C   UNL     1     -18.719  37.203   5.853  0.00  0.00    +0.000 C 
ATOM     35  C   UNL     1     -18.679  36.582   7.268  0.00  0.00    +0.000 C 
ATOM     36  C   UNL     1     -18.872  34.342   6.136  0.00  0.00    +0.000 C 
ATOM     37  C   UNL     1     -18.153  35.140   7.224  0.00  0.00    +0.000 C 
ATOM     38  C   UNL     1     -18.782  35.095   4.812  0.00  0.00    +0.000 C 
ATOM     39  C   UNL     1     -19.453  34.234   3.747  0.00  0.00    +0.000 C 
ATOM     40  C   UNL     1     -18.944  32.294   4.989  0.00  0.00    +0.000 C 
ATOM     41  C   UNL     1     -18.257  30.944   4.880  0.00  0.00    +0.000 C 
BRANCH  35  42
ATOM     42  O   UNL     1     -17.838  37.386   8.112  0.00  0.00    +0.000 OA
ATOM     43  H   UNL     1     -18.070  37.146   9.030  0.00  0.00    +0.000 HD
ENDBRANCH  35  42
BRANCH  37  44
ATOM     44  O   UNL     1     -18.378  34.492   8.487  0.00  0.00    +0.000 OA
ATOM     45  H   UNL     1     -18.311  35.192   9.163  0.00  0.00    +0.000 HD
ENDBRANCH  37  44
ENDBRANCH  30  34
ENDBRANCH   7  30
TORSDOF 8
ENDMDL
MODEL 9
REMARK VINA RESULT:      -5.7      2.395      9.562
REMARK  Name = 
REMARK  11 active torsions:
REMARK  status: ('A' for Active; 'I' for Inactive)
REMARK    1  A    between atoms: O_1  and  C_16
REMARK    2  A    between atoms: O_1  and  C_22
REMARK    3  A    between atoms: O_6  and  C_24
REMARK    4  A    between atoms: O_8  and  C_26
REMARK    5  A    between atoms: O_11  and  C_36
REMARK    6  A    between atoms: O_11  and  C_41
REMARK    7  A    between atoms: O_12  and  C_37
REMARK    8  A    between atoms: O_12  and  C_42
REMARK    9  A    between atoms: O_13  and  C_39
REMARK   10  A    between atoms: C_17  and  C_23
REMARK   11  A    between atoms: C_35  and  C_40
REMARK                            x       y       z     vdW  Elec       q    Type
REMARK                         _______ _______ _______ _____ _____    ______ ____
ROOT
ATOM      1  O   UNL     1     -28.213  43.197  15.742  0.00  0.00    +0.000 OA
ATOM      2  O   UNL     1     -28.926  45.334  16.167  0.00  0.00    +0.000 OA
ATOM      3  O   UNL     1     -21.274  44.907  20.178  0.00  0.00    +0.000 OA
ATOM      4  O   UNL     1     -22.123  47.154  19.963  0.00  0.00    +0.000 OA
ATOM      5  C   UNL     1     -26.077  43.330  16.630  0.00  0.00    +0.000 C 
ATOM      6  C   UNL     1     -26.896  44.475  17.194  0.00  0.00    +0.000 C 
ATOM      7  C   UNL     1     -25.018  42.891  17.633  0.00  0.00    +0.000 C 
ATOM      8  C   UNL     1     -26.059  45.750  17.281  0.00  0.00    +0.000 C 
ATOM      9  C   UNL     1     -24.279  44.100  18.206  0.00  0.00    +0.000 A 
ATOM     10  C   UNL     1     -24.782  45.436  18.079  0.00  0.00    +0.000 A 
ATOM     11  C   UNL     1     -27.169  42.357  16.262  0.00  0.00    +0.000 C 
ATOM     12  C   UNL     1     -28.104  44.444  16.307  0.00  0.00    +0.000 C 
ATOM     13  C   UNL     1     -23.084  43.877  18.916  0.00  0.00    +0.000 A 
ATOM     14  C   UNL     1     -24.079  46.511  18.662  0.00  0.00    +0.000 A 
ATOM     15  C   UNL     1     -22.433  44.959  19.469  0.00  0.00    +0.000 A 
ATOM     16  C   UNL     1     -22.916  46.237  19.346  0.00  0.00    +0.000 A 
ATOM     17  C   UNL     1     -21.083  46.304  20.487  0.00  0.00    +0.000 C 
ENDROOT
BRANCH   8  18
ATOM     18  C   UNL     1     -25.778  46.431  15.939  0.00  0.00    +0.000 A 
ATOM     19  C   UNL     1     -25.303  45.733  14.815  0.00  0.00    +0.000 A 
ATOM     20  C   UNL     1     -26.013  47.810  15.808  0.00  0.00    +0.000 A 
ATOM     21  C   UNL     1     -25.803  48.459  14.591  0.00  0.00    +0.000 A 
ATOM     22  C   UNL     1     -25.065  46.368  13.587  0.00  0.00    +0.000 A 
ATOM     23  C   UNL     1     -25.321  47.735  13.487  0.00  0.00    +0.000 A 
BRANCH  21  24
ATOM     24  O   UNL     1     -26.023  49.796  14.352  0.00  0.00    +0.000 OA
ATOM     25  C   UNL     1     -27.350  50.267  14.573  0.00  0.00    +0.000 C 
ENDBRANCH  21  24
BRANCH  22  26
ATOM     26  O   UNL     1     -24.607  45.510  12.623  0.00  0.00    +0.000 OA
ATOM     27  C   UNL     1     -25.503  44.525  12.127  0.00  0.00    +0.000 C 
ENDBRANCH  22  26
BRANCH  23  28
ATOM     28  O   UNL     1     -25.128  48.428  12.318  0.00  0.00    +0.000 OA
ATOM     29  H   UNL     1     -24.484  49.128  12.543  0.00  0.00    +0.000 HD
ENDBRANCH  23  28
ENDBRANCH   8  18
BRANCH   7  30
ATOM     30  O   UNL     1     -25.647  42.237  18.735  0.00  0.00    +0.000 OA
BRANCH  30  34
ATOM     31  O   UNL     1     -25.927  39.962  18.275  0.00  0.00    +0.000 OA
ATOM     32  O   UNL     1     -25.229  36.934  20.244  0.00  0.00    +0.000 OA
ATOM     33  O   UNL     1     -25.824  36.294  18.048  0.00  0.00    +0.000 OA
ATOM     34  C   UNL     1     -25.133  40.921  18.976  0.00  0.00    +0.000 C 
ATOM     35  C   UNL     1     -25.165  40.700  20.506  0.00  0.00    +0.000 C 
ATOM     36  C   UNL     1     -25.650  38.282  20.005  0.00  0.00    +0.000 C 
ATOM     37  C   UNL     1     -24.829  39.245  20.862  0.00  0.00    +0.000 C 
ATOM     38  C   UNL     1     -25.471  38.636  18.531  0.00  0.00    +0.000 C 
ATOM     39  C   UNL     1     -26.253  37.613  17.714  0.00  0.00    +0.000 C 
ATOM     40  C   UNL     1     -25.990  36.027  19.441  0.00  0.00    +0.000 C 
ATOM     41  C   UNL     1     -25.482  34.623  19.714  0.00  0.00    +0.000 C 
BRANCH  35  42
ATOM     42  O   UNL     1     -24.224  41.590  21.130  0.00  0.00    +0.000 OA
ATOM     43  H   UNL     1     -23.353  41.373  20.744  0.00  0.00    +0.000 HD
ENDBRANCH  35  42
BRANCH  37  44
ATOM     44  O   UNL     1     -25.128  38.991  22.244  0.00  0.00    +0.000 OA
ATOM     45  H   UNL     1     -24.809  38.087  22.426  0.00  0.00    +0.000 HD
ENDBRANCH  37  44
ENDBRANCH  30  34
ENDBRANCH   7  30
TORSDOF 8
ENDMDL
