REMARK  Name = Foretinib.pdbqt.pdb
REMARK  11 active torsions:
REMARK  status: ('A' for Active; 'I' for Inactive)
REMARK    1  A    between atoms: C_2  and  N_31
REMARK    2  A    between atoms: C_7  and  O_8
REMARK    3  A    between atoms: O_8  and  C_9
REMARK    4  A    between atoms: C_17  and  O_19
REMARK    5  A    between atoms: C_18  and  O_29
REMARK    6  A    between atoms: O_19  and  C_20
REMARK    7  A    between atoms: C_21  and  C_22
REMARK    8  A    between atoms: C_22  and  N_23
REMARK    9  A    between atoms: C_32  and  C_35
REMARK   10  A    between atoms: C_35  and  C_38
REMARK   11  A    between atoms: N_40  and  C_42
REMARK                            x       y       z     vdW  Elec       q    Type
REMARK                         _______ _______ _______ _____ _____    ______ ____
ROOT
ATOM      1  F   UNL     1       0.403  -0.067  -0.721  0.00  0.00    +0.000 F 
ATOM      2  C   UNL     1       3.384   1.353   0.783  0.00  0.00    +0.000 A 
ATOM      3  C   UNL     1       2.524   0.788  -0.159  0.00  0.00    +0.000 A 
ATOM      4  C   UNL     1       2.913   1.627   2.069  0.00  0.00    +0.000 A 
ATOM      5  C   UNL     1       1.206   0.507   0.187  0.00  0.00    +0.000 A 
ATOM      6  C   UNL     1       1.593   1.344   2.415  0.00  0.00    +0.000 A 
ATOM      7  C   UNL     1       0.730   0.805   1.464  0.00  0.00    +0.000 A 
ENDROOT
BRANCH   2   8
ATOM      8  N   UNL     1       4.728   1.661   0.501  0.00  0.00    +0.000 N 
ATOM      9  C   UNL     1       5.371   1.425  -0.703  0.00  0.00    +0.000 C 
ATOM     10  O   UNL     1       4.883   0.893  -1.692  0.00  0.00    +0.000 OA
ATOM     11  H   UNL     1       5.276   2.052   1.262  0.00  0.00    +0.000 HD
BRANCH   9  12
ATOM     12  C   UNL     1       6.816   1.829  -0.727  0.00  0.00    +0.000 C 
ATOM     13  C   UNL     1       7.137   3.221  -0.431  0.00  0.00    +0.000 C 
ATOM     14  C   UNL     1       7.254   2.695  -1.816  0.00  0.00    +0.000 C 
BRANCH  12  15
ATOM     15  C   UNL     1       7.768   0.784  -0.227  0.00  0.00    +0.000 C 
ATOM     16  O   UNL     1       7.987   0.712   0.977  0.00  0.00    +0.000 OA
ATOM     17  N   UNL     1       8.279  -0.052  -1.205  0.00  0.00    +0.000 N 
ATOM     18  H   UNL     1       7.966   0.088  -2.161  0.00  0.00    +0.000 HD
BRANCH  17  19
ATOM     19  C   UNL     1       9.176  -1.113  -0.985  0.00  0.00    +0.000 A 
ATOM     20  C   UNL     1       9.569  -1.871  -2.090  0.00  0.00    +0.000 A 
ATOM     21  C   UNL     1      10.455  -2.935  -1.937  0.00  0.00    +0.000 A 
ATOM     22  C   UNL     1      10.946  -3.234  -0.671  0.00  0.00    +0.000 A 
ATOM     23  F   UNL     1      11.800  -4.255  -0.521  0.00  0.00    +0.000 F 
ATOM     24  C   UNL     1      10.568  -2.489   0.440  0.00  0.00    +0.000 A 
ATOM     25  C   UNL     1       9.681  -1.428   0.278  0.00  0.00    +0.000 A 
ENDBRANCH  17  19
ENDBRANCH  12  15
ENDBRANCH   9  12
ENDBRANCH   2   8
BRANCH   7  26
ATOM     26  O   UNL     1      -0.540   0.487   1.879  0.00  0.00    +0.000 OA
BRANCH  26  27
ATOM     27  C   UNL     1      -1.591   0.998   1.143  0.00  0.00    +0.000 A 
ATOM     28  C   UNL     1      -2.745   0.211   1.004  0.00  0.00    +0.000 A 
ATOM     29  C   UNL     1      -3.832   0.760   0.302  0.00  0.00    +0.000 A 
ATOM     30  C   UNL     1      -2.840  -1.087   1.530  0.00  0.00    +0.000 A 
ATOM     31  N   UNL     1      -3.800   1.997  -0.218  0.00  0.00    +0.000 NA
ATOM     32  C   UNL     1      -4.972  -0.016   0.155  0.00  0.00    +0.000 A 
ATOM     33  C   UNL     1      -2.675   2.728  -0.051  0.00  0.00    +0.000 A 
ATOM     34  C   UNL     1      -1.555   2.287   0.623  0.00  0.00    +0.000 A 
ATOM     35  C   UNL     1      -5.074  -1.311   0.679  0.00  0.00    +0.000 A 
ATOM     36  C   UNL     1      -3.994  -1.856   1.375  0.00  0.00    +0.000 A 
BRANCH  36  37
ATOM     37  O   UNL     1      -4.141  -3.133   1.863  0.00  0.00    +0.000 OA
ATOM     38  C   UNL     1      -3.063  -3.624   2.612  0.00  0.00    +0.000 C 
ENDBRANCH  36  37
BRANCH  35  39
ATOM     39  O   UNL     1      -6.195  -2.095   0.538  0.00  0.00    +0.000 OA
BRANCH  39  40
ATOM     40  C   UNL     1      -7.230  -1.497  -0.047  0.00  0.00    +0.000 C 
ATOM     41  C   UNL     1      -8.433  -0.819  -0.712  0.00  0.00    +0.000 C 
BRANCH  41  42
ATOM     42  C   UNL     1      -9.639  -0.141  -1.371  0.00  0.00    +0.000 C 
BRANCH  42  43
ATOM     43  N   UNL     1     -10.785   0.504  -1.996  0.00  0.00    +0.000 N 
ATOM     44  C   UNL     1     -11.898  -0.494  -1.989  0.00  0.00    +0.000 C 
ATOM     45  C   UNL     1     -13.217  -0.486  -1.150  0.00  0.00    +0.000 C 
ATOM     46  O   UNL     1     -13.750   0.343  -0.226  0.00  0.00    +0.000 OA
ATOM     47  C   UNL     1     -12.744   1.241  -0.227  0.00  0.00    +0.000 C 
ATOM     48  C   UNL     1     -11.383   1.409  -0.969  0.00  0.00    +0.000 C 
ENDBRANCH  42  43
ENDBRANCH  41  42
ENDBRANCH  39  40
ENDBRANCH  35  39
ENDBRANCH  26  27
ENDBRANCH   7  26
TORSDOF 11
