MODEL 1
REMARK VINA RESULT:      -8.3      0.000      0.000
REMARK  Name = Foretinib.pdbqt.pdb
REMARK  11 active torsions:
REMARK  status: ('A' for Active; 'I' for Inactive)
REMARK    1  A    between atoms: C_2  and  N_31
REMARK    2  A    between atoms: C_7  and  O_8
REMARK    3  A    between atoms: O_8  and  C_9
REMARK    4  A    between atoms: C_17  and  O_19
REMARK    5  A    between atoms: C_18  and  O_29
REMARK    6  A    between atoms: O_19  and  C_20
REMARK    7  A    between atoms: C_21  and  C_22
REMARK    8  A    between atoms: C_22  and  N_23
REMARK    9  A    between atoms: C_32  and  C_35
REMARK   10  A    between atoms: C_35  and  C_38
REMARK   11  A    between atoms: N_40  and  C_42
REMARK                            x       y       z     vdW  Elec       q    Type
REMARK                         _______ _______ _______ _____ _____    ______ ____
ROOT
ATOM      1  F   UNL     1      -2.004  46.518  33.514  0.00  0.00    +0.000 F 
ATOM      2  C   UNL     1      -1.569  45.674  30.013  0.00  0.00    +0.000 A 
ATOM      3  C   UNL     1      -1.898  46.387  31.165  0.00  0.00    +0.000 A 
ATOM      4  C   UNL     1      -0.997  44.405  30.127  0.00  0.00    +0.000 A 
ATOM      5  C   UNL     1      -1.650  45.833  32.417  0.00  0.00    +0.000 A 
ATOM      6  C   UNL     1      -0.750  43.850  31.381  0.00  0.00    +0.000 A 
ATOM      7  C   UNL     1      -1.055  44.576  32.530  0.00  0.00    +0.000 A 
ENDROOT
BRANCH   2   8
ATOM      8  N   UNL     1      -1.794  46.173  28.716  0.00  0.00    +0.000 N 
ATOM      9  C   UNL     1      -2.914  45.921  27.941  0.00  0.00    +0.000 C 
ATOM     10  O   UNL     1      -3.862  45.210  28.248  0.00  0.00    +0.000 OA
ATOM     11  H   UNL     1      -1.050  46.732  28.307  0.00  0.00    +0.000 HD
BRANCH   9  12
ATOM     12  C   UNL     1      -2.888  46.560  26.583  0.00  0.00    +0.000 C 
ATOM     13  C   UNL     1      -1.646  46.484  25.821  0.00  0.00    +0.000 C 
ATOM     14  C   UNL     1      -2.087  47.769  26.424  0.00  0.00    +0.000 C 
BRANCH  12  15
ATOM     15  C   UNL     1      -4.172  46.455  25.816  0.00  0.00    +0.000 C 
ATOM     16  O   UNL     1      -4.338  45.496  25.071  0.00  0.00    +0.000 OA
ATOM     17  N   UNL     1      -5.087  47.460  26.076  0.00  0.00    +0.000 N 
ATOM     18  H   UNL     1      -4.837  48.166  26.762  0.00  0.00    +0.000 HD
BRANCH  17  19
ATOM     19  C   UNL     1      -6.363  47.573  25.494  0.00  0.00    +0.000 A 
ATOM     20  C   UNL     1      -7.405  46.841  26.066  0.00  0.00    +0.000 A 
ATOM     21  C   UNL     1      -8.691  46.911  25.535  0.00  0.00    +0.000 A 
ATOM     22  C   UNL     1      -8.927  47.719  24.429  0.00  0.00    +0.000 A 
ATOM     23  F   UNL     1     -10.163  47.790  23.917  0.00  0.00    +0.000 F 
ATOM     24  C   UNL     1      -7.903  48.457  23.847  0.00  0.00    +0.000 A 
ATOM     25  C   UNL     1      -6.620  48.381  24.384  0.00  0.00    +0.000 A 
ENDBRANCH  17  19
ENDBRANCH  12  15
ENDBRANCH   9  12
ENDBRANCH   2   8
BRANCH   7  26
ATOM     26  O   UNL     1      -0.850  43.954  33.737  0.00  0.00    +0.000 OA
BRANCH  26  27
ATOM     27  C   UNL     1       0.353  43.299  33.914  0.00  0.00    +0.000 A 
ATOM     28  C   UNL     1       0.378  41.906  33.742  0.00  0.00    +0.000 A 
ATOM     29  C   UNL     1       1.616  41.252  33.867  0.00  0.00    +0.000 A 
ATOM     30  C   UNL     1      -0.777  41.160  33.461  0.00  0.00    +0.000 A 
ATOM     31  N   UNL     1       2.754  41.914  34.129  0.00  0.00    +0.000 NA
ATOM     32  C   UNL     1       1.646  39.875  33.706  0.00  0.00    +0.000 A 
ATOM     33  C   UNL     1       2.690  43.257  34.275  0.00  0.00    +0.000 A 
ATOM     34  C   UNL     1       1.529  43.995  34.168  0.00  0.00    +0.000 A 
ATOM     35  C   UNL     1       0.497  39.125  33.424  0.00  0.00    +0.000 A 
ATOM     36  C   UNL     1      -0.732  39.774  33.301  0.00  0.00    +0.000 A 
BRANCH  36  37
ATOM     37  O   UNL     1      -1.831  38.993  33.031  0.00  0.00    +0.000 OA
ATOM     38  C   UNL     1      -2.717  38.802  34.100  0.00  0.00    +0.000 C 
ENDBRANCH  36  37
BRANCH  35  39
ATOM     39  O   UNL     1       0.509  37.759  33.266  0.00  0.00    +0.000 OA
BRANCH  39  40
ATOM     40  C   UNL     1       1.590  37.272  32.662  0.00  0.00    +0.000 C 
ATOM     41  C   UNL     1       2.843  36.709  31.983  0.00  0.00    +0.000 C 
BRANCH  41  42
ATOM     42  C   UNL     1       4.097  36.142  31.309  0.00  0.00    +0.000 C 
BRANCH  42  43
ATOM     43  N   UNL     1       5.288  35.602  30.667  0.00  0.00    +0.000 N 
ATOM     44  C   UNL     1       5.106  34.120  30.599  0.00  0.00    +0.000 C 
ATOM     45  C   UNL     1       4.856  33.219  29.347  0.00  0.00    +0.000 C 
ATOM     46  O   UNL     1       4.724  33.449  28.022  0.00  0.00    +0.000 OA
ATOM     47  C   UNL     1       4.882  34.787  28.083  0.00  0.00    +0.000 C 
ATOM     48  C   UNL     1       5.134  35.844  29.201  0.00  0.00    +0.000 C 
ENDBRANCH  42  43
ENDBRANCH  41  42
ENDBRANCH  39  40
ENDBRANCH  35  39
ENDBRANCH  26  27
ENDBRANCH   7  26
TORSDOF 11
ENDMDL
MODEL 2
REMARK VINA RESULT:      -7.5      6.647     15.262
REMARK  Name = Foretinib.pdbqt.pdb
REMARK  11 active torsions:
REMARK  status: ('A' for Active; 'I' for Inactive)
REMARK    1  A    between atoms: C_2  and  N_31
REMARK    2  A    between atoms: C_7  and  O_8
REMARK    3  A    between atoms: O_8  and  C_9
REMARK    4  A    between atoms: C_17  and  O_19
REMARK    5  A    between atoms: C_18  and  O_29
REMARK    6  A    between atoms: O_19  and  C_20
REMARK    7  A    between atoms: C_21  and  C_22
REMARK    8  A    between atoms: C_22  and  N_23
REMARK    9  A    between atoms: C_32  and  C_35
REMARK   10  A    between atoms: C_35  and  C_38
REMARK   11  A    between atoms: N_40  and  C_42
REMARK                            x       y       z     vdW  Elec       q    Type
REMARK                         _______ _______ _______ _____ _____    ______ ____
ROOT
ATOM      1  F   UNL     1      -6.160  48.273  28.632  0.00  0.00    +0.000 F 
ATOM      2  C   UNL     1      -3.249  46.178  28.079  0.00  0.00    +0.000 A 
ATOM      3  C   UNL     1      -4.070  47.188  28.581  0.00  0.00    +0.000 A 
ATOM      4  C   UNL     1      -3.766  45.264  27.158  0.00  0.00    +0.000 A 
ATOM      5  C   UNL     1      -5.395  47.275  28.165  0.00  0.00    +0.000 A 
ATOM      6  C   UNL     1      -5.093  45.353  26.741  0.00  0.00    +0.000 A 
ATOM      7  C   UNL     1      -5.917  46.346  27.264  0.00  0.00    +0.000 A 
ENDROOT
BRANCH   2   8
ATOM      8  N   UNL     1      -1.901  46.033  28.455  0.00  0.00    +0.000 N 
ATOM      9  C   UNL     1      -0.808  46.284  27.642  0.00  0.00    +0.000 C 
ATOM     10  O   UNL     1      -0.844  46.644  26.472  0.00  0.00    +0.000 OA
ATOM     11  H   UNL     1      -1.724  45.676  29.390  0.00  0.00    +0.000 HD
BRANCH   9  12
ATOM     12  C   UNL     1       0.521  46.025  28.288  0.00  0.00    +0.000 C 
ATOM     13  C   UNL     1       1.376  45.001  27.695  0.00  0.00    +0.000 C 
ATOM     14  C   UNL     1       0.691  44.759  28.992  0.00  0.00    +0.000 C 
BRANCH  12  15
ATOM     15  C   UNL     1       1.196  47.242  28.847  0.00  0.00    +0.000 C 
ATOM     16  O   UNL     1       2.305  47.122  29.354  0.00  0.00    +0.000 OA
ATOM     17  N   UNL     1       0.493  48.423  28.681  0.00  0.00    +0.000 N 
ATOM     18  H   UNL     1      -0.395  48.383  28.190  0.00  0.00    +0.000 HD
BRANCH  17  19
ATOM     19  C   UNL     1       0.920  49.694  29.106  0.00  0.00    +0.000 A 
ATOM     20  C   UNL     1       1.516  50.529  28.158  0.00  0.00    +0.000 A 
ATOM     21  C   UNL     1       1.961  51.800  28.517  0.00  0.00    +0.000 A 
ATOM     22  C   UNL     1       1.804  52.229  29.831  0.00  0.00    +0.000 A 
ATOM     23  F   UNL     1       2.228  53.451  30.178  0.00  0.00    +0.000 F 
ATOM     24  C   UNL     1       1.211  51.412  30.787  0.00  0.00    +0.000 A 
ATOM     25  C   UNL     1       0.770  50.143  30.419  0.00  0.00    +0.000 A 
ENDBRANCH  17  19
ENDBRANCH  12  15
ENDBRANCH   9  12
ENDBRANCH   2   8
BRANCH   7  26
ATOM     26  O   UNL     1      -7.196  46.426  26.770  0.00  0.00    +0.000 OA
BRANCH  26  27
ATOM     27  C   UNL     1      -7.406  47.270  25.697  0.00  0.00    +0.000 A 
ATOM     28  C   UNL     1      -8.711  47.736  25.469  0.00  0.00    +0.000 A 
ATOM     29  C   UNL     1      -8.908  48.639  24.410  0.00  0.00    +0.000 A 
ATOM     30  C   UNL     1      -9.804  47.327  26.248  0.00  0.00    +0.000 A 
ATOM     31  N   UNL     1      -7.899  49.069  23.636  0.00  0.00    +0.000 NA
ATOM     32  C   UNL     1     -10.196  49.097  24.175  0.00  0.00    +0.000 A 
ATOM     33  C   UNL     1      -6.656  48.608  23.897  0.00  0.00    +0.000 A 
ATOM     34  C   UNL     1      -6.353  47.723  24.911  0.00  0.00    +0.000 A 
ATOM     35  C   UNL     1     -11.291  48.694  24.950  0.00  0.00    +0.000 A 
ATOM     36  C   UNL     1     -11.095  47.796  26.000  0.00  0.00    +0.000 A 
BRANCH  36  37
ATOM     37  O   UNL     1     -12.202  47.426  26.726  0.00  0.00    +0.000 OA
ATOM     38  C   UNL     1     -12.282  47.952  28.022  0.00  0.00    +0.000 C 
ENDBRANCH  36  37
BRANCH  35  39
ATOM     39  O   UNL     1     -12.575  49.135  24.727  0.00  0.00    +0.000 OA
BRANCH  39  40
ATOM     40  C   UNL     1     -12.673  50.394  24.308  0.00  0.00    +0.000 C 
ATOM     41  C   UNL     1     -12.772  51.848  23.835  0.00  0.00    +0.000 C 
BRANCH  41  42
ATOM     42  C   UNL     1     -12.864  53.303  23.362  0.00  0.00    +0.000 C 
BRANCH  42  43
ATOM     43  N   UNL     1     -12.951  54.685  22.913  0.00  0.00    +0.000 N 
ATOM     44  C   UNL     1     -11.813  55.417  23.549  0.00  0.00    +0.000 C 
ATOM     45  C   UNL     1     -10.525  55.999  22.880  0.00  0.00    +0.000 C 
ATOM     46  O   UNL     1     -10.041  56.031  21.620  0.00  0.00    +0.000 OA
ATOM     47  C   UNL     1     -11.064  55.365  21.045  0.00  0.00    +0.000 C 
ATOM     48  C   UNL     1     -12.401  54.723  21.524  0.00  0.00    +0.000 C 
ENDBRANCH  42  43
ENDBRANCH  41  42
ENDBRANCH  39  40
ENDBRANCH  35  39
ENDBRANCH  26  27
ENDBRANCH   7  26
TORSDOF 11
ENDMDL
MODEL 3
REMARK VINA RESULT:      -7.0     21.723     25.748
REMARK  Name = Foretinib.pdbqt.pdb
REMARK  11 active torsions:
REMARK  status: ('A' for Active; 'I' for Inactive)
REMARK    1  A    between atoms: C_2  and  N_31
REMARK    2  A    between atoms: C_7  and  O_8
REMARK    3  A    between atoms: O_8  and  C_9
REMARK    4  A    between atoms: C_17  and  O_19
REMARK    5  A    between atoms: C_18  and  O_29
REMARK    6  A    between atoms: O_19  and  C_20
REMARK    7  A    between atoms: C_21  and  C_22
REMARK    8  A    between atoms: C_22  and  N_23
REMARK    9  A    between atoms: C_32  and  C_35
REMARK   10  A    between atoms: C_35  and  C_38
REMARK   11  A    between atoms: N_40  and  C_42
REMARK                            x       y       z     vdW  Elec       q    Type
REMARK                         _______ _______ _______ _____ _____    ______ ____
ROOT
ATOM      1  F   UNL     1     -26.301  39.866  17.627  0.00  0.00    +0.000 F 
ATOM      2  C   UNL     1     -25.066  42.738  19.468  0.00  0.00    +0.000 A 
ATOM      3  C   UNL     1     -25.564  41.954  18.427  0.00  0.00    +0.000 A 
ATOM      4  C   UNL     1     -24.860  42.163  20.725  0.00  0.00    +0.000 A 
ATOM      5  C   UNL     1     -25.855  40.612  18.648  0.00  0.00    +0.000 A 
ATOM      6  C   UNL     1     -25.150  40.818  20.945  0.00  0.00    +0.000 A 
ATOM      7  C   UNL     1     -25.673  40.046  19.910  0.00  0.00    +0.000 A 
ENDROOT
BRANCH   2   8
ATOM      8  N   UNL     1     -24.749  44.100  19.314  0.00  0.00    +0.000 N 
ATOM      9  C   UNL     1     -23.654  44.598  18.627  0.00  0.00    +0.000 C 
ATOM     10  O   UNL     1     -22.784  43.936  18.075  0.00  0.00    +0.000 OA
ATOM     11  H   UNL     1     -25.358  44.766  19.782  0.00  0.00    +0.000 HD
BRANCH   9  12
ATOM     12  C   UNL     1     -23.540  46.094  18.637  0.00  0.00    +0.000 C 
ATOM     13  C   UNL     1     -24.642  46.863  18.068  0.00  0.00    +0.000 C 
ATOM     14  C   UNL     1     -23.341  46.762  17.356  0.00  0.00    +0.000 C 
BRANCH  12  15
ATOM     15  C   UNL     1     -22.858  46.663  19.845  0.00  0.00    +0.000 C 
ATOM     16  O   UNL     1     -23.256  46.336  20.958  0.00  0.00    +0.000 OA
ATOM     17  N   UNL     1     -21.781  47.488  19.570  0.00  0.00    +0.000 N 
ATOM     18  H   UNL     1     -21.526  47.628  18.597  0.00  0.00    +0.000 HD
BRANCH  17  19
ATOM     19  C   UNL     1     -20.975  48.127  20.530  0.00  0.00    +0.000 A 
ATOM     20  C   UNL     1     -21.183  49.491  20.748  0.00  0.00    +0.000 A 
ATOM     21  C   UNL     1     -20.417  50.180  21.685  0.00  0.00    +0.000 A 
ATOM     22  C   UNL     1     -19.444  49.496  22.403  0.00  0.00    +0.000 A 
ATOM     23  F   UNL     1     -18.707  50.156  23.307  0.00  0.00    +0.000 F 
ATOM     24  C   UNL     1     -19.224  48.138  22.202  0.00  0.00    +0.000 A 
ATOM     25  C   UNL     1     -19.993  47.457  21.262  0.00  0.00    +0.000 A 
ENDBRANCH  17  19
ENDBRANCH  12  15
ENDBRANCH   9  12
ENDBRANCH   2   8
BRANCH   7  26
ATOM     26  O   UNL     1     -25.879  38.713  20.166  0.00  0.00    +0.000 OA
BRANCH  26  27
ATOM     27  C   UNL     1     -24.882  37.835  19.788  0.00  0.00    +0.000 A 
ATOM     28  C   UNL     1     -25.198  36.471  19.704  0.00  0.00    +0.000 A 
ATOM     29  C   UNL     1     -24.195  35.591  19.264  0.00  0.00    +0.000 A 
ATOM     30  C   UNL     1     -26.463  35.968  20.048  0.00  0.00    +0.000 A 
ATOM     31  N   UNL     1     -22.969  36.015  18.917  0.00  0.00    +0.000 NA
ATOM     32  C   UNL     1     -24.500  34.240  19.186  0.00  0.00    +0.000 A 
ATOM     33  C   UNL     1     -22.708  37.339  18.999  0.00  0.00    +0.000 A 
ATOM     34  C   UNL     1     -23.621  38.287  19.414  0.00  0.00    +0.000 A 
ATOM     35  C   UNL     1     -25.760  33.732  19.525  0.00  0.00    +0.000 A 
ATOM     36  C   UNL     1     -26.756  34.606  19.964  0.00  0.00    +0.000 A 
BRANCH  36  37
ATOM     37  O   UNL     1     -27.973  34.058  20.292  0.00  0.00    +0.000 OA
ATOM     38  C   UNL     1     -28.646  34.669  21.359  0.00  0.00    +0.000 C 
ENDBRANCH  36  37
BRANCH  35  39
ATOM     39  O   UNL     1     -26.077  32.396  19.459  0.00  0.00    +0.000 OA
BRANCH  39  40
ATOM     40  C   UNL     1     -25.068  31.565  19.709  0.00  0.00    +0.000 C 
ATOM     41  C   UNL     1     -23.918  30.594  19.999  0.00  0.00    +0.000 C 
BRANCH  41  42
ATOM     42  C   UNL     1     -22.770  29.620  20.284  0.00  0.00    +0.000 C 
BRANCH  42  43
ATOM     43  N   UNL     1     -21.680  28.693  20.555  0.00  0.00    +0.000 N 
ATOM     44  C   UNL     1     -20.622  29.469  21.270  0.00  0.00    +0.000 C 
ATOM     45  C   UNL     1     -20.170  29.365  22.763  0.00  0.00    +0.000 C 
ATOM     46  O   UNL     1     -20.550  28.615  23.821  0.00  0.00    +0.000 OA
ATOM     47  C   UNL     1     -21.509  27.918  23.178  0.00  0.00    +0.000 C 
ATOM     48  C   UNL     1     -22.094  27.874  21.733  0.00  0.00    +0.000 C 
ENDBRANCH  42  43
ENDBRANCH  41  42
ENDBRANCH  39  40
ENDBRANCH  35  39
ENDBRANCH  26  27
ENDBRANCH   7  26
TORSDOF 11
ENDMDL
MODEL 4
REMARK VINA RESULT:      -6.9      9.067     11.658
REMARK  Name = Foretinib.pdbqt.pdb
REMARK  11 active torsions:
REMARK  status: ('A' for Active; 'I' for Inactive)
REMARK    1  A    between atoms: C_2  and  N_31
REMARK    2  A    between atoms: C_7  and  O_8
REMARK    3  A    between atoms: O_8  and  C_9
REMARK    4  A    between atoms: C_17  and  O_19
REMARK    5  A    between atoms: C_18  and  O_29
REMARK    6  A    between atoms: O_19  and  C_20
REMARK    7  A    between atoms: C_21  and  C_22
REMARK    8  A    between atoms: C_22  and  N_23
REMARK    9  A    between atoms: C_32  and  C_35
REMARK   10  A    between atoms: C_35  and  C_38
REMARK   11  A    between atoms: N_40  and  C_42
REMARK                            x       y       z     vdW  Elec       q    Type
REMARK                         _______ _______ _______ _____ _____    ______ ____
ROOT
ATOM      1  F   UNL     1     -11.595  48.209  36.389  0.00  0.00    +0.000 F 
ATOM      2  C   UNL     1      -9.461  47.328  33.590  0.00  0.00    +0.000 A 
ATOM      3  C   UNL     1     -10.064  48.071  34.605  0.00  0.00    +0.000 A 
ATOM      4  C   UNL     1      -9.808  45.986  33.420  0.00  0.00    +0.000 A 
ATOM      5  C   UNL     1     -11.001  47.470  35.441  0.00  0.00    +0.000 A 
ATOM      6  C   UNL     1     -10.747  45.385  34.257  0.00  0.00    +0.000 A 
ATOM      7  C   UNL     1     -11.327  46.123  35.286  0.00  0.00    +0.000 A 
ENDROOT
BRANCH   2   8
ATOM      8  N   UNL     1      -8.508  47.872  32.709  0.00  0.00    +0.000 N 
ATOM      9  C   UNL     1      -8.793  48.528  31.523  0.00  0.00    +0.000 C 
ATOM     10  O   UNL     1      -9.906  48.713  31.047  0.00  0.00    +0.000 OA
ATOM     11  H   UNL     1      -7.531  47.733  32.951  0.00  0.00    +0.000 HD
BRANCH   9  12
ATOM     12  C   UNL     1      -7.586  48.990  30.761  0.00  0.00    +0.000 C 
ATOM     13  C   UNL     1      -6.702  49.953  31.407  0.00  0.00    +0.000 C 
ATOM     14  C   UNL     1      -7.579  50.367  30.282  0.00  0.00    +0.000 C 
BRANCH  12  15
ATOM     15  C   UNL     1      -6.946  47.939  29.904  0.00  0.00    +0.000 C 
ATOM     16  O   UNL     1      -6.777  46.818  30.370  0.00  0.00    +0.000 OA
ATOM     17  N   UNL     1      -6.648  48.344  28.614  0.00  0.00    +0.000 N 
ATOM     18  H   UNL     1      -6.895  49.291  28.344  0.00  0.00    +0.000 HD
BRANCH  17  19
ATOM     19  C   UNL     1      -6.059  47.539  27.621  0.00  0.00    +0.000 A 
ATOM     20  C   UNL     1      -6.910  46.828  26.772  0.00  0.00    +0.000 A 
ATOM     21  C   UNL     1      -6.388  46.014  25.770  0.00  0.00    +0.000 A 
ATOM     22  C   UNL     1      -5.009  45.918  25.621  0.00  0.00    +0.000 A 
ATOM     23  F   UNL     1      -4.504  45.138  24.656  0.00  0.00    +0.000 F 
ATOM     24  C   UNL     1      -4.147  46.621  26.455  0.00  0.00    +0.000 A 
ATOM     25  C   UNL     1      -4.677  47.431  27.455  0.00  0.00    +0.000 A 
ENDBRANCH  17  19
ENDBRANCH  12  15
ENDBRANCH   9  12
ENDBRANCH   2   8
BRANCH   7  26
ATOM     26  O   UNL     1     -12.292  45.499  36.038  0.00  0.00    +0.000 OA
BRANCH  26  27
ATOM     27  C   UNL     1     -11.884  44.461  36.853  0.00  0.00    +0.000 A 
ATOM     28  C   UNL     1     -12.498  43.210  36.687  0.00  0.00    +0.000 A 
ATOM     29  C   UNL     1     -12.038  42.144  37.480  0.00  0.00    +0.000 A 
ATOM     30  C   UNL     1     -13.542  42.997  35.773  0.00  0.00    +0.000 A 
ATOM     31  N   UNL     1     -11.040  42.287  38.366  0.00  0.00    +0.000 NA
ATOM     32  C   UNL     1     -12.646  40.907  37.326  0.00  0.00    +0.000 A 
ATOM     33  C   UNL     1     -10.466  43.505  38.486  0.00  0.00    +0.000 A 
ATOM     34  C   UNL     1     -10.837  44.614  37.755  0.00  0.00    +0.000 A 
ATOM     35  C   UNL     1     -13.687  40.688  36.415  0.00  0.00    +0.000 A 
ATOM     36  C   UNL     1     -14.144  41.747  35.628  0.00  0.00    +0.000 A 
BRANCH  36  37
ATOM     37  O   UNL     1     -15.173  41.483  34.755  0.00  0.00    +0.000 OA
ATOM     38  C   UNL     1     -16.398  42.092  35.060  0.00  0.00    +0.000 C 
ENDBRANCH  36  37
BRANCH  35  39
ATOM     39  O   UNL     1     -14.303  39.470  36.253  0.00  0.00    +0.000 OA
BRANCH  39  40
ATOM     40  C   UNL     1     -13.542  38.413  36.526  0.00  0.00    +0.000 C 
ATOM     41  C   UNL     1     -12.676  37.191  36.852  0.00  0.00    +0.000 C 
BRANCH  41  42
ATOM     42  C   UNL     1     -11.817  35.965  37.178  0.00  0.00    +0.000 C 
BRANCH  42  43
ATOM     43  N   UNL     1     -11.001  34.799  37.489  0.00  0.00    +0.000 N 
ATOM     44  C   UNL     1     -10.394  34.343  36.202  0.00  0.00    +0.000 C 
ATOM     45  C   UNL     1      -8.901  34.414  35.742  0.00  0.00    +0.000 C 
ATOM     46  O   UNL     1      -7.758  34.874  36.295  0.00  0.00    +0.000 OA
ATOM     47  C   UNL     1      -8.305  35.292  37.454  0.00  0.00    +0.000 C 
ATOM     48  C   UNL     1      -9.731  35.310  38.086  0.00  0.00    +0.000 C 
ENDBRANCH  42  43
ENDBRANCH  41  42
ENDBRANCH  39  40
ENDBRANCH  35  39
ENDBRANCH  26  27
ENDBRANCH   7  26
TORSDOF 11
ENDMDL
MODEL 5
REMARK VINA RESULT:      -6.8     24.615     28.155
REMARK  Name = Foretinib.pdbqt.pdb
REMARK  11 active torsions:
REMARK  status: ('A' for Active; 'I' for Inactive)
REMARK    1  A    between atoms: C_2  and  N_31
REMARK    2  A    between atoms: C_7  and  O_8
REMARK    3  A    between atoms: O_8  and  C_9
REMARK    4  A    between atoms: C_17  and  O_19
REMARK    5  A    between atoms: C_18  and  O_29
REMARK    6  A    between atoms: O_19  and  C_20
REMARK    7  A    between atoms: C_21  and  C_22
REMARK    8  A    between atoms: C_22  and  N_23
REMARK    9  A    between atoms: C_32  and  C_35
REMARK   10  A    between atoms: C_35  and  C_38
REMARK   11  A    between atoms: N_40  and  C_42
REMARK                            x       y       z     vdW  Elec       q    Type
REMARK                         _______ _______ _______ _____ _____    ______ ____
ROOT
ATOM      1  F   UNL     1       2.701  36.651   1.092  0.00  0.00    +0.000 F 
ATOM      2  C   UNL     1       0.148  38.825   2.477  0.00  0.00    +0.000 A 
ATOM      3  C   UNL     1       0.753  37.790   1.763  0.00  0.00    +0.000 A 
ATOM      4  C   UNL     1       0.938  39.695   3.232  0.00  0.00    +0.000 A 
ATOM      5  C   UNL     1       2.134  37.630   1.812  0.00  0.00    +0.000 A 
ATOM      6  C   UNL     1       2.322  39.535   3.279  0.00  0.00    +0.000 A 
ATOM      7  C   UNL     1       2.919  38.484   2.586  0.00  0.00    +0.000 A 
ENDROOT
BRANCH   2   8
ATOM      8  N   UNL     1      -1.242  39.045   2.471  0.00  0.00    +0.000 N 
ATOM      9  C   UNL     1      -1.916  39.903   1.617  0.00  0.00    +0.000 C 
ATOM     10  O   UNL     1      -1.411  40.616   0.760  0.00  0.00    +0.000 OA
ATOM     11  H   UNL     1      -1.784  38.561   3.182  0.00  0.00    +0.000 HD
BRANCH   9  12
ATOM     12  C   UNL     1      -3.399  39.967   1.842  0.00  0.00    +0.000 C 
ATOM     13  C   UNL     1      -4.217  40.579   0.801  0.00  0.00    +0.000 C 
ATOM     14  C   UNL     1      -3.985  41.279   2.092  0.00  0.00    +0.000 C 
BRANCH  12  15
ATOM     15  C   UNL     1      -3.976  38.785   2.563  0.00  0.00    +0.000 C 
ATOM     16  O   UNL     1      -3.874  38.730   3.783  0.00  0.00    +0.000 OA
ATOM     17  N   UNL     1      -4.630  37.873   1.752  0.00  0.00    +0.000 N 
ATOM     18  H   UNL     1      -4.686  38.075   0.758  0.00  0.00    +0.000 HD
BRANCH  17  19
ATOM     19  C   UNL     1      -5.263  36.697   2.193  0.00  0.00    +0.000 A 
ATOM     20  C   UNL     1      -6.570  36.802   2.671  0.00  0.00    +0.000 A 
ATOM     21  C   UNL     1      -7.250  35.673   3.122  0.00  0.00    +0.000 A 
ATOM     22  C   UNL     1      -6.613  34.437   3.088  0.00  0.00    +0.000 A 
ATOM     23  F   UNL     1      -7.265  33.349   3.518  0.00  0.00    +0.000 F 
ATOM     24  C   UNL     1      -5.313  34.313   2.613  0.00  0.00    +0.000 A 
ATOM     25  C   UNL     1      -4.641  35.447   2.165  0.00  0.00    +0.000 A 
ENDBRANCH  17  19
ENDBRANCH  12  15
ENDBRANCH   9  12
ENDBRANCH   2   8
BRANCH   7  26
ATOM     26  O   UNL     1       4.290  38.413   2.617  0.00  0.00    +0.000 OA
BRANCH  26  27
ATOM     27  C   UNL     1       4.989  39.557   2.283  0.00  0.00    +0.000 A 
ATOM     28  C   UNL     1       5.783  40.159   3.272  0.00  0.00    +0.000 A 
ATOM     29  C   UNL     1       6.536  41.289   2.910  0.00  0.00    +0.000 A 
ATOM     30  C   UNL     1       5.841  39.676   4.589  0.00  0.00    +0.000 A 
ATOM     31  N   UNL     1       6.524  41.792   1.665  0.00  0.00    +0.000 NA
ATOM     32  C   UNL     1       7.317  41.892   3.885  0.00  0.00    +0.000 A 
ATOM     33  C   UNL     1       5.756  41.176   0.739  0.00  0.00    +0.000 A 
ATOM     34  C   UNL     1       4.984  40.060   0.987  0.00  0.00    +0.000 A 
ATOM     35  C   UNL     1       7.380  41.414   5.200  0.00  0.00    +0.000 A 
ATOM     36  C   UNL     1       6.632  40.292   5.559  0.00  0.00    +0.000 A 
BRANCH  36  37
ATOM     37  O   UNL     1       6.723  39.868   6.864  0.00  0.00    +0.000 OA
ATOM     38  C   UNL     1       7.817  39.043   7.158  0.00  0.00    +0.000 C 
ENDBRANCH  36  37
BRANCH  35  39
ATOM     39  O   UNL     1       8.146  42.003   6.179  0.00  0.00    +0.000 OA
BRANCH  39  40
ATOM     40  C   UNL     1       7.978  43.317   6.311  0.00  0.00    +0.000 C 
ATOM     41  C   UNL     1       7.790  44.832   6.446  0.00  0.00    +0.000 C 
BRANCH  41  42
ATOM     42  C   UNL     1       7.600  46.347   6.575  0.00  0.00    +0.000 C 
BRANCH  42  43
ATOM     43  N   UNL     1       7.418  47.786   6.699  0.00  0.00    +0.000 N 
ATOM     44  C   UNL     1       7.054  48.054   8.124  0.00  0.00    +0.000 C 
ATOM     45  C   UNL     1       7.898  48.755   9.237  0.00  0.00    +0.000 C 
ATOM     46  O   UNL     1       9.133  49.301   9.290  0.00  0.00    +0.000 OA
ATOM     47  C   UNL     1       9.465  49.055   8.006  0.00  0.00    +0.000 C 
ATOM     48  C   UNL     1       8.783  48.388   6.773  0.00  0.00    +0.000 C 
ENDBRANCH  42  43
ENDBRANCH  41  42
ENDBRANCH  39  40
ENDBRANCH  35  39
ENDBRANCH  26  27
ENDBRANCH   7  26
TORSDOF 11
ENDMDL
MODEL 6
REMARK VINA RESULT:      -6.8     28.984     31.264
REMARK  Name = Foretinib.pdbqt.pdb
REMARK  11 active torsions:
REMARK  status: ('A' for Active; 'I' for Inactive)
REMARK    1  A    between atoms: C_2  and  N_31
REMARK    2  A    between atoms: C_7  and  O_8
REMARK    3  A    between atoms: O_8  and  C_9
REMARK    4  A    between atoms: C_17  and  O_19
REMARK    5  A    between atoms: C_18  and  O_29
REMARK    6  A    between atoms: O_19  and  C_20
REMARK    7  A    between atoms: C_21  and  C_22
REMARK    8  A    between atoms: C_22  and  N_23
REMARK    9  A    between atoms: C_32  and  C_35
REMARK   10  A    between atoms: C_35  and  C_38
REMARK   11  A    between atoms: N_40  and  C_42
REMARK                            x       y       z     vdW  Elec       q    Type
REMARK                         _______ _______ _______ _____ _____    ______ ____
ROOT
ATOM      1  F   UNL     1     -18.092  40.128   3.413  0.00  0.00    +0.000 F 
ATOM      2  C   UNL     1     -16.054  42.958   2.412  0.00  0.00    +0.000 A 
ATOM      3  C   UNL     1     -16.921  41.868   2.341  0.00  0.00    +0.000 A 
ATOM      4  C   UNL     1     -15.554  43.361   3.652  0.00  0.00    +0.000 A 
ATOM      5  C   UNL     1     -17.284  41.195   3.504  0.00  0.00    +0.000 A 
ATOM      6  C   UNL     1     -15.916  42.686   4.816  0.00  0.00    +0.000 A 
ATOM      7  C   UNL     1     -16.804  41.615   4.744  0.00  0.00    +0.000 A 
ENDROOT
BRANCH   2   8
ATOM      8  N   UNL     1     -15.645  43.683   1.277  0.00  0.00    +0.000 N 
ATOM      9  C   UNL     1     -16.382  44.671   0.646  0.00  0.00    +0.000 C 
ATOM     10  O   UNL     1     -17.505  45.047   0.958  0.00  0.00    +0.000 OA
ATOM     11  H   UNL     1     -14.751  43.426   0.869  0.00  0.00    +0.000 HD
BRANCH   9  12
ATOM     12  C   UNL     1     -15.720  45.267  -0.562  0.00  0.00    +0.000 C 
ATOM     13  C   UNL     1     -16.473  46.249  -1.335  0.00  0.00    +0.000 C 
ATOM     14  C   UNL     1     -16.236  44.883  -1.871  0.00  0.00    +0.000 C 
BRANCH  12  15
ATOM     15  C   UNL     1     -14.244  45.491  -0.421  0.00  0.00    +0.000 C 
ATOM     16  O   UNL     1     -13.813  45.942   0.635  0.00  0.00    +0.000 OA
ATOM     17  N   UNL     1     -13.491  45.105  -1.516  0.00  0.00    +0.000 N 
ATOM     18  H   UNL     1     -13.977  44.693  -2.306  0.00  0.00    +0.000 HD
BRANCH  17  19
ATOM     19  C   UNL     1     -12.091  45.201  -1.619  0.00  0.00    +0.000 A 
ATOM     20  C   UNL     1     -11.337  44.070  -1.300  0.00  0.00    +0.000 A 
ATOM     21  C   UNL     1      -9.947  44.103  -1.382  0.00  0.00    +0.000 A 
ATOM     22  C   UNL     1      -9.317  45.274  -1.788  0.00  0.00    +0.000 A 
ATOM     23  F   UNL     1      -7.980  45.307  -1.870  0.00  0.00    +0.000 F 
ATOM     24  C   UNL     1     -10.051  46.409  -2.112  0.00  0.00    +0.000 A 
ATOM     25  C   UNL     1     -11.440  46.368  -2.026  0.00  0.00    +0.000 A 
ENDBRANCH  17  19
ENDBRANCH  12  15
ENDBRANCH   9  12
ENDBRANCH   2   8
BRANCH   7  26
ATOM     26  O   UNL     1     -17.075  40.947   5.913  0.00  0.00    +0.000 OA
BRANCH  26  27
ATOM     27  C   UNL     1     -16.482  39.712   6.087  0.00  0.00    +0.000 A 
ATOM     28  C   UNL     1     -17.296  38.635   6.473  0.00  0.00    +0.000 A 
ATOM     29  C   UNL     1     -16.696  37.370   6.593  0.00  0.00    +0.000 A 
ATOM     30  C   UNL     1     -18.665  38.786   6.745  0.00  0.00    +0.000 A 
ATOM     31  N   UNL     1     -15.394  37.165   6.340  0.00  0.00    +0.000 NA
ATOM     32  C   UNL     1     -17.494  36.304   6.982  0.00  0.00    +0.000 A 
ATOM     33  C   UNL     1     -14.646  38.225   5.958  0.00  0.00    +0.000 A 
ATOM     34  C   UNL     1     -15.135  39.506   5.806  0.00  0.00    +0.000 A 
ATOM     35  C   UNL     1     -18.861  36.447   7.253  0.00  0.00    +0.000 A 
ATOM     36  C   UNL     1     -19.456  37.704   7.135  0.00  0.00    +0.000 A 
BRANCH  36  37
ATOM     37  O   UNL     1     -20.798  37.793   7.419  0.00  0.00    +0.000 OA
ATOM     38  C   UNL     1     -21.650  37.866   6.309  0.00  0.00    +0.000 C 
ENDBRANCH  36  37
BRANCH  35  39
ATOM     39  O   UNL     1     -19.665  35.402   7.644  0.00  0.00    +0.000 OA
BRANCH  39  40
ATOM     40  C   UNL     1     -19.301  34.208   7.182  0.00  0.00    +0.000 C 
ATOM     41  C   UNL     1     -18.887  32.838   6.634  0.00  0.00    +0.000 C 
BRANCH  41  42
ATOM     42  C   UNL     1     -18.470  31.471   6.080  0.00  0.00    +0.000 C 
BRANCH  42  43
ATOM     43  N   UNL     1     -18.074  30.172   5.556  0.00  0.00    +0.000 N 
ATOM     44  C   UNL     1     -16.582  30.180   5.469  0.00  0.00    +0.000 C 
ATOM     45  C   UNL     1     -15.545  29.385   6.328  0.00  0.00    +0.000 C 
ATOM     46  O   UNL     1     -15.633  28.508   7.351  0.00  0.00    +0.000 OA
ATOM     47  C   UNL     1     -16.979  28.504   7.435  0.00  0.00    +0.000 C 
ATOM     48  C   UNL     1     -18.157  29.205   6.692  0.00  0.00    +0.000 C 
ENDBRANCH  42  43
ENDBRANCH  41  42
ENDBRANCH  39  40
ENDBRANCH  35  39
ENDBRANCH  26  27
ENDBRANCH   7  26
TORSDOF 11
ENDMDL
MODEL 7
REMARK VINA RESULT:      -6.8     18.407     21.783
REMARK  Name = Foretinib.pdbqt.pdb
REMARK  11 active torsions:
REMARK  status: ('A' for Active; 'I' for Inactive)
REMARK    1  A    between atoms: C_2  and  N_31
REMARK    2  A    between atoms: C_7  and  O_8
REMARK    3  A    between atoms: O_8  and  C_9
REMARK    4  A    between atoms: C_17  and  O_19
REMARK    5  A    between atoms: C_18  and  O_29
REMARK    6  A    between atoms: O_19  and  C_20
REMARK    7  A    between atoms: C_21  and  C_22
REMARK    8  A    between atoms: C_22  and  N_23
REMARK    9  A    between atoms: C_32  and  C_35
REMARK   10  A    between atoms: C_35  and  C_38
REMARK   11  A    between atoms: N_40  and  C_42
REMARK                            x       y       z     vdW  Elec       q    Type
REMARK                         _______ _______ _______ _____ _____    ______ ____
ROOT
ATOM      1  F   UNL     1      -6.948  27.714  22.356  0.00  0.00    +0.000 F 
ATOM      2  C   UNL     1      -7.940  24.812  24.295  0.00  0.00    +0.000 A 
ATOM      3  C   UNL     1      -7.971  26.074  23.702  0.00  0.00    +0.000 A 
ATOM      4  C   UNL     1      -6.848  23.971  24.071  0.00  0.00    +0.000 A 
ATOM      5  C   UNL     1      -6.917  26.484  22.890  0.00  0.00    +0.000 A 
ATOM      6  C   UNL     1      -5.793  24.383  23.258  0.00  0.00    +0.000 A 
ATOM      7  C   UNL     1      -5.839  25.633  22.647  0.00  0.00    +0.000 A 
ENDROOT
BRANCH   2   8
ATOM      8  N   UNL     1      -8.970  24.335  25.128  0.00  0.00    +0.000 N 
ATOM      9  C   UNL     1      -9.157  24.685  26.455  0.00  0.00    +0.000 C 
ATOM     10  O   UNL     1      -8.448  25.436  27.112  0.00  0.00    +0.000 OA
ATOM     11  H   UNL     1      -9.601  23.647  24.726  0.00  0.00    +0.000 HD
BRANCH   9  12
ATOM     12  C   UNL     1     -10.322  24.011  27.118  0.00  0.00    +0.000 C 
ATOM     13  C   UNL     1     -10.910  22.856  26.448  0.00  0.00    +0.000 C 
ATOM     14  C   UNL     1     -11.630  24.155  26.490  0.00  0.00    +0.000 C 
BRANCH  12  15
ATOM     15  C   UNL     1     -10.256  23.975  28.616  0.00  0.00    +0.000 C 
ATOM     16  O   UNL     1     -10.156  22.889  29.177  0.00  0.00    +0.000 OA
ATOM     17  N   UNL     1     -10.265  25.217  29.228  0.00  0.00    +0.000 N 
ATOM     18  H   UNL     1     -10.295  26.039  28.633  0.00  0.00    +0.000 HD
BRANCH  17  19
ATOM     19  C   UNL     1     -10.198  25.444  30.614  0.00  0.00    +0.000 A 
ATOM     20  C   UNL     1     -11.401  25.620  31.302  0.00  0.00    +0.000 A 
ATOM     21  C   UNL     1     -11.401  25.849  32.676  0.00  0.00    +0.000 A 
ATOM     22  C   UNL     1     -10.189  25.899  33.357  0.00  0.00    +0.000 A 
ATOM     23  F   UNL     1     -10.186  26.117  34.679  0.00  0.00    +0.000 F 
ATOM     24  C   UNL     1      -8.983  25.724  32.689  0.00  0.00    +0.000 A 
ATOM     25  C   UNL     1      -8.992  25.496  31.316  0.00  0.00    +0.000 A 
ENDBRANCH  17  19
ENDBRANCH  12  15
ENDBRANCH   9  12
ENDBRANCH   2   8
BRANCH   7  26
ATOM     26  O   UNL     1      -4.743  26.011  21.910  0.00  0.00    +0.000 OA
BRANCH  26  27
ATOM     27  C   UNL     1      -4.922  26.171  20.550  0.00  0.00    +0.000 A 
ATOM     28  C   UNL     1      -3.950  26.889  19.836  0.00  0.00    +0.000 A 
ATOM     29  C   UNL     1      -4.109  27.000  18.443  0.00  0.00    +0.000 A 
ATOM     30  C   UNL     1      -2.849  27.495  20.461  0.00  0.00    +0.000 A 
ATOM     31  N   UNL     1      -5.138  26.438  17.791  0.00  0.00    +0.000 NA
ATOM     32  C   UNL     1      -3.156  27.715  17.733  0.00  0.00    +0.000 A 
ATOM     33  C   UNL     1      -6.045  25.743  18.513  0.00  0.00    +0.000 A 
ATOM     34  C   UNL     1      -5.982  25.570  19.881  0.00  0.00    +0.000 A 
ATOM     35  C   UNL     1      -2.054  28.320  18.351  0.00  0.00    +0.000 A 
ATOM     36  C   UNL     1      -1.897  28.211  19.734  0.00  0.00    +0.000 A 
BRANCH  36  37
ATOM     37  O   UNL     1      -0.804  28.829  20.293  0.00  0.00    +0.000 OA
ATOM     38  C   UNL     1      -0.256  28.193  21.416  0.00  0.00    +0.000 C 
ENDBRANCH  36  37
BRANCH  35  39
ATOM     39  O   UNL     1      -1.103  29.036  17.663  0.00  0.00    +0.000 OA
BRANCH  39  40
ATOM     40  C   UNL     1      -0.771  28.535  16.475  0.00  0.00    +0.000 C 
ATOM     41  C   UNL     1      -0.374  27.966  15.108  0.00  0.00    +0.000 C 
BRANCH  41  42
ATOM     42  C   UNL     1       0.029  27.397  13.744  0.00  0.00    +0.000 C 
BRANCH  42  43
ATOM     43  N   UNL     1       0.413  26.856  12.447  0.00  0.00    +0.000 N 
ATOM     44  C   UNL     1      -0.846  26.703  11.655  0.00  0.00    +0.000 C 
ATOM     45  C   UNL     1      -1.326  27.515  10.409  0.00  0.00    +0.000 C 
ATOM     46  O   UNL     1      -0.820  28.543   9.693  0.00  0.00    +0.000 OA
ATOM     47  C   UNL     1       0.313  28.687  10.410  0.00  0.00    +0.000 C 
ATOM     48  C   UNL     1       0.958  27.996  11.650  0.00  0.00    +0.000 C 
ENDBRANCH  42  43
ENDBRANCH  41  42
ENDBRANCH  39  40
ENDBRANCH  35  39
ENDBRANCH  26  27
ENDBRANCH   7  26
TORSDOF 11
ENDMDL
MODEL 8
REMARK VINA RESULT:      -6.7     27.117     32.188
REMARK  Name = Foretinib.pdbqt.pdb
REMARK  11 active torsions:
REMARK  status: ('A' for Active; 'I' for Inactive)
REMARK    1  A    between atoms: C_2  and  N_31
REMARK    2  A    between atoms: C_7  and  O_8
REMARK    3  A    between atoms: O_8  and  C_9
REMARK    4  A    between atoms: C_17  and  O_19
REMARK    5  A    between atoms: C_18  and  O_29
REMARK    6  A    between atoms: O_19  and  C_20
REMARK    7  A    between atoms: C_21  and  C_22
REMARK    8  A    between atoms: C_22  and  N_23
REMARK    9  A    between atoms: C_32  and  C_35
REMARK   10  A    between atoms: C_35  and  C_38
REMARK   11  A    between atoms: N_40  and  C_42
REMARK                            x       y       z     vdW  Elec       q    Type
REMARK                         _______ _______ _______ _____ _____    ______ ____
ROOT
ATOM      1  F   UNL     1     -23.333  33.665   8.226  0.00  0.00    +0.000 F 
ATOM      2  C   UNL     1     -22.122  30.786  10.072  0.00  0.00    +0.000 A 
ATOM      3  C   UNL     1     -22.914  31.868   9.690  0.00  0.00    +0.000 A 
ATOM      4  C   UNL     1     -20.994  30.457   9.317  0.00  0.00    +0.000 A 
ATOM      5  C   UNL     1     -22.579  32.607   8.559  0.00  0.00    +0.000 A 
ATOM      6  C   UNL     1     -20.658  31.198   8.185  0.00  0.00    +0.000 A 
ATOM      7  C   UNL     1     -21.467  32.261   7.791  0.00  0.00    +0.000 A 
ENDROOT
BRANCH   2   8
ATOM      8  N   UNL     1     -22.401  29.997  11.204  0.00  0.00    +0.000 N 
ATOM      9  C   UNL     1     -23.028  28.762  11.188  0.00  0.00    +0.000 C 
ATOM     10  O   UNL     1     -23.455  28.180  10.199  0.00  0.00    +0.000 OA
ATOM     11  H   UNL     1     -22.157  30.393  12.107  0.00  0.00    +0.000 HD
BRANCH   9  12
ATOM     12  C   UNL     1     -23.225  28.146  12.542  0.00  0.00    +0.000 C 
ATOM     13  C   UNL     1     -24.126  27.004  12.644  0.00  0.00    +0.000 C 
ATOM     14  C   UNL     1     -24.523  28.331  13.182  0.00  0.00    +0.000 C 
BRANCH  12  15
ATOM     15  C   UNL     1     -22.003  28.136  13.411  0.00  0.00    +0.000 C 
ATOM     16  O   UNL     1     -20.929  27.811  12.916  0.00  0.00    +0.000 OA
ATOM     17  N   UNL     1     -22.212  28.556  14.713  0.00  0.00    +0.000 N 
ATOM     18  H   UNL     1     -23.148  28.851  14.973  0.00  0.00    +0.000 HD
BRANCH  17  19
ATOM     19  C   UNL     1     -21.224  28.646  15.710  0.00  0.00    +0.000 A 
ATOM     20  C   UNL     1     -20.359  29.743  15.671  0.00  0.00    +0.000 A 
ATOM     21  C   UNL     1     -19.360  29.889  16.630  0.00  0.00    +0.000 A 
ATOM     22  C   UNL     1     -19.233  28.931  17.630  0.00  0.00    +0.000 A 
ATOM     23  F   UNL     1     -18.274  29.070  18.555  0.00  0.00    +0.000 F 
ATOM     24  C   UNL     1     -20.085  27.834  17.687  0.00  0.00    +0.000 A 
ATOM     25  C   UNL     1     -21.080  27.696  16.723  0.00  0.00    +0.000 A 
ENDBRANCH  17  19
ENDBRANCH  12  15
ENDBRANCH   9  12
ENDBRANCH   2   8
BRANCH   7  26
ATOM     26  O   UNL     1     -21.052  32.995   6.707  0.00  0.00    +0.000 OA
BRANCH  26  27
ATOM     27  C   UNL     1     -20.137  34.003   6.940  0.00  0.00    +0.000 A 
ATOM     28  C   UNL     1     -20.533  35.326   6.686  0.00  0.00    +0.000 A 
ATOM     29  C   UNL     1     -19.617  36.351   6.979  0.00  0.00    +0.000 A 
ATOM     30  C   UNL     1     -21.790  35.648   6.151  0.00  0.00    +0.000 A 
ATOM     31  N   UNL     1     -18.403  36.104   7.496  0.00  0.00    +0.000 NA
ATOM     32  C   UNL     1     -19.999  37.660   6.723  0.00  0.00    +0.000 A 
ATOM     33  C   UNL     1     -18.065  34.817   7.738  0.00  0.00    +0.000 A 
ATOM     34  C   UNL     1     -18.889  33.738   7.492  0.00  0.00    +0.000 A 
ATOM     35  C   UNL     1     -21.252  37.988   6.191  0.00  0.00    +0.000 A 
ATOM     36  C   UNL     1     -22.161  36.969   5.900  0.00  0.00    +0.000 A 
BRANCH  36  37
ATOM     37  O   UNL     1     -23.375  37.342   5.372  0.00  0.00    +0.000 OA
ATOM     38  C   UNL     1     -24.470  37.245   6.242  0.00  0.00    +0.000 C 
ENDBRANCH  36  37
BRANCH  35  39
ATOM     39  O   UNL     1     -21.645  39.279   5.927  0.00  0.00    +0.000 OA
BRANCH  39  40
ATOM     40  C   UNL     1     -20.654  40.164   5.849  0.00  0.00    +0.000 C 
ATOM     41  C   UNL     1     -19.513  41.185   5.777  0.00  0.00    +0.000 C 
BRANCH  41  42
ATOM     42  C   UNL     1     -18.369  42.203   5.711  0.00  0.00    +0.000 C 
BRANCH  42  43
ATOM     43  N   UNL     1     -17.283  43.170   5.649  0.00  0.00    +0.000 N 
ATOM     44  C   UNL     1     -16.026  42.428   5.974  0.00  0.00    +0.000 C 
ATOM     45  C   UNL     1     -14.836  42.056   5.031  0.00  0.00    +0.000 C 
ATOM     46  O   UNL     1     -14.563  42.253   3.723  0.00  0.00    +0.000 OA
ATOM     47  C   UNL     1     -15.698  42.917   3.427  0.00  0.00    +0.000 C 
ATOM     48  C   UNL     1     -16.971  43.376   4.203  0.00  0.00    +0.000 C 
ENDBRANCH  42  43
ENDBRANCH  41  42
ENDBRANCH  39  40
ENDBRANCH  35  39
ENDBRANCH  26  27
ENDBRANCH   7  26
TORSDOF 11
ENDMDL
MODEL 9
REMARK VINA RESULT:      -6.6     27.123     30.511
REMARK  Name = Foretinib.pdbqt.pdb
REMARK  11 active torsions:
REMARK  status: ('A' for Active; 'I' for Inactive)
REMARK    1  A    between atoms: C_2  and  N_31
REMARK    2  A    between atoms: C_7  and  O_8
REMARK    3  A    between atoms: O_8  and  C_9
REMARK    4  A    between atoms: C_17  and  O_19
REMARK    5  A    between atoms: C_18  and  O_29
REMARK    6  A    between atoms: O_19  and  C_20
REMARK    7  A    between atoms: C_21  and  C_22
REMARK    8  A    between atoms: C_22  and  N_23
REMARK    9  A    between atoms: C_32  and  C_35
REMARK   10  A    between atoms: C_35  and  C_38
REMARK   11  A    between atoms: N_40  and  C_42
REMARK                            x       y       z     vdW  Elec       q    Type
REMARK                         _______ _______ _______ _____ _____    ______ ____
ROOT
ATOM      1  F   UNL     1     -20.009  35.257   4.347  0.00  0.00    +0.000 F 
ATOM      2  C   UNL     1     -17.958  37.751   6.002  0.00  0.00    +0.000 A 
ATOM      3  C   UNL     1     -18.571  37.006   4.994  0.00  0.00    +0.000 A 
ATOM      4  C   UNL     1     -18.236  37.461   7.340  0.00  0.00    +0.000 A 
ATOM      5  C   UNL     1     -19.455  35.985   5.328  0.00  0.00    +0.000 A 
ATOM      6  C   UNL     1     -19.121  36.437   7.673  0.00  0.00    +0.000 A 
ATOM      7  C   UNL     1     -19.751  35.713   6.664  0.00  0.00    +0.000 A 
ENDROOT
BRANCH   2   8
ATOM      8  N   UNL     1     -17.053  38.796   5.735  0.00  0.00    +0.000 N 
ATOM      9  C   UNL     1     -17.401  40.094   5.398  0.00  0.00    +0.000 C 
ATOM     10  O   UNL     1     -18.538  40.524   5.255  0.00  0.00    +0.000 OA
ATOM     11  H   UNL     1     -16.065  38.560   5.755  0.00  0.00    +0.000 HD
BRANCH   9  12
ATOM     12  C   UNL     1     -16.236  41.004   5.142  0.00  0.00    +0.000 C 
ATOM     13  C   UNL     1     -14.967  40.681   5.786  0.00  0.00    +0.000 C 
ATOM     14  C   UNL     1     -15.778  41.838   6.247  0.00  0.00    +0.000 C 
BRANCH  12  15
ATOM     15  C   UNL     1     -16.176  41.571   3.755  0.00  0.00    +0.000 C 
ATOM     16  O   UNL     1     -15.857  40.835   2.828  0.00  0.00    +0.000 OA
ATOM     17  N   UNL     1     -16.550  42.900   3.655  0.00  0.00    +0.000 N 
ATOM     18  H   UNL     1     -16.847  43.376   4.501  0.00  0.00    +0.000 HD
BRANCH  17  19
ATOM     19  C   UNL     1     -16.589  43.650   2.465  0.00  0.00    +0.000 A 
ATOM     20  C   UNL     1     -15.392  44.203   2.005  0.00  0.00    +0.000 A 
ATOM     21  C   UNL     1     -15.366  44.956   0.833  0.00  0.00    +0.000 A 
ATOM     22  C   UNL     1     -16.546  45.149   0.124  0.00  0.00    +0.000 A 
ATOM     23  F   UNL     1     -16.524  45.870  -1.005  0.00  0.00    +0.000 F 
ATOM     24  C   UNL     1     -17.747  44.604   0.564  0.00  0.00    +0.000 A 
ATOM     25  C   UNL     1     -17.764  43.854   1.737  0.00  0.00    +0.000 A 
ENDBRANCH  17  19
ENDBRANCH  12  15
ENDBRANCH   9  12
ENDBRANCH   2   8
BRANCH   7  26
ATOM     26  O   UNL     1     -20.563  34.675   7.051  0.00  0.00    +0.000 OA
BRANCH  26  27
ATOM     27  C   UNL     1     -19.955  33.463   7.315  0.00  0.00    +0.000 A 
ATOM     28  C   UNL     1     -20.651  32.532   8.102  0.00  0.00    +0.000 A 
ATOM     29  C   UNL     1     -20.051  31.279   8.319  0.00  0.00    +0.000 A 
ATOM     30  C   UNL     1     -21.902  32.813   8.672  0.00  0.00    +0.000 A 
ATOM     31  N   UNL     1     -18.859  30.953   7.795  0.00  0.00    +0.000 NA
ATOM     32  C   UNL     1     -20.730  30.358   9.102  0.00  0.00    +0.000 A 
ATOM     33  C   UNL     1     -18.226  31.873   7.032  0.00  0.00    +0.000 A 
ATOM     34  C   UNL     1     -18.728  33.128   6.754  0.00  0.00    +0.000 A 
ATOM     35  C   UNL     1     -21.980  30.631   9.672  0.00  0.00    +0.000 A 
ATOM     36  C   UNL     1     -22.575  31.875   9.457  0.00  0.00    +0.000 A 
BRANCH  36  37
ATOM     37  O   UNL     1     -23.798  32.097  10.044  0.00  0.00    +0.000 OA
ATOM     38  C   UNL     1     -24.900  32.076   9.179  0.00  0.00    +0.000 C 
ENDBRANCH  36  37
BRANCH  35  39
ATOM     39  O   UNL     1     -22.665  29.731  10.454  0.00  0.00    +0.000 OA
BRANCH  39  40
ATOM     40  C   UNL     1     -22.034  29.355  11.564  0.00  0.00    +0.000 C 
ATOM     41  C   UNL     1     -21.303  28.907  12.835  0.00  0.00    +0.000 C 
BRANCH  41  42
ATOM     42  C   UNL     1     -20.568  28.456  14.101  0.00  0.00    +0.000 C 
BRANCH  42  43
ATOM     43  N   UNL     1     -19.869  28.027  15.304  0.00  0.00    +0.000 N 
ATOM     44  C   UNL     1     -19.478  29.268  16.041  0.00  0.00    +0.000 C 
ATOM     45  C   UNL     1     -20.038  29.825  17.390  0.00  0.00    +0.000 C 
ATOM     46  O   UNL     1     -20.982  29.418  18.267  0.00  0.00    +0.000 OA
ATOM     47  C   UNL     1     -21.340  28.302  17.600  0.00  0.00    +0.000 C 
ATOM     48  C   UNL     1     -20.915  27.592  16.279  0.00  0.00    +0.000 C 
ENDBRANCH  42  43
ENDBRANCH  41  42
ENDBRANCH  39  40
ENDBRANCH  35  39
ENDBRANCH  26  27
ENDBRANCH   7  26
TORSDOF 11
ENDMDL
