MODEL 1
REMARK VINA RESULT:      -6.7      0.000      0.000
REMARK  Name = Fulvestrant.pdbqt.pdb
REMARK  12 active torsions:
REMARK  status: ('A' for Active; 'I' for Inactive)
REMARK    1  A    between atoms: C_6  and  O_40
REMARK    2  A    between atoms: C_8  and  C_19
REMARK    3  A    between atoms: C_18  and  O_42
REMARK    4  A    between atoms: C_20  and  C_21
REMARK    5  A    between atoms: C_22  and  C_23
REMARK    6  A    between atoms: C_23  and  C_24
REMARK    7  A    between atoms: C_25  and  C_26
REMARK    8  A    between atoms: C_27  and  S_28
REMARK    9  A    between atoms: S_28  and  C_30
REMARK   10  A    between atoms: C_30  and  C_31
REMARK   11  A    between atoms: C_32  and  C_33
REMARK   12  A    between atoms: C_33  and  C_36
REMARK                            x       y       z     vdW  Elec       q    Type
REMARK                         _______ _______ _______ _____ _____    ______ ____
ROOT
ATOM      1  C   UNL     1      -4.486  47.707  27.340  0.00  0.00    +0.000 C 
ATOM      2  C   UNL     1      -5.370  46.776  26.378  0.00  0.00    +0.000 C 
ATOM      3  C   UNL     1      -4.945  48.190  28.682  0.00  0.00    +0.000 A 
ATOM      4  C   UNL     1      -6.116  47.513  29.423  0.00  0.00    +0.000 A 
ATOM      5  C   UNL     1      -6.365  46.147  27.239  0.00  0.00    +0.000 C 
ATOM      6  C   UNL     1      -4.333  45.783  25.810  0.00  0.00    +0.000 C 
ATOM      7  C   UNL     1      -3.123  47.302  27.162  0.00  0.00    +0.000 C 
ATOM      8  C   UNL     1      -4.287  49.330  29.375  0.00  0.00    +0.000 A 
ATOM      9  C   UNL     1      -6.727  46.492  28.657  0.00  0.00    +0.000 C 
ATOM     10  C   UNL     1      -3.021  46.110  26.246  0.00  0.00    +0.000 C 
ATOM     11  C   UNL     1      -5.965  47.654  25.247  0.00  0.00    +0.000 C 
ATOM     12  C   UNL     1      -6.585  47.928  30.775  0.00  0.00    +0.000 A 
ATOM     13  C   UNL     1      -4.870  49.559  30.645  0.00  0.00    +0.000 A 
ATOM     14  C   UNL     1      -5.924  49.003  31.414  0.00  0.00    +0.000 A 
ATOM     15  C   UNL     1      -7.643  47.306  31.434  0.00  0.00    +0.000 A 
ATOM     16  C   UNL     1      -6.294  49.457  32.670  0.00  0.00    +0.000 A 
ATOM     17  C   UNL     1      -8.027  47.751  32.700  0.00  0.00    +0.000 A 
ATOM     18  C   UNL     1      -7.355  48.816  33.303  0.00  0.00    +0.000 A 
ENDROOT
BRANCH   8  19
ATOM     19  C   UNL     1      -3.338  50.181  28.759  0.00  0.00    +0.000 C 
ATOM     20  C   UNL     1      -2.299  51.084  28.087  0.00  0.00    +0.000 C 
BRANCH  20  21
ATOM     21  C   UNL     1      -1.245  51.963  27.410  0.00  0.00    +0.000 C 
ATOM     22  C   UNL     1      -0.212  52.853  26.710  0.00  0.00    +0.000 C 
BRANCH  22  23
ATOM     23  C   UNL     1       0.797  53.749  25.987  0.00  0.00    +0.000 C 
BRANCH  23  24
ATOM     24  C   UNL     1       1.780  54.663  25.247  0.00  0.00    +0.000 C 
ATOM     25  C   UNL     1       2.762  55.553  24.479  0.00  0.00    +0.000 C 
BRANCH  25  26
ATOM     26  C   UNL     1       3.745  56.419  23.686  0.00  0.00    +0.000 C 
ATOM     27  C   UNL     1       4.721  57.265  22.862  0.00  0.00    +0.000 C 
BRANCH  27  28
ATOM     28  S   UNL     1       5.838  58.216  21.888  0.00  0.00    +0.000 S 
ATOM     29  O   UNL     1       7.032  57.542  22.497  0.00  0.00    +0.000 OA
BRANCH  28  30
ATOM     30  C   UNL     1       5.807  57.082  20.541  0.00  0.00    +0.000 C 
BRANCH  30  31
ATOM     31  C   UNL     1       5.800  56.107  19.359  0.00  0.00    +0.000 C 
ATOM     32  C   UNL     1       5.788  55.145  18.165  0.00  0.00    +0.000 C 
BRANCH  32  33
ATOM     33  C   UNL     1       5.773  54.233  17.018  0.00  0.00    +0.000 C 
ATOM     34  F   UNL     1       6.858  53.414  17.119  0.00  0.00    +0.000 F 
ATOM     35  F   UNL     1       5.969  54.976  15.893  0.00  0.00    +0.000 F 
BRANCH  33  36
ATOM     36  C   UNL     1       4.482  53.415  16.912  0.00  0.00    +0.000 C 
ATOM     37  F   UNL     1       4.695  52.095  17.147  0.00  0.00    +0.000 F 
ATOM     38  F   UNL     1       3.916  53.510  15.683  0.00  0.00    +0.000 F 
ATOM     39  F   UNL     1       3.549  53.827  17.807  0.00  0.00    +0.000 F 
ENDBRANCH  33  36
ENDBRANCH  32  33
ENDBRANCH  30  31
ENDBRANCH  28  30
ENDBRANCH  27  28
ENDBRANCH  25  26
ENDBRANCH  23  24
ENDBRANCH  22  23
ENDBRANCH  20  21
ENDBRANCH   8  19
BRANCH   6  40
ATOM     40  O   UNL     1      -4.670  44.517  25.378  0.00  0.00    +0.000 OA
ATOM     41  H   UNL     1      -5.489  44.521  24.852  0.00  0.00    +0.000 HD
ENDBRANCH   6  40
BRANCH  18  42
ATOM     42  O   UNL     1      -7.767  49.217  34.542  0.00  0.00    +0.000 OA
ATOM     43  H   UNL     1      -7.072  48.991  35.185  0.00  0.00    +0.000 HD
ENDBRANCH  18  42
TORSDOF 12
ENDMDL
MODEL 2
REMARK VINA RESULT:      -6.6     25.282     28.109
REMARK  Name = Fulvestrant.pdbqt.pdb
REMARK  12 active torsions:
REMARK  status: ('A' for Active; 'I' for Inactive)
REMARK    1  A    between atoms: C_6  and  O_40
REMARK    2  A    between atoms: C_8  and  C_19
REMARK    3  A    between atoms: C_18  and  O_42
REMARK    4  A    between atoms: C_20  and  C_21
REMARK    5  A    between atoms: C_22  and  C_23
REMARK    6  A    between atoms: C_23  and  C_24
REMARK    7  A    between atoms: C_25  and  C_26
REMARK    8  A    between atoms: C_27  and  S_28
REMARK    9  A    between atoms: S_28  and  C_30
REMARK   10  A    between atoms: C_30  and  C_31
REMARK   11  A    between atoms: C_32  and  C_33
REMARK   12  A    between atoms: C_33  and  C_36
REMARK                            x       y       z     vdW  Elec       q    Type
REMARK                         _______ _______ _______ _____ _____    ______ ____
ROOT
ATOM      1  C   UNL     1     -19.073  28.304  18.202  0.00  0.00    +0.000 C 
ATOM      2  C   UNL     1     -19.985  29.216  17.248  0.00  0.00    +0.000 C 
ATOM      3  C   UNL     1     -19.149  28.331  19.698  0.00  0.00    +0.000 A 
ATOM      4  C   UNL     1     -20.372  28.921  20.431  0.00  0.00    +0.000 A 
ATOM      5  C   UNL     1     -21.131  29.617  18.057  0.00  0.00    +0.000 C 
ATOM      6  C   UNL     1     -20.352  28.253  16.097  0.00  0.00    +0.000 C 
ATOM      7  C   UNL     1     -18.893  27.055  17.525  0.00  0.00    +0.000 C 
ATOM      8  C   UNL     1     -18.064  27.776  20.551  0.00  0.00    +0.000 A 
ATOM      9  C   UNL     1     -21.315  29.492  19.544  0.00  0.00    +0.000 C 
ATOM     10  C   UNL     1     -19.690  27.004  16.248  0.00  0.00    +0.000 C 
ATOM     11  C   UNL     1     -19.129  30.397  16.722  0.00  0.00    +0.000 C 
ATOM     12  C   UNL     1     -20.515  28.935  21.914  0.00  0.00    +0.000 A 
ATOM     13  C   UNL     1     -18.395  27.874  21.924  0.00  0.00    +0.000 A 
ATOM     14  C   UNL     1     -19.472  28.381  22.695  0.00  0.00    +0.000 A 
ATOM     15  C   UNL     1     -21.626  29.469  22.564  0.00  0.00    +0.000 A 
ATOM     16  C   UNL     1     -19.521  28.353  24.079  0.00  0.00    +0.000 A 
ATOM     17  C   UNL     1     -21.689  29.447  23.958  0.00  0.00    +0.000 A 
ATOM     18  C   UNL     1     -20.643  28.894  24.698  0.00  0.00    +0.000 A 
ENDROOT
BRANCH   8  19
ATOM     19  C   UNL     1     -16.800  27.381  20.054  0.00  0.00    +0.000 C 
ATOM     20  C   UNL     1     -15.427  26.973  19.509  0.00  0.00    +0.000 C 
BRANCH  20  21
ATOM     21  C   UNL     1     -14.051  26.594  18.955  0.00  0.00    +0.000 C 
ATOM     22  C   UNL     1     -12.688  26.191  18.382  0.00  0.00    +0.000 C 
BRANCH  22  23
ATOM     23  C   UNL     1     -11.341  25.762  17.793  0.00  0.00    +0.000 C 
BRANCH  23  24
ATOM     24  C   UNL     1      -9.980  25.329  17.238  0.00  0.00    +0.000 C 
ATOM     25  C   UNL     1      -8.623  24.921  16.657  0.00  0.00    +0.000 C 
BRANCH  25  26
ATOM     26  C   UNL     1      -7.270  24.536  16.050  0.00  0.00    +0.000 C 
ATOM     27  C   UNL     1      -5.923  24.116  15.453  0.00  0.00    +0.000 C 
BRANCH  27  28
ATOM     28  S   UNL     1      -4.380  23.602  14.781  0.00  0.00    +0.000 S 
ATOM     29  O   UNL     1      -4.539  24.492  13.584  0.00  0.00    +0.000 OA
BRANCH  28  30
ATOM     30  C   UNL     1      -3.463  24.828  15.650  0.00  0.00    +0.000 C 
BRANCH  30  31
ATOM     31  C   UNL     1      -2.646  25.881  16.407  0.00  0.00    +0.000 C 
ATOM     32  C   UNL     1      -1.825  26.943  17.148  0.00  0.00    +0.000 C 
BRANCH  32  33
ATOM     33  C   UNL     1      -1.038  27.961  17.848  0.00  0.00    +0.000 C 
ATOM     34  F   UNL     1      -0.057  27.325  18.550  0.00  0.00    +0.000 F 
ATOM     35  F   UNL     1      -1.844  28.544  18.779  0.00  0.00    +0.000 F 
BRANCH  33  36
ATOM     36  C   UNL     1      -0.440  29.015  16.911  0.00  0.00    +0.000 C 
ATOM     37  F   UNL     1       0.391  28.464  15.989  0.00  0.00    +0.000 F 
ATOM     38  F   UNL     1       0.280  29.948  17.582  0.00  0.00    +0.000 F 
ATOM     39  F   UNL     1      -1.402  29.681  16.222  0.00  0.00    +0.000 F 
ENDBRANCH  33  36
ENDBRANCH  32  33
ENDBRANCH  30  31
ENDBRANCH  28  30
ENDBRANCH  27  28
ENDBRANCH  25  26
ENDBRANCH  23  24
ENDBRANCH  22  23
ENDBRANCH  20  21
ENDBRANCH   8  19
BRANCH   6  40
ATOM     40  O   UNL     1     -21.499  28.391  15.344  0.00  0.00    +0.000 OA
ATOM     41  H   UNL     1     -21.297  28.539  14.403  0.00  0.00    +0.000 HD
ENDBRANCH   6  40
BRANCH  18  42
ATOM     42  O   UNL     1     -20.749  28.897  26.061  0.00  0.00    +0.000 OA
ATOM     43  H   UNL     1     -20.701  29.818  26.371  0.00  0.00    +0.000 HD
ENDBRANCH  18  42
TORSDOF 12
ENDMDL
MODEL 3
REMARK VINA RESULT:      -6.5     12.493     18.555
REMARK  Name = Fulvestrant.pdbqt.pdb
REMARK  12 active torsions:
REMARK  status: ('A' for Active; 'I' for Inactive)
REMARK    1  A    between atoms: C_6  and  O_40
REMARK    2  A    between atoms: C_8  and  C_19
REMARK    3  A    between atoms: C_18  and  O_42
REMARK    4  A    between atoms: C_20  and  C_21
REMARK    5  A    between atoms: C_22  and  C_23
REMARK    6  A    between atoms: C_23  and  C_24
REMARK    7  A    between atoms: C_25  and  C_26
REMARK    8  A    between atoms: C_27  and  S_28
REMARK    9  A    between atoms: S_28  and  C_30
REMARK   10  A    between atoms: C_30  and  C_31
REMARK   11  A    between atoms: C_32  and  C_33
REMARK   12  A    between atoms: C_33  and  C_36
REMARK                            x       y       z     vdW  Elec       q    Type
REMARK                         _______ _______ _______ _____ _____    ______ ____
ROOT
ATOM      1  C   UNL     1      -4.606  47.372  27.249  0.00  0.00    +0.000 C 
ATOM      2  C   UNL     1      -3.731  46.093  26.832  0.00  0.00    +0.000 C 
ATOM      3  C   UNL     1      -4.021  48.719  27.550  0.00  0.00    +0.000 A 
ATOM      4  C   UNL     1      -2.596  49.096  27.094  0.00  0.00    +0.000 A 
ATOM      5  C   UNL     1      -2.462  46.623  26.346  0.00  0.00    +0.000 C 
ATOM      6  C   UNL     1      -4.587  45.436  25.727  0.00  0.00    +0.000 C 
ATOM      7  C   UNL     1      -5.837  47.283  26.520  0.00  0.00    +0.000 C 
ATOM      8  C   UNL     1      -4.785  49.763  28.283  0.00  0.00    +0.000 A 
ATOM      9  C   UNL     1      -1.920  48.019  26.473  0.00  0.00    +0.000 C 
ATOM     10  C   UNL     1      -5.825  46.115  25.568  0.00  0.00    +0.000 C 
ATOM     11  C   UNL     1      -3.606  45.155  28.060  0.00  0.00    +0.000 C 
ATOM     12  C   UNL     1      -1.983  50.433  27.331  0.00  0.00    +0.000 A 
ATOM     13  C   UNL     1      -4.035  50.958  28.397  0.00  0.00    +0.000 A 
ATOM     14  C   UNL     1      -2.746  51.409  28.016  0.00  0.00    +0.000 A 
ATOM     15  C   UNL     1      -0.696  50.762  26.912  0.00  0.00    +0.000 A 
ATOM     16  C   UNL     1      -2.255  52.678  28.281  0.00  0.00    +0.000 A 
ATOM     17  C   UNL     1      -0.188  52.036  27.172  0.00  0.00    +0.000 A 
ATOM     18  C   UNL     1      -0.966  52.976  27.851  0.00  0.00    +0.000 A 
ENDROOT
BRANCH   8  19
ATOM     19  C   UNL     1      -6.016  49.519  28.938  0.00  0.00    +0.000 C 
ATOM     20  C   UNL     1      -7.359  49.258  29.628  0.00  0.00    +0.000 C 
BRANCH  20  21
ATOM     21  C   UNL     1      -8.714  49.001  30.292  0.00  0.00    +0.000 C 
ATOM     22  C   UNL     1     -10.077  48.723  30.933  0.00  0.00    +0.000 C 
BRANCH  22  23
ATOM     23  C   UNL     1     -11.448  48.424  31.548  0.00  0.00    +0.000 C 
BRANCH  23  24
ATOM     24  C   UNL     1     -12.803  48.107  32.188  0.00  0.00    +0.000 C 
ATOM     25  C   UNL     1     -14.174  47.804  32.801  0.00  0.00    +0.000 C 
BRANCH  25  26
ATOM     26  C   UNL     1     -15.561  47.517  33.386  0.00  0.00    +0.000 C 
ATOM     27  C   UNL     1     -16.931  47.219  34.002  0.00  0.00    +0.000 C 
BRANCH  27  28
ATOM     28  S   UNL     1     -18.490  46.860  34.737  0.00  0.00    +0.000 S 
ATOM     29  O   UNL     1     -18.919  48.296  34.664  0.00  0.00    +0.000 OA
BRANCH  28  30
ATOM     30  C   UNL     1     -19.259  46.487  33.198  0.00  0.00    +0.000 C 
BRANCH  30  31
ATOM     31  C   UNL     1     -19.907  46.166  31.846  0.00  0.00    +0.000 C 
ATOM     32  C   UNL     1     -20.556  45.864  30.491  0.00  0.00    +0.000 C 
BRANCH  32  33
ATOM     33  C   UNL     1     -21.179  45.585  29.194  0.00  0.00    +0.000 C 
ATOM     34  F   UNL     1     -20.307  45.968  28.219  0.00  0.00    +0.000 F 
ATOM     35  F   UNL     1     -22.262  46.401  29.068  0.00  0.00    +0.000 F 
BRANCH  33  36
ATOM     36  C   UNL     1     -21.581  44.117  29.019  0.00  0.00    +0.000 C 
ATOM     37  F   UNL     1     -20.965  43.544  27.953  0.00  0.00    +0.000 F 
ATOM     38  F   UNL     1     -22.916  43.971  28.827  0.00  0.00    +0.000 F 
ATOM     39  F   UNL     1     -21.257  43.372  30.106  0.00  0.00    +0.000 F 
ENDBRANCH  33  36
ENDBRANCH  32  33
ENDBRANCH  30  31
ENDBRANCH  28  30
ENDBRANCH  27  28
ENDBRANCH  25  26
ENDBRANCH  23  24
ENDBRANCH  22  23
ENDBRANCH  20  21
ENDBRANCH   8  19
BRANCH   6  40
ATOM     40  O   UNL     1      -4.044  44.653  24.729  0.00  0.00    +0.000 OA
ATOM     41  H   UNL     1      -3.371  45.136  24.217  0.00  0.00    +0.000 HD
ENDBRANCH   6  40
BRANCH  18  42
ATOM     42  O   UNL     1      -0.425  54.209  28.083  0.00  0.00    +0.000 OA
ATOM     43  H   UNL     1      -0.546  54.753  27.285  0.00  0.00    +0.000 HD
ENDBRANCH  18  42
TORSDOF 12
ENDMDL
MODEL 4
REMARK VINA RESULT:      -6.5     11.892     16.372
REMARK  Name = Fulvestrant.pdbqt.pdb
REMARK  12 active torsions:
REMARK  status: ('A' for Active; 'I' for Inactive)
REMARK    1  A    between atoms: C_6  and  O_40
REMARK    2  A    between atoms: C_8  and  C_19
REMARK    3  A    between atoms: C_18  and  O_42
REMARK    4  A    between atoms: C_20  and  C_21
REMARK    5  A    between atoms: C_22  and  C_23
REMARK    6  A    between atoms: C_23  and  C_24
REMARK    7  A    between atoms: C_25  and  C_26
REMARK    8  A    between atoms: C_27  and  S_28
REMARK    9  A    between atoms: S_28  and  C_30
REMARK   10  A    between atoms: C_30  and  C_31
REMARK   11  A    between atoms: C_32  and  C_33
REMARK   12  A    between atoms: C_33  and  C_36
REMARK                            x       y       z     vdW  Elec       q    Type
REMARK                         _______ _______ _______ _____ _____    ______ ____
ROOT
ATOM      1  C   UNL     1       3.936  54.888  17.075  0.00  0.00    +0.000 C 
ATOM      2  C   UNL     1       4.040  53.664  16.043  0.00  0.00    +0.000 C 
ATOM      3  C   UNL     1       5.016  55.248  18.050  0.00  0.00    +0.000 A 
ATOM      4  C   UNL     1       6.462  54.743  17.870  0.00  0.00    +0.000 A 
ATOM      5  C   UNL     1       5.463  53.370  15.918  0.00  0.00    +0.000 C 
ATOM      6  C   UNL     1       3.417  54.246  14.754  0.00  0.00    +0.000 C 
ATOM      7  C   UNL     1       3.211  55.927  16.407  0.00  0.00    +0.000 C 
ATOM      8  C   UNL     1       4.755  56.121  19.225  0.00  0.00    +0.000 A 
ATOM      9  C   UNL     1       6.599  53.860  16.773  0.00  0.00    +0.000 C 
ATOM     10  C   UNL     1       2.910  55.554  14.979  0.00  0.00    +0.000 C 
ATOM     11  C   UNL     1       3.187  52.486  16.580  0.00  0.00    +0.000 C 
ATOM     12  C   UNL     1       7.580  55.104  18.787  0.00  0.00    +0.000 A 
ATOM     13  C   UNL     1       5.942  56.353  19.961  0.00  0.00    +0.000 A 
ATOM     14  C   UNL     1       7.301  55.953  19.884  0.00  0.00    +0.000 A 
ATOM     15  C   UNL     1       8.883  54.643  18.612  0.00  0.00    +0.000 A 
ATOM     16  C   UNL     1       8.278  56.339  20.787  0.00  0.00    +0.000 A 
ATOM     17  C   UNL     1       9.879  55.024  19.513  0.00  0.00    +0.000 A 
ATOM     18  C   UNL     1       9.570  55.862  20.586  0.00  0.00    +0.000 A 
ENDROOT
BRANCH   8  19
ATOM     19  C   UNL     1       3.459  56.506  19.645  0.00  0.00    +0.000 C 
ATOM     20  C   UNL     1       2.050  56.920  20.079  0.00  0.00    +0.000 C 
BRANCH  20  21
ATOM     21  C   UNL     1       0.632  57.331  20.486  0.00  0.00    +0.000 C 
ATOM     22  C   UNL     1      -0.796  57.736  20.863  0.00  0.00    +0.000 C 
BRANCH  22  23
ATOM     23  C   UNL     1      -2.234  58.137  21.207  0.00  0.00    +0.000 C 
BRANCH  23  24
ATOM     24  C   UNL     1      -3.683  58.523  21.520  0.00  0.00    +0.000 C 
ATOM     25  C   UNL     1      -5.143  58.885  21.809  0.00  0.00    +0.000 C 
BRANCH  25  26
ATOM     26  C   UNL     1      -6.614  59.226  22.071  0.00  0.00    +0.000 C 
ATOM     27  C   UNL     1      -8.083  59.592  22.305  0.00  0.00    +0.000 C 
BRANCH  27  28
ATOM     28  S   UNL     1      -9.768  60.037  22.549  0.00  0.00    +0.000 S 
ATOM     29  O   UNL     1      -9.486  61.484  22.271  0.00  0.00    +0.000 OA
BRANCH  28  30
ATOM     30  C   UNL     1     -10.210  59.736  20.871  0.00  0.00    +0.000 C 
BRANCH  30  31
ATOM     31  C   UNL     1     -10.602  59.497  19.409  0.00  0.00    +0.000 C 
ATOM     32  C   UNL     1     -10.980  59.246  17.945  0.00  0.00    +0.000 C 
BRANCH  32  33
ATOM     33  C   UNL     1     -11.332  59.001  16.544  0.00  0.00    +0.000 C 
ATOM     34  F   UNL     1     -11.828  60.161  16.027  0.00  0.00    +0.000 F 
ATOM     35  F   UNL     1     -12.364  58.112  16.523  0.00  0.00    +0.000 F 
BRANCH  33  36
ATOM     36  C   UNL     1     -10.158  58.490  15.704  0.00  0.00    +0.000 C 
ATOM     37  F   UNL     1     -10.149  57.135  15.612  0.00  0.00    +0.000 F 
ATOM     38  F   UNL     1      -8.959  58.858  16.221  0.00  0.00    +0.000 F 
ATOM     39  F   UNL     1     -10.200  58.968  14.433  0.00  0.00    +0.000 F 
ENDBRANCH  33  36
ENDBRANCH  32  33
ENDBRANCH  30  31
ENDBRANCH  28  30
ENDBRANCH  27  28
ENDBRANCH  25  26
ENDBRANCH  23  24
ENDBRANCH  22  23
ENDBRANCH  20  21
ENDBRANCH   8  19
BRANCH   6  40
ATOM     40  O   UNL     1       3.747  53.791  13.495  0.00  0.00    +0.000 OA
ATOM     41  H   UNL     1       3.327  52.934  13.299  0.00  0.00    +0.000 HD
ENDBRANCH   6  40
BRANCH  18  42
ATOM     42  O   UNL     1      10.577  56.206  21.443  0.00  0.00    +0.000 OA
ATOM     43  H   UNL     1      10.209  56.786  22.132  0.00  0.00    +0.000 HD
ENDBRANCH  18  42
TORSDOF 12
ENDMDL
MODEL 5
REMARK VINA RESULT:      -6.4     12.578     18.643
REMARK  Name = Fulvestrant.pdbqt.pdb
REMARK  12 active torsions:
REMARK  status: ('A' for Active; 'I' for Inactive)
REMARK    1  A    between atoms: C_6  and  O_40
REMARK    2  A    between atoms: C_8  and  C_19
REMARK    3  A    between atoms: C_18  and  O_42
REMARK    4  A    between atoms: C_20  and  C_21
REMARK    5  A    between atoms: C_22  and  C_23
REMARK    6  A    between atoms: C_23  and  C_24
REMARK    7  A    between atoms: C_25  and  C_26
REMARK    8  A    between atoms: C_27  and  S_28
REMARK    9  A    between atoms: S_28  and  C_30
REMARK   10  A    between atoms: C_30  and  C_31
REMARK   11  A    between atoms: C_32  and  C_33
REMARK   12  A    between atoms: C_33  and  C_36
REMARK                            x       y       z     vdW  Elec       q    Type
REMARK                         _______ _______ _______ _____ _____    ______ ____
ROOT
ATOM      1  C   UNL     1      -4.620  47.510  26.886  0.00  0.00    +0.000 C 
ATOM      2  C   UNL     1      -3.770  46.158  26.735  0.00  0.00    +0.000 C 
ATOM      3  C   UNL     1      -4.024  48.831  27.269  0.00  0.00    +0.000 A 
ATOM      4  C   UNL     1      -2.508  49.092  27.151  0.00  0.00    +0.000 A 
ATOM      5  C   UNL     1      -2.386  46.580  26.546  0.00  0.00    +0.000 C 
ATOM      6  C   UNL     1      -4.389  45.500  25.482  0.00  0.00    +0.000 C 
ATOM      7  C   UNL     1      -5.649  47.462  25.890  0.00  0.00    +0.000 C 
ATOM      8  C   UNL     1      -4.858  49.958  27.762  0.00  0.00    +0.000 A 
ATOM      9  C   UNL     1      -1.787  47.943  26.748  0.00  0.00    +0.000 C 
ATOM     10  C   UNL     1      -5.502  46.247  25.011  0.00  0.00    +0.000 C 
ATOM     11  C   UNL     1      -4.006  45.280  27.990  0.00  0.00    +0.000 C 
ATOM     12  C   UNL     1      -1.870  50.398  27.479  0.00  0.00    +0.000 A 
ATOM     13  C   UNL     1      -4.069  51.108  28.008  0.00  0.00    +0.000 A 
ATOM     14  C   UNL     1      -2.697  51.455  27.928  0.00  0.00    +0.000 A 
ATOM     15  C   UNL     1      -0.499  50.622  27.367  0.00  0.00    +0.000 A 
ATOM     16  C   UNL     1      -2.189  52.702  28.257  0.00  0.00    +0.000 A 
ATOM     17  C   UNL     1       0.027  51.872  27.694  0.00  0.00    +0.000 A 
ATOM     18  C   UNL     1      -0.816  52.894  28.134  0.00  0.00    +0.000 A 
ENDROOT
BRANCH   8  19
ATOM     19  C   UNL     1      -6.223  49.829  28.115  0.00  0.00    +0.000 C 
ATOM     20  C   UNL     1      -7.700  49.668  28.490  0.00  0.00    +0.000 C 
BRANCH  20  21
ATOM     21  C   UNL     1      -9.174  49.479  28.855  0.00  0.00    +0.000 C 
ATOM     22  C   UNL     1     -10.658  49.292  29.190  0.00  0.00    +0.000 C 
BRANCH  22  23
ATOM     23  C   UNL     1     -12.148  49.111  29.491  0.00  0.00    +0.000 C 
BRANCH  23  24
ATOM     24  C   UNL     1     -13.633  48.896  29.804  0.00  0.00    +0.000 C 
ATOM     25  C   UNL     1     -15.109  48.647  30.127  0.00  0.00    +0.000 C 
BRANCH  25  26
ATOM     26  C   UNL     1     -16.579  48.364  30.454  0.00  0.00    +0.000 C 
ATOM     27  C   UNL     1     -18.051  48.115  30.799  0.00  0.00    +0.000 C 
BRANCH  27  28
ATOM     28  S   UNL     1     -19.742  47.857  31.213  0.00  0.00    +0.000 S 
ATOM     29  O   UNL     1     -19.971  47.011  29.995  0.00  0.00    +0.000 OA
BRANCH  28  30
ATOM     30  C   UNL     1     -19.402  46.445  32.208  0.00  0.00    +0.000 C 
BRANCH  30  31
ATOM     31  C   UNL     1     -19.084  45.224  33.079  0.00  0.00    +0.000 C 
ATOM     32  C   UNL     1     -18.749  44.003  33.942  0.00  0.00    +0.000 C 
BRANCH  32  33
ATOM     33  C   UNL     1     -18.420  42.835  34.763  0.00  0.00    +0.000 C 
ATOM     34  F   UNL     1     -19.137  41.776  34.292  0.00  0.00    +0.000 F 
ATOM     35  F   UNL     1     -18.882  43.068  36.023  0.00  0.00    +0.000 F 
BRANCH  33  36
ATOM     36  C   UNL     1     -16.922  42.512  34.785  0.00  0.00    +0.000 C 
ATOM     37  F   UNL     1     -16.668  41.249  34.354  0.00  0.00    +0.000 F 
ATOM     38  F   UNL     1     -16.394  42.617  36.030  0.00  0.00    +0.000 F 
ATOM     39  F   UNL     1     -16.214  43.349  33.985  0.00  0.00    +0.000 F 
ENDBRANCH  33  36
ENDBRANCH  32  33
ENDBRANCH  30  31
ENDBRANCH  28  30
ENDBRANCH  27  28
ENDBRANCH  25  26
ENDBRANCH  23  24
ENDBRANCH  22  23
ENDBRANCH  20  21
ENDBRANCH   8  19
BRANCH   6  40
ATOM     40  O   UNL     1      -3.687  44.633  24.671  0.00  0.00    +0.000 OA
ATOM     41  H   UNL     1      -4.063  43.735  24.691  0.00  0.00    +0.000 HD
ENDBRANCH   6  40
BRANCH  18  42
ATOM     42  O   UNL     1      -0.255  54.101  28.444  0.00  0.00    +0.000 OA
ATOM     43  H   UNL     1      -0.849  54.805  28.130  0.00  0.00    +0.000 HD
ENDBRANCH  18  42
TORSDOF 12
ENDMDL
MODEL 6
REMARK VINA RESULT:      -6.4      8.233      9.240
REMARK  Name = Fulvestrant.pdbqt.pdb
REMARK  12 active torsions:
REMARK  status: ('A' for Active; 'I' for Inactive)
REMARK    1  A    between atoms: C_6  and  O_40
REMARK    2  A    between atoms: C_8  and  C_19
REMARK    3  A    between atoms: C_18  and  O_42
REMARK    4  A    between atoms: C_20  and  C_21
REMARK    5  A    between atoms: C_22  and  C_23
REMARK    6  A    between atoms: C_23  and  C_24
REMARK    7  A    between atoms: C_25  and  C_26
REMARK    8  A    between atoms: C_27  and  S_28
REMARK    9  A    between atoms: S_28  and  C_30
REMARK   10  A    between atoms: C_30  and  C_31
REMARK   11  A    between atoms: C_32  and  C_33
REMARK   12  A    between atoms: C_33  and  C_36
REMARK                            x       y       z     vdW  Elec       q    Type
REMARK                         _______ _______ _______ _____ _____    ______ ____
ROOT
ATOM      1  C   UNL     1      -6.859  48.968  26.038  0.00  0.00    +0.000 C 
ATOM      2  C   UNL     1      -7.682  48.674  24.693  0.00  0.00    +0.000 C 
ATOM      3  C   UNL     1      -6.993  50.228  26.838  0.00  0.00    +0.000 A 
ATOM      4  C   UNL     1      -8.212  51.159  26.671  0.00  0.00    +0.000 A 
ATOM      5  C   UNL     1      -8.837  49.564  24.733  0.00  0.00    +0.000 C 
ATOM      6  C   UNL     1      -8.052  47.181  24.835  0.00  0.00    +0.000 C 
ATOM      7  C   UNL     1      -6.716  47.713  26.715  0.00  0.00    +0.000 C 
ATOM      8  C   UNL     1      -5.975  50.636  27.841  0.00  0.00    +0.000 A 
ATOM      9  C   UNL     1      -9.088  50.732  25.645  0.00  0.00    +0.000 C 
ATOM     10  C   UNL     1      -7.463  46.618  25.999  0.00  0.00    +0.000 C 
ATOM     11  C   UNL     1      -6.745  48.894  23.478  0.00  0.00    +0.000 C 
ATOM     12  C   UNL     1      -8.415  52.401  27.470  0.00  0.00    +0.000 A 
ATOM     13  C   UNL     1      -6.355  51.833  28.496  0.00  0.00    +0.000 A 
ATOM     14  C   UNL     1      -7.435  52.749  28.430  0.00  0.00    +0.000 A 
ATOM     15  C   UNL     1      -9.521  53.232  27.311  0.00  0.00    +0.000 A 
ATOM     16  C   UNL     1      -7.541  53.886  29.214  0.00  0.00    +0.000 A 
ATOM     17  C   UNL     1      -9.642  54.381  28.095  0.00  0.00    +0.000 A 
ATOM     18  C   UNL     1      -8.657  54.696  29.033  0.00  0.00    +0.000 A 
ENDROOT
BRANCH   8  19
ATOM     19  C   UNL     1      -4.713  50.010  27.978  0.00  0.00    +0.000 C 
ATOM     20  C   UNL     1      -3.349  49.333  28.148  0.00  0.00    +0.000 C 
BRANCH  20  21
ATOM     21  C   UNL     1      -1.988  48.661  28.346  0.00  0.00    +0.000 C 
ATOM     22  C   UNL     1      -0.621  48.008  28.571  0.00  0.00    +0.000 C 
BRANCH  22  23
ATOM     23  C   UNL     1       0.752  47.376  28.822  0.00  0.00    +0.000 C 
BRANCH  23  24
ATOM     24  C   UNL     1       2.124  46.755  29.106  0.00  0.00    +0.000 C 
ATOM     25  C   UNL     1       3.482  46.121  29.420  0.00  0.00    +0.000 C 
BRANCH  25  26
ATOM     26  C   UNL     1       4.828  45.474  29.764  0.00  0.00    +0.000 C 
ATOM     27  C   UNL     1       6.177  44.852  30.137  0.00  0.00    +0.000 C 
BRANCH  27  28
ATOM     28  S   UNL     1       7.732  44.162  30.589  0.00  0.00    +0.000 S 
ATOM     29  O   UNL     1       7.489  42.931  29.768  0.00  0.00    +0.000 OA
BRANCH  28  30
ATOM     30  C   UNL     1       8.593  44.949  29.270  0.00  0.00    +0.000 C 
BRANCH  30  31
ATOM     31  C   UNL     1       9.329  45.621  28.106  0.00  0.00    +0.000 C 
ATOM     32  C   UNL     1      10.081  46.283  26.946  0.00  0.00    +0.000 C 
BRANCH  32  33
ATOM     33  C   UNL     1      10.808  46.911  25.839  0.00  0.00    +0.000 C 
ATOM     34  F   UNL     1      11.800  47.679  26.371  0.00  0.00    +0.000 F 
ATOM     35  F   UNL     1       9.957  47.778  25.221  0.00  0.00    +0.000 F 
BRANCH  33  36
ATOM     36  C   UNL     1      11.378  45.902  24.837  0.00  0.00    +0.000 C 
ATOM     37  F   UNL     1      10.809  44.676  24.970  0.00  0.00    +0.000 F 
ATOM     38  F   UNL     1      12.715  45.734  24.985  0.00  0.00    +0.000 F 
ATOM     39  F   UNL     1      11.170  46.293  23.554  0.00  0.00    +0.000 F 
ENDBRANCH  33  36
ENDBRANCH  32  33
ENDBRANCH  30  31
ENDBRANCH  28  30
ENDBRANCH  27  28
ENDBRANCH  25  26
ENDBRANCH  23  24
ENDBRANCH  22  23
ENDBRANCH  20  21
ENDBRANCH   8  19
BRANCH   6  40
ATOM     40  O   UNL     1      -9.159  46.625  24.228  0.00  0.00    +0.000 OA
ATOM     41  H   UNL     1      -9.204  46.851  23.282  0.00  0.00    +0.000 HD
ENDBRANCH   6  40
BRANCH  18  42
ATOM     42  O   UNL     1      -8.818  55.832  29.776  0.00  0.00    +0.000 OA
ATOM     43  H   UNL     1      -8.812  56.596  29.174  0.00  0.00    +0.000 HD
ENDBRANCH  18  42
TORSDOF 12
ENDMDL
MODEL 7
REMARK VINA RESULT:      -6.3      3.892      4.971
REMARK  Name = Fulvestrant.pdbqt.pdb
REMARK  12 active torsions:
REMARK  status: ('A' for Active; 'I' for Inactive)
REMARK    1  A    between atoms: C_6  and  O_40
REMARK    2  A    between atoms: C_8  and  C_19
REMARK    3  A    between atoms: C_18  and  O_42
REMARK    4  A    between atoms: C_20  and  C_21
REMARK    5  A    between atoms: C_22  and  C_23
REMARK    6  A    between atoms: C_23  and  C_24
REMARK    7  A    between atoms: C_25  and  C_26
REMARK    8  A    between atoms: C_27  and  S_28
REMARK    9  A    between atoms: S_28  and  C_30
REMARK   10  A    between atoms: C_30  and  C_31
REMARK   11  A    between atoms: C_32  and  C_33
REMARK   12  A    between atoms: C_33  and  C_36
REMARK                            x       y       z     vdW  Elec       q    Type
REMARK                         _______ _______ _______ _____ _____    ______ ____
ROOT
ATOM      1  C   UNL     1      -1.526  47.648  28.605  0.00  0.00    +0.000 C 
ATOM      2  C   UNL     1      -1.105  46.182  29.103  0.00  0.00    +0.000 C 
ATOM      3  C   UNL     1      -2.730  47.925  27.757  0.00  0.00    +0.000 A 
ATOM      4  C   UNL     1      -3.879  46.902  27.634  0.00  0.00    +0.000 A 
ATOM      5  C   UNL     1      -2.313  45.369  29.009  0.00  0.00    +0.000 C 
ATOM      6  C   UNL     1      -0.644  46.431  30.557  0.00  0.00    +0.000 C 
ATOM      7  C   UNL     1      -1.180  48.555  29.659  0.00  0.00    +0.000 C 
ATOM      8  C   UNL     1      -2.889  49.200  27.008  0.00  0.00    +0.000 A 
ATOM      9  C   UNL     1      -3.607  45.693  28.316  0.00  0.00    +0.000 C 
ATOM     10  C   UNL     1      -0.661  47.818  30.866  0.00  0.00    +0.000 C 
ATOM     11  C   UNL     1       0.074  45.680  28.232  0.00  0.00    +0.000 C 
ATOM     12  C   UNL     1      -5.115  47.145  26.838  0.00  0.00    +0.000 A 
ATOM     13  C   UNL     1      -4.129  49.239  26.326  0.00  0.00    +0.000 A 
ATOM     14  C   UNL     1      -5.242  48.377  26.154  0.00  0.00    +0.000 A 
ATOM     15  C   UNL     1      -6.147  46.214  26.738  0.00  0.00    +0.000 A 
ATOM     16  C   UNL     1      -6.356  48.687  25.389  0.00  0.00    +0.000 A 
ATOM     17  C   UNL     1      -7.275  46.512  25.971  0.00  0.00    +0.000 A 
ATOM     18  C   UNL     1      -7.369  47.736  25.308  0.00  0.00    +0.000 A 
ENDROOT
BRANCH   8  19
ATOM     19  C   UNL     1      -1.854  50.153  26.853  0.00  0.00    +0.000 C 
ATOM     20  C   UNL     1      -0.735  51.181  26.663  0.00  0.00    +0.000 C 
BRANCH  20  21
ATOM     21  C   UNL     1       0.384  52.203  26.445  0.00  0.00    +0.000 C 
ATOM     22  C   UNL     1       1.515  53.208  26.203  0.00  0.00    +0.000 C 
BRANCH  22  23
ATOM     23  C   UNL     1       2.660  54.190  25.939  0.00  0.00    +0.000 C 
BRANCH  23  24
ATOM     24  C   UNL     1       3.824  55.158  25.701  0.00  0.00    +0.000 C 
ATOM     25  C   UNL     1       4.982  56.123  25.429  0.00  0.00    +0.000 C 
BRANCH  25  26
ATOM     26  C   UNL     1       6.136  57.083  25.122  0.00  0.00    +0.000 C 
ATOM     27  C   UNL     1       7.288  58.033  24.779  0.00  0.00    +0.000 C 
BRANCH  27  28
ATOM     28  S   UNL     1       8.612  59.111  24.353  0.00  0.00    +0.000 S 
ATOM     29  O   UNL     1       9.607  58.283  25.111  0.00  0.00    +0.000 OA
BRANCH  28  30
ATOM     30  C   UNL     1       8.964  58.270  22.847  0.00  0.00    +0.000 C 
BRANCH  30  31
ATOM     31  C   UNL     1       9.285  57.555  21.529  0.00  0.00    +0.000 C 
ATOM     32  C   UNL     1       9.588  56.836  20.210  0.00  0.00    +0.000 C 
BRANCH  32  33
ATOM     33  C   UNL     1       9.868  56.146  18.948  0.00  0.00    +0.000 C 
ATOM     34  F   UNL     1      10.931  56.763  18.359  0.00  0.00    +0.000 F 
ATOM     35  F   UNL     1       8.808  56.352  18.117  0.00  0.00    +0.000 F 
BRANCH  33  36
ATOM     36  C   UNL     1      10.137  54.648  19.123  0.00  0.00    +0.000 C 
ATOM     37  F   UNL     1      10.571  54.352  20.376  0.00  0.00    +0.000 F 
ATOM     38  F   UNL     1      11.081  54.193  18.262  0.00  0.00    +0.000 F 
ATOM     39  F   UNL     1       9.021  53.906  18.910  0.00  0.00    +0.000 F 
ENDBRANCH  33  36
ENDBRANCH  32  33
ENDBRANCH  30  31
ENDBRANCH  28  30
ENDBRANCH  27  28
ENDBRANCH  25  26
ENDBRANCH  23  24
ENDBRANCH  22  23
ENDBRANCH  20  21
ENDBRANCH   8  19
BRANCH   6  40
ATOM     40  O   UNL     1      -0.695  45.458  31.533  0.00  0.00    +0.000 OA
ATOM     41  H   UNL     1      -1.595  45.350  31.889  0.00  0.00    +0.000 HD
ENDBRANCH   6  40
BRANCH  18  42
ATOM     42  O   UNL     1      -8.491  47.982  24.569  0.00  0.00    +0.000 OA
ATOM     43  H   UNL     1      -9.152  47.298  24.777  0.00  0.00    +0.000 HD
ENDBRANCH  18  42
TORSDOF 12
ENDMDL
MODEL 8
REMARK VINA RESULT:      -6.1      9.317     16.568
REMARK  Name = Fulvestrant.pdbqt.pdb
REMARK  12 active torsions:
REMARK  status: ('A' for Active; 'I' for Inactive)
REMARK    1  A    between atoms: C_6  and  O_40
REMARK    2  A    between atoms: C_8  and  C_19
REMARK    3  A    between atoms: C_18  and  O_42
REMARK    4  A    between atoms: C_20  and  C_21
REMARK    5  A    between atoms: C_22  and  C_23
REMARK    6  A    between atoms: C_23  and  C_24
REMARK    7  A    between atoms: C_25  and  C_26
REMARK    8  A    between atoms: C_27  and  S_28
REMARK    9  A    between atoms: S_28  and  C_30
REMARK   10  A    between atoms: C_30  and  C_31
REMARK   11  A    between atoms: C_32  and  C_33
REMARK   12  A    between atoms: C_33  and  C_36
REMARK                            x       y       z     vdW  Elec       q    Type
REMARK                         _______ _______ _______ _____ _____    ______ ____
ROOT
ATOM      1  C   UNL     1       3.811  54.910  17.044  0.00  0.00    +0.000 C 
ATOM      2  C   UNL     1       3.902  53.667  16.033  0.00  0.00    +0.000 C 
ATOM      3  C   UNL     1       4.886  55.263  18.027  0.00  0.00    +0.000 A 
ATOM      4  C   UNL     1       6.324  54.725  17.874  0.00  0.00    +0.000 A 
ATOM      5  C   UNL     1       5.321  53.342  15.931  0.00  0.00    +0.000 C 
ATOM      6  C   UNL     1       3.308  54.241  14.727  0.00  0.00    +0.000 C 
ATOM      7  C   UNL     1       3.116  55.953  16.350  0.00  0.00    +0.000 C 
ATOM      8  C   UNL     1       4.629  56.161  19.184  0.00  0.00    +0.000 A 
ATOM      9  C   UNL     1       6.455  53.822  16.792  0.00  0.00    +0.000 C 
ATOM     10  C   UNL     1       2.825  55.563  14.924  0.00  0.00    +0.000 C 
ATOM     11  C   UNL     1       3.018  52.517  16.578  0.00  0.00    +0.000 C 
ATOM     12  C   UNL     1       7.437  55.078  18.799  0.00  0.00    +0.000 A 
ATOM     13  C   UNL     1       5.812  56.379  19.932  0.00  0.00    +0.000 A 
ATOM     14  C   UNL     1       7.162  55.950  19.879  0.00  0.00    +0.000 A 
ATOM     15  C   UNL     1       8.732  54.587  18.648  0.00  0.00    +0.000 A 
ATOM     16  C   UNL     1       8.136  56.330  20.788  0.00  0.00    +0.000 A 
ATOM     17  C   UNL     1       9.725  54.961  19.556  0.00  0.00    +0.000 A 
ATOM     18  C   UNL     1       9.420  55.822  20.611  0.00  0.00    +0.000 A 
ENDROOT
BRANCH   8  19
ATOM     19  C   UNL     1       3.337  56.579  19.582  0.00  0.00    +0.000 C 
ATOM     20  C   UNL     1       1.934  57.012  20.018  0.00  0.00    +0.000 C 
BRANCH  20  21
ATOM     21  C   UNL     1       0.525  57.416  20.460  0.00  0.00    +0.000 C 
ATOM     22  C   UNL     1      -0.896  57.794  20.890  0.00  0.00    +0.000 C 
BRANCH  22  23
ATOM     23  C   UNL     1      -2.329  58.145  21.301  0.00  0.00    +0.000 C 
BRANCH  23  24
ATOM     24  C   UNL     1      -3.764  58.466  21.733  0.00  0.00    +0.000 C 
ATOM     25  C   UNL     1      -5.198  58.759  22.185  0.00  0.00    +0.000 C 
BRANCH  25  26
ATOM     26  C   UNL     1      -6.632  59.021  22.657  0.00  0.00    +0.000 C 
ATOM     27  C   UNL     1      -8.077  59.280  23.093  0.00  0.00    +0.000 C 
BRANCH  27  28
ATOM     28  S   UNL     1      -9.748  59.579  23.560  0.00  0.00    +0.000 S 
ATOM     29  O   UNL     1     -10.275  58.830  22.372  0.00  0.00    +0.000 OA
BRANCH  28  30
ATOM     30  C   UNL     1      -9.838  58.148  24.582  0.00  0.00    +0.000 C 
BRANCH  30  31
ATOM     31  C   UNL     1      -9.892  56.902  25.472  0.00  0.00    +0.000 C 
ATOM     32  C   UNL     1      -9.939  55.645  26.348  0.00  0.00    +0.000 C 
BRANCH  32  33
ATOM     33  C   UNL     1      -9.983  54.438  27.178  0.00  0.00    +0.000 C 
ATOM     34  F   UNL     1     -11.260  54.284  27.629  0.00  0.00    +0.000 F 
ATOM     35  F   UNL     1      -9.221  54.665  28.284  0.00  0.00    +0.000 F 
BRANCH  33  36
ATOM     36  C   UNL     1      -9.511  53.180  26.442  0.00  0.00    +0.000 C 
ATOM     37  F   UNL     1      -8.635  53.471  25.446  0.00  0.00    +0.000 F 
ATOM     38  F   UNL     1     -10.539  52.500  25.877  0.00  0.00    +0.000 F 
ATOM     39  F   UNL     1      -8.880  52.314  27.277  0.00  0.00    +0.000 F 
ENDBRANCH  33  36
ENDBRANCH  32  33
ENDBRANCH  30  31
ENDBRANCH  28  30
ENDBRANCH  27  28
ENDBRANCH  25  26
ENDBRANCH  23  24
ENDBRANCH  22  23
ENDBRANCH  20  21
ENDBRANCH   8  19
BRANCH   6  40
ATOM     40  O   UNL     1       3.644  53.759  13.479  0.00  0.00    +0.000 OA
ATOM     41  H   UNL     1       3.762  52.793  13.485  0.00  0.00    +0.000 HD
ENDBRANCH   6  40
BRANCH  18  42
ATOM     42  O   UNL     1      10.423  56.159  21.475  0.00  0.00    +0.000 OA
ATOM     43  H   UNL     1      11.142  56.574  20.965  0.00  0.00    +0.000 HD
ENDBRANCH  18  42
TORSDOF 12
ENDMDL
MODEL 9
REMARK VINA RESULT:      -6.0     11.681     16.778
REMARK  Name = Fulvestrant.pdbqt.pdb
REMARK  12 active torsions:
REMARK  status: ('A' for Active; 'I' for Inactive)
REMARK    1  A    between atoms: C_6  and  O_40
REMARK    2  A    between atoms: C_8  and  C_19
REMARK    3  A    between atoms: C_18  and  O_42
REMARK    4  A    between atoms: C_20  and  C_21
REMARK    5  A    between atoms: C_22  and  C_23
REMARK    6  A    between atoms: C_23  and  C_24
REMARK    7  A    between atoms: C_25  and  C_26
REMARK    8  A    between atoms: C_27  and  S_28
REMARK    9  A    between atoms: S_28  and  C_30
REMARK   10  A    between atoms: C_30  and  C_31
REMARK   11  A    between atoms: C_32  and  C_33
REMARK   12  A    between atoms: C_33  and  C_36
REMARK                            x       y       z     vdW  Elec       q    Type
REMARK                         _______ _______ _______ _____ _____    ______ ____
ROOT
ATOM      1  C   UNL     1       3.731  55.074  17.249  0.00  0.00    +0.000 C 
ATOM      2  C   UNL     1       3.947  53.848  16.237  0.00  0.00    +0.000 C 
ATOM      3  C   UNL     1       4.735  55.488  18.281  0.00  0.00    +0.000 A 
ATOM      4  C   UNL     1       6.210  55.044  18.191  0.00  0.00    +0.000 A 
ATOM      5  C   UNL     1       5.387  53.615  16.198  0.00  0.00    +0.000 C 
ATOM      6  C   UNL     1       3.376  54.392  14.909  0.00  0.00    +0.000 C 
ATOM      7  C   UNL     1       3.002  56.076  16.530  0.00  0.00    +0.000 C 
ATOM      8  C   UNL     1       4.370  56.358  19.430  0.00  0.00    +0.000 A 
ATOM      9  C   UNL     1       6.448  54.160  17.112  0.00  0.00    +0.000 C 
ATOM     10  C   UNL     1       2.800  55.678  15.091  0.00  0.00    +0.000 C 
ATOM     11  C   UNL     1       3.116  52.638  16.737  0.00  0.00    +0.000 C 
ATOM     12  C   UNL     1       7.257  55.461  19.166  0.00  0.00    +0.000 A 
ATOM     13  C   UNL     1       5.501  56.646  20.232  0.00  0.00    +0.000 A 
ATOM     14  C   UNL     1       6.878  56.306  20.237  0.00  0.00    +0.000 A 
ATOM     15  C   UNL     1       8.586  55.056  19.072  0.00  0.00    +0.000 A 
ATOM     16  C   UNL     1       7.784  56.740  21.191  0.00  0.00    +0.000 A 
ATOM     17  C   UNL     1       9.510  55.486  20.025  0.00  0.00    +0.000 A 
ATOM     18  C   UNL     1       9.104  56.318  21.070  0.00  0.00    +0.000 A 
ENDROOT
BRANCH   8  19
ATOM     19  C   UNL     1       3.037  56.689  19.771  0.00  0.00    +0.000 C 
ATOM     20  C   UNL     1       1.600  57.050  20.161  0.00  0.00    +0.000 C 
BRANCH  20  21
ATOM     21  C   UNL     1       0.172  57.412  20.578  0.00  0.00    +0.000 C 
ATOM     22  C   UNL     1      -1.250  57.764  21.026  0.00  0.00    +0.000 C 
BRANCH  22  23
ATOM     23  C   UNL     1      -2.665  58.104  21.504  0.00  0.00    +0.000 C 
BRANCH  23  24
ATOM     24  C   UNL     1      -4.077  58.477  21.967  0.00  0.00    +0.000 C 
ATOM     25  C   UNL     1      -5.482  58.883  22.422  0.00  0.00    +0.000 C 
BRANCH  25  26
ATOM     26  C   UNL     1      -6.879  59.323  22.873  0.00  0.00    +0.000 C 
ATOM     27  C   UNL     1      -8.289  59.748  23.293  0.00  0.00    +0.000 C 
BRANCH  27  28
ATOM     28  S   UNL     1      -9.923  60.224  23.745  0.00  0.00    +0.000 S 
ATOM     29  O   UNL     1     -10.190  60.806  22.388  0.00  0.00    +0.000 OA
BRANCH  28  30
ATOM     30  C   UNL     1     -10.624  58.675  23.289  0.00  0.00    +0.000 C 
BRANCH  30  31
ATOM     31  C   UNL     1     -11.250  57.338  22.877  0.00  0.00    +0.000 C 
ATOM     32  C   UNL     1     -11.891  56.005  22.476  0.00  0.00    +0.000 C 
BRANCH  32  33
ATOM     33  C   UNL     1     -12.512  54.732  22.099  0.00  0.00    +0.000 C 
ATOM     34  F   UNL     1     -12.275  53.837  23.098  0.00  0.00    +0.000 F 
ATOM     35  F   UNL     1     -11.852  54.256  21.006  0.00  0.00    +0.000 F 
BRANCH  33  36
ATOM     36  C   UNL     1     -14.014  54.850  21.818  0.00  0.00    +0.000 C 
ATOM     37  F   UNL     1     -14.535  56.001  22.314  0.00  0.00    +0.000 F 
ATOM     38  F   UNL     1     -14.719  53.830  22.367  0.00  0.00    +0.000 F 
ATOM     39  F   UNL     1     -14.280  54.840  20.487  0.00  0.00    +0.000 F 
ENDBRANCH  33  36
ENDBRANCH  32  33
ENDBRANCH  30  31
ENDBRANCH  28  30
ENDBRANCH  27  28
ENDBRANCH  25  26
ENDBRANCH  23  24
ENDBRANCH  22  23
ENDBRANCH  20  21
ENDBRANCH   8  19
BRANCH   6  40
ATOM     40  O   UNL     1       3.797  53.942  13.675  0.00  0.00    +0.000 OA
ATOM     41  H   UNL     1       4.041  54.678  13.086  0.00  0.00    +0.000 HD
ENDBRANCH   6  40
BRANCH  18  42
ATOM     42  O   UNL     1      10.044  56.712  21.980  0.00  0.00    +0.000 OA
ATOM     43  H   UNL     1      10.893  56.821  21.517  0.00  0.00    +0.000 HD
ENDBRANCH  18  42
TORSDOF 12
ENDMDL
