MODEL 1
REMARK VINA RESULT:      -5.9      0.000      0.000
REMARK  Name = Gefitinib.pdbqt.pdb
REMARK  6 active torsions:
REMARK  status: ('A' for Active; 'I' for Inactive)
REMARK    1  A    between atoms: C_3  and  O_11
REMARK    2  A    between atoms: C_6  and  O_21
REMARK    3  A    between atoms: O_11  and  C_12
REMARK    4  A    between atoms: C_13  and  C_14
REMARK    5  A    between atoms: C_14  and  N_15
REMARK    6  A    between atoms: N_23  and  C_25
REMARK                            x       y       z     vdW  Elec       q    Type
REMARK                         _______ _______ _______ _____ _____    ______ ____
ROOT
ATOM      1  N   UNL     1      -4.250  52.788  29.250  0.00  0.00    +0.000 NA
ATOM      2  N   UNL     1      -5.193  50.990  28.003  0.00  0.00    +0.000 NA
ATOM      3  C   UNL     1      -0.421  51.777  27.977  0.00  0.00    +0.000 A 
ATOM      4  C   UNL     1      -2.831  51.364  27.955  0.00  0.00    +0.000 A 
ATOM      5  C   UNL     1      -1.526  51.041  27.545  0.00  0.00    +0.000 A 
ATOM      6  C   UNL     1      -0.625  52.860  28.831  0.00  0.00    +0.000 A 
ATOM      7  C   UNL     1      -3.037  52.443  28.819  0.00  0.00    +0.000 A 
ATOM      8  C   UNL     1      -1.929  53.169  29.236  0.00  0.00    +0.000 A 
ATOM      9  C   UNL     1      -3.972  50.655  27.557  0.00  0.00    +0.000 A 
ATOM     10  C   UNL     1      -5.277  52.041  28.827  0.00  0.00    +0.000 A 
ATOM     11  N   UNL     1      -3.821  49.536  26.697  0.00  0.00    +0.000 N 
ATOM     12  H   UNL     1      -3.203  49.752  25.922  0.00  0.00    +0.000 HD
ENDROOT
BRANCH  11  13
ATOM     13  C   UNL     1      -4.796  48.577  26.343  0.00  0.00    +0.000 A 
ATOM     14  C   UNL     1      -4.929  47.426  27.129  0.00  0.00    +0.000 A 
ATOM     15  C   UNL     1      -5.943  46.504  26.881  0.00  0.00    +0.000 A 
ATOM     16 CL   UNL     1      -6.037  45.094  27.858  0.00  0.00    +0.000 Cl
ATOM     17  C   UNL     1      -6.857  46.737  25.860  0.00  0.00    +0.000 A 
ATOM     18  F   UNL     1      -7.840  45.861  25.606  0.00  0.00    +0.000 F 
ATOM     19  C   UNL     1      -6.769  47.890  25.090  0.00  0.00    +0.000 A 
ATOM     20  C   UNL     1      -5.753  48.807  25.349  0.00  0.00    +0.000 A 
ENDBRANCH  11  13
BRANCH   6  21
ATOM     21  O   UNL     1       0.490  53.558  29.233  0.00  0.00    +0.000 OA
ATOM     22  C   UNL     1       0.857  53.394  30.574  0.00  0.00    +0.000 C 
ENDBRANCH   6  21
BRANCH   3  23
ATOM     23  O   UNL     1       0.869  51.492  27.599  0.00  0.00    +0.000 OA
BRANCH  23  24
ATOM     24  C   UNL     1       1.376  50.387  28.140  0.00  0.00    +0.000 C 
ATOM     25  C   UNL     1       1.944  49.110  28.768  0.00  0.00    +0.000 C 
BRANCH  25  26
ATOM     26  C   UNL     1       2.479  47.820  29.400  0.00  0.00    +0.000 C 
BRANCH  26  27
ATOM     27  N   UNL     1       2.973  46.591  30.004  0.00  0.00    +0.000 N 
ATOM     28  C   UNL     1       1.776  45.851  30.509  0.00  0.00    +0.000 C 
ATOM     29  C   UNL     1       1.140  44.530  29.967  0.00  0.00    +0.000 C 
ATOM     30  O   UNL     1       1.423  43.688  28.949  0.00  0.00    +0.000 OA
ATOM     31  C   UNL     1       2.502  44.355  28.493  0.00  0.00    +0.000 C 
ATOM     32  C   UNL     1       3.274  45.652  28.882  0.00  0.00    +0.000 C 
ENDBRANCH  26  27
ENDBRANCH  25  26
ENDBRANCH  23  24
ENDBRANCH   3  23
TORSDOF 6
ENDMDL
MODEL 2
REMARK VINA RESULT:      -5.5     28.146     30.350
REMARK  Name = Gefitinib.pdbqt.pdb
REMARK  6 active torsions:
REMARK  status: ('A' for Active; 'I' for Inactive)
REMARK    1  A    between atoms: C_3  and  O_11
REMARK    2  A    between atoms: C_6  and  O_21
REMARK    3  A    between atoms: O_11  and  C_12
REMARK    4  A    between atoms: C_13  and  C_14
REMARK    5  A    between atoms: C_14  and  N_15
REMARK    6  A    between atoms: N_23  and  C_25
REMARK                            x       y       z     vdW  Elec       q    Type
REMARK                         _______ _______ _______ _____ _____    ______ ____
ROOT
ATOM      1  N   UNL     1     -21.980  39.570   5.910  0.00  0.00    +0.000 NA
ATOM      2  N   UNL     1     -20.026  40.855   5.455  0.00  0.00    +0.000 NA
ATOM      3  C   UNL     1     -19.685  36.174   6.620  0.00  0.00    +0.000 A 
ATOM      4  C   UNL     1     -19.823  38.546   6.047  0.00  0.00    +0.000 A 
ATOM      5  C   UNL     1     -19.072  37.382   6.286  0.00  0.00    +0.000 A 
ATOM      6  C   UNL     1     -21.075  36.128   6.722  0.00  0.00    +0.000 A 
ATOM      7  C   UNL     1     -21.216  38.501   6.138  0.00  0.00    +0.000 A 
ATOM      8  C   UNL     1     -21.812  37.293   6.476  0.00  0.00    +0.000 A 
ATOM      9  C   UNL     1     -19.258  39.782   5.702  0.00  0.00    +0.000 A 
ATOM     10  C   UNL     1     -21.350  40.702   5.572  0.00  0.00    +0.000 A 
ATOM     11  N   UNL     1     -17.849  39.882   5.573  0.00  0.00    +0.000 N 
ATOM     12  H   UNL     1     -17.378  39.440   6.357  0.00  0.00    +0.000 HD
ENDROOT
BRANCH  11  13
ATOM     13  C   UNL     1     -17.100  40.958   5.047  0.00  0.00    +0.000 A 
ATOM     14  C   UNL     1     -16.937  41.055   3.660  0.00  0.00    +0.000 A 
ATOM     15  C   UNL     1     -16.298  42.153   3.090  0.00  0.00    +0.000 A 
ATOM     16 CL   UNL     1     -16.098  42.201   1.384  0.00  0.00    +0.000 Cl
ATOM     17  C   UNL     1     -15.837  43.184   3.901  0.00  0.00    +0.000 A 
ATOM     18  F   UNL     1     -15.219  44.249   3.370  0.00  0.00    +0.000 F 
ATOM     19  C   UNL     1     -16.021  43.130   5.276  0.00  0.00    +0.000 A 
ATOM     20  C   UNL     1     -16.665  42.029   5.836  0.00  0.00    +0.000 A 
ENDBRANCH  11  13
BRANCH   6  21
ATOM     21  O   UNL     1     -21.638  34.918   7.052  0.00  0.00    +0.000 OA
ATOM     22  C   UNL     1     -22.370  34.292   6.036  0.00  0.00    +0.000 C 
ENDBRANCH   6  21
BRANCH   3  23
ATOM     23  O   UNL     1     -18.986  35.015   6.861  0.00  0.00    +0.000 OA
BRANCH  23  24
ATOM     24  C   UNL     1     -17.816  34.930   6.231  0.00  0.00    +0.000 C 
ATOM     25  C   UNL     1     -16.464  34.846   5.515  0.00  0.00    +0.000 C 
BRANCH  25  26
ATOM     26  C   UNL     1     -15.100  34.789   4.819  0.00  0.00    +0.000 C 
BRANCH  26  27
ATOM     27  N   UNL     1     -13.807  34.721   4.153  0.00  0.00    +0.000 N 
ATOM     28  C   UNL     1     -12.827  35.405   5.050  0.00  0.00    +0.000 C 
ATOM     29  C   UNL     1     -11.667  34.780   5.892  0.00  0.00    +0.000 C 
ATOM     30  O   UNL     1     -11.201  33.526   6.084  0.00  0.00    +0.000 OA
ATOM     31  C   UNL     1     -12.085  32.909   5.275  0.00  0.00    +0.000 C 
ATOM     32  C   UNL     1     -13.282  33.340   4.374  0.00  0.00    +0.000 C 
ENDBRANCH  26  27
ENDBRANCH  25  26
ENDBRANCH  23  24
ENDBRANCH   3  23
TORSDOF 6
ENDMDL
MODEL 3
REMARK VINA RESULT:      -5.3     18.633     19.861
REMARK  Name = Gefitinib.pdbqt.pdb
REMARK  6 active torsions:
REMARK  status: ('A' for Active; 'I' for Inactive)
REMARK    1  A    between atoms: C_3  and  O_11
REMARK    2  A    between atoms: C_6  and  O_21
REMARK    3  A    between atoms: O_11  and  C_12
REMARK    4  A    between atoms: C_13  and  C_14
REMARK    5  A    between atoms: C_14  and  N_15
REMARK    6  A    between atoms: N_23  and  C_25
REMARK                            x       y       z     vdW  Elec       q    Type
REMARK                         _______ _______ _______ _____ _____    ______ ____
ROOT
ATOM      1  N   UNL     1       6.130  57.370  11.358  0.00  0.00    +0.000 NA
ATOM      2  N   UNL     1       5.075  56.321  13.219  0.00  0.00    +0.000 NA
ATOM      3  C   UNL     1       8.743  54.162  10.922  0.00  0.00    +0.000 A 
ATOM      4  C   UNL     1       6.874  55.219  12.092  0.00  0.00    +0.000 A 
ATOM      5  C   UNL     1       7.774  54.152  11.926  0.00  0.00    +0.000 A 
ATOM      6  C   UNL     1       8.812  55.259  10.063  0.00  0.00    +0.000 A 
ATOM      7  C   UNL     1       6.948  56.324  11.240  0.00  0.00    +0.000 A 
ATOM      8  C   UNL     1       7.914  56.318  10.242  0.00  0.00    +0.000 A 
ATOM      9  C   UNL     1       5.888  55.261  13.087  0.00  0.00    +0.000 A 
ATOM     10  C   UNL     1       5.230  57.325  12.348  0.00  0.00    +0.000 A 
ATOM     11  N   UNL     1       5.781  54.176  13.996  0.00  0.00    +0.000 N 
ATOM     12  H   UNL     1       5.809  53.286  13.507  0.00  0.00    +0.000 HD
ENDROOT
BRANCH  11  13
ATOM     13  C   UNL     1       5.008  54.106  15.176  0.00  0.00    +0.000 A 
ATOM     14  C   UNL     1       5.494  54.712  16.340  0.00  0.00    +0.000 A 
ATOM     15  C   UNL     1       4.722  54.760  17.498  0.00  0.00    +0.000 A 
ATOM     16 CL   UNL     1       5.386  55.487  18.906  0.00  0.00    +0.000 Cl
ATOM     17  C   UNL     1       3.439  54.226  17.497  0.00  0.00    +0.000 A 
ATOM     18  F   UNL     1       2.680  54.262  18.602  0.00  0.00    +0.000 F 
ATOM     19  C   UNL     1       2.918  53.654  16.343  0.00  0.00    +0.000 A 
ATOM     20  C   UNL     1       3.698  53.614  15.189  0.00  0.00    +0.000 A 
ENDBRANCH  11  13
BRANCH   6  21
ATOM     21  O   UNL     1       9.782  55.230   9.089  0.00  0.00    +0.000 OA
ATOM     22  C   UNL     1       9.584  56.100   8.009  0.00  0.00    +0.000 C 
ENDBRANCH   6  21
BRANCH   3  23
ATOM     23  O   UNL     1       9.639  53.139  10.728  0.00  0.00    +0.000 OA
BRANCH  23  24
ATOM     24  C   UNL     1       9.127  52.053  10.153  0.00  0.00    +0.000 C 
ATOM     25  C   UNL     1       8.535  50.811   9.477  0.00  0.00    +0.000 C 
BRANCH  25  26
ATOM     26  C   UNL     1       7.945  49.587   8.769  0.00  0.00    +0.000 C 
BRANCH  26  27
ATOM     27  N   UNL     1       7.397  48.420   8.092  0.00  0.00    +0.000 N 
ATOM     28  C   UNL     1       7.872  48.484   6.676  0.00  0.00    +0.000 C 
ATOM     29  C   UNL     1       8.916  47.574   5.950  0.00  0.00    +0.000 C 
ATOM     30  O   UNL     1       9.679  46.522   6.321  0.00  0.00    +0.000 OA
ATOM     31  C   UNL     1       9.251  46.464   7.598  0.00  0.00    +0.000 C 
ATOM     32  C   UNL     1       8.247  47.257   8.488  0.00  0.00    +0.000 C 
ENDBRANCH  26  27
ENDBRANCH  25  26
ENDBRANCH  23  24
ENDBRANCH   3  23
TORSDOF 6
ENDMDL
MODEL 4
REMARK VINA RESULT:      -5.2     22.577     25.989
REMARK  Name = Gefitinib.pdbqt.pdb
REMARK  6 active torsions:
REMARK  status: ('A' for Active; 'I' for Inactive)
REMARK    1  A    between atoms: C_3  and  O_11
REMARK    2  A    between atoms: C_6  and  O_21
REMARK    3  A    between atoms: O_11  and  C_12
REMARK    4  A    between atoms: C_13  and  C_14
REMARK    5  A    between atoms: C_14  and  N_15
REMARK    6  A    between atoms: N_23  and  C_25
REMARK                            x       y       z     vdW  Elec       q    Type
REMARK                         _______ _______ _______ _____ _____    ______ ____
ROOT
ATOM      1  N   UNL     1     -24.516  49.662  16.474  0.00  0.00    +0.000 NA
ATOM      2  N   UNL     1     -25.087  48.276  14.622  0.00  0.00    +0.000 NA
ATOM      3  C   UNL     1     -22.826  46.433  18.480  0.00  0.00    +0.000 A 
ATOM      4  C   UNL     1     -23.952  47.338  16.508  0.00  0.00    +0.000 A 
ATOM      5  C   UNL     1     -23.380  46.264  17.210  0.00  0.00    +0.000 A 
ATOM      6  C   UNL     1     -22.839  47.703  19.057  0.00  0.00    +0.000 A 
ATOM      7  C   UNL     1     -23.976  48.609  17.088  0.00  0.00    +0.000 A 
ATOM      8  C   UNL     1     -23.416  48.764  18.349  0.00  0.00    +0.000 A 
ATOM      9  C   UNL     1     -24.527  47.221  15.235  0.00  0.00    +0.000 A 
ATOM     10  C   UNL     1     -25.054  49.448  15.267  0.00  0.00    +0.000 A 
ATOM     11  N   UNL     1     -24.551  45.949  14.606  0.00  0.00    +0.000 N 
ATOM     12  H   UNL     1     -23.647  45.492  14.672  0.00  0.00    +0.000 HD
ENDROOT
BRANCH  11  13
ATOM     13  C   UNL     1     -25.247  45.573  13.436  0.00  0.00    +0.000 A 
ATOM     14  C   UNL     1     -24.908  46.181  12.221  0.00  0.00    +0.000 A 
ATOM     15  C   UNL     1     -25.493  45.769  11.027  0.00  0.00    +0.000 A 
ATOM     16 CL   UNL     1     -25.062  46.575   9.572  0.00  0.00    +0.000 Cl
ATOM     17  C   UNL     1     -26.407  44.721  11.029  0.00  0.00    +0.000 A 
ATOM     18  F   UNL     1     -26.981  44.310   9.889  0.00  0.00    +0.000 F 
ATOM     19  C   UNL     1     -26.731  44.076  12.215  0.00  0.00    +0.000 A 
ATOM     20  C   UNL     1     -26.138  44.494  13.404  0.00  0.00    +0.000 A 
ENDBRANCH  11  13
BRANCH   6  21
ATOM     21  O   UNL     1     -22.284  47.826  20.309  0.00  0.00    +0.000 OA
ATOM     22  C   UNL     1     -21.155  48.650  20.394  0.00  0.00    +0.000 C 
ENDBRANCH   6  21
BRANCH   3  23
ATOM     23  O   UNL     1     -22.257  45.409  19.198  0.00  0.00    +0.000 OA
BRANCH  23  24
ATOM     24  C   UNL     1     -22.996  44.303  19.269  0.00  0.00    +0.000 C 
ATOM     25  C   UNL     1     -23.832  43.021  19.347  0.00  0.00    +0.000 C 
BRANCH  25  26
ATOM     26  C   UNL     1     -24.639  41.720  19.419  0.00  0.00    +0.000 C 
BRANCH  26  27
ATOM     27  N   UNL     1     -25.400  40.482  19.501  0.00  0.00    +0.000 N 
ATOM     28  C   UNL     1     -25.331  39.848  18.149  0.00  0.00    +0.000 C 
ATOM     29  C   UNL     1     -24.567  38.556  17.709  0.00  0.00    +0.000 C 
ATOM     30  O   UNL     1     -23.776  37.660  18.340  0.00  0.00    +0.000 OA
ATOM     31  C   UNL     1     -23.837  38.232  19.559  0.00  0.00    +0.000 C 
ATOM     32  C   UNL     1     -24.524  39.484  20.184  0.00  0.00    +0.000 C 
ENDBRANCH  26  27
ENDBRANCH  25  26
ENDBRANCH  23  24
ENDBRANCH   3  23
TORSDOF 6
ENDMDL
MODEL 5
REMARK VINA RESULT:      -5.2     18.913     20.580
REMARK  Name = Gefitinib.pdbqt.pdb
REMARK  6 active torsions:
REMARK  status: ('A' for Active; 'I' for Inactive)
REMARK    1  A    between atoms: C_3  and  O_11
REMARK    2  A    between atoms: C_6  and  O_21
REMARK    3  A    between atoms: O_11  and  C_12
REMARK    4  A    between atoms: C_13  and  C_14
REMARK    5  A    between atoms: C_14  and  N_15
REMARK    6  A    between atoms: N_23  and  C_25
REMARK                            x       y       z     vdW  Elec       q    Type
REMARK                         _______ _______ _______ _____ _____    ______ ____
ROOT
ATOM      1  N   UNL     1       7.602  53.801   7.657  0.00  0.00    +0.000 NA
ATOM      2  N   UNL     1       8.128  51.479   7.574  0.00  0.00    +0.000 NA
ATOM      3  C   UNL     1       8.557  53.960  11.703  0.00  0.00    +0.000 A 
ATOM      4  C   UNL     1       8.369  52.682   9.627  0.00  0.00    +0.000 A 
ATOM      5  C   UNL     1       8.679  52.763  10.996  0.00  0.00    +0.000 A 
ATOM      6  C   UNL     1       8.122  55.101  11.028  0.00  0.00    +0.000 A 
ATOM      7  C   UNL     1       7.922  53.821   8.951  0.00  0.00    +0.000 A 
ATOM      8  C   UNL     1       7.812  55.006   9.666  0.00  0.00    +0.000 A 
ATOM      9  C   UNL     1       8.467  51.505   8.873  0.00  0.00    +0.000 A 
ATOM     10  C   UNL     1       7.714  52.626   7.024  0.00  0.00    +0.000 A 
ATOM     11  N   UNL     1       8.893  50.312   9.512  0.00  0.00    +0.000 N 
ATOM     12  H   UNL     1       9.713  50.479  10.087  0.00  0.00    +0.000 HD
ENDROOT
BRANCH  11  13
ATOM     13  C   UNL     1       8.869  48.997   8.998  0.00  0.00    +0.000 A 
ATOM     14  C   UNL     1       9.850  48.089   9.414  0.00  0.00    +0.000 A 
ATOM     15  C   UNL     1       9.806  46.755   9.017  0.00  0.00    +0.000 A 
ATOM     16 CL   UNL     1      11.057  45.696   9.533  0.00  0.00    +0.000 Cl
ATOM     17  C   UNL     1       8.760  46.304   8.220  0.00  0.00    +0.000 A 
ATOM     18  F   UNL     1       8.700  45.023   7.828  0.00  0.00    +0.000 F 
ATOM     19  C   UNL     1       7.753  47.175   7.826  0.00  0.00    +0.000 A 
ATOM     20  C   UNL     1       7.805  48.507   8.231  0.00  0.00    +0.000 A 
ENDBRANCH  11  13
BRANCH   6  21
ATOM     21  O   UNL     1       8.016  56.258  11.762  0.00  0.00    +0.000 OA
ATOM     22  C   UNL     1       8.950  57.257  11.460  0.00  0.00    +0.000 C 
ENDBRANCH   6  21
BRANCH   3  23
ATOM     23  O   UNL     1       8.851  54.079  13.040  0.00  0.00    +0.000 OA
BRANCH  23  24
ATOM     24  C   UNL     1       7.813  53.904  13.855  0.00  0.00    +0.000 C 
ATOM     25  C   UNL     1       6.624  53.716  14.803  0.00  0.00    +0.000 C 
BRANCH  25  26
ATOM     26  C   UNL     1       5.445  53.557  15.770  0.00  0.00    +0.000 C 
BRANCH  26  27
ATOM     27  N   UNL     1       4.329  53.417  16.695  0.00  0.00    +0.000 N 
ATOM     28  C   UNL     1       4.381  54.600  17.608  0.00  0.00    +0.000 C 
ATOM     29  C   UNL     1       3.410  55.823  17.682  0.00  0.00    +0.000 C 
ATOM     30  O   UNL     1       2.301  56.198  17.007  0.00  0.00    +0.000 OA
ATOM     31  C   UNL     1       2.255  55.132  16.183  0.00  0.00    +0.000 C 
ATOM     32  C   UNL     1       3.103  53.844  15.957  0.00  0.00    +0.000 C 
ENDBRANCH  26  27
ENDBRANCH  25  26
ENDBRANCH  23  24
ENDBRANCH   3  23
TORSDOF 6
ENDMDL
MODEL 6
REMARK VINA RESULT:      -5.0      3.933      6.256
REMARK  Name = Gefitinib.pdbqt.pdb
REMARK  6 active torsions:
REMARK  status: ('A' for Active; 'I' for Inactive)
REMARK    1  A    between atoms: C_3  and  O_11
REMARK    2  A    between atoms: C_6  and  O_21
REMARK    3  A    between atoms: O_11  and  C_12
REMARK    4  A    between atoms: C_13  and  C_14
REMARK    5  A    between atoms: C_14  and  N_15
REMARK    6  A    between atoms: N_23  and  C_25
REMARK                            x       y       z     vdW  Elec       q    Type
REMARK                         _______ _______ _______ _____ _____    ______ ____
ROOT
ATOM      1  N   UNL     1       0.576  49.111  28.467  0.00  0.00    +0.000 NA
ATOM      2  N   UNL     1      -1.744  48.672  28.148  0.00  0.00    +0.000 NA
ATOM      3  C   UNL     1       1.260  45.158  29.569  0.00  0.00    +0.000 A 
ATOM      4  C   UNL     1      -0.281  46.908  28.833  0.00  0.00    +0.000 A 
ATOM      5  C   UNL     1      -0.022  45.581  29.215  0.00  0.00    +0.000 A 
ATOM      6  C   UNL     1       2.306  46.080  29.536  0.00  0.00    +0.000 A 
ATOM      7  C   UNL     1       0.764  47.836  28.809  0.00  0.00    +0.000 A 
ATOM      8  C   UNL     1       2.035  47.401  29.158  0.00  0.00    +0.000 A 
ATOM      9  C   UNL     1      -1.549  47.385  28.476  0.00  0.00    +0.000 A 
ATOM     10  C   UNL     1      -0.674  49.476  28.156  0.00  0.00    +0.000 A 
ATOM     11  N   UNL     1      -2.652  46.493  28.504  0.00  0.00    +0.000 N 
ATOM     12  H   UNL     1      -2.422  45.613  28.052  0.00  0.00    +0.000 HD
ENDROOT
BRANCH  11  13
ATOM     13  C   UNL     1      -4.024  46.805  28.380  0.00  0.00    +0.000 A 
ATOM     14  C   UNL     1      -4.690  46.471  27.195  0.00  0.00    +0.000 A 
ATOM     15  C   UNL     1      -6.063  46.663  27.067  0.00  0.00    +0.000 A 
ATOM     16 CL   UNL     1      -6.820  46.264  25.577  0.00  0.00    +0.000 Cl
ATOM     17  C   UNL     1      -6.794  47.169  28.136  0.00  0.00    +0.000 A 
ATOM     18  F   UNL     1      -8.117  47.362  28.032  0.00  0.00    +0.000 F 
ATOM     19  C   UNL     1      -6.163  47.473  29.336  0.00  0.00    +0.000 A 
ATOM     20  C   UNL     1      -4.790  47.273  29.454  0.00  0.00    +0.000 A 
ENDBRANCH  11  13
BRANCH   6  21
ATOM     21  O   UNL     1       3.553  45.623  29.892  0.00  0.00    +0.000 OA
ATOM     22  C   UNL     1       4.574  45.855  28.962  0.00  0.00    +0.000 C 
ENDBRANCH   6  21
BRANCH   3  23
ATOM     23  O   UNL     1       1.552  43.870  29.947  0.00  0.00    +0.000 OA
BRANCH  23  24
ATOM     24  C   UNL     1       0.874  43.435  31.007  0.00  0.00    +0.000 C 
ATOM     25  C   UNL     1       0.087  42.949  32.229  0.00  0.00    +0.000 C 
BRANCH  25  26
ATOM     26  C   UNL     1      -0.717  42.495  33.452  0.00  0.00    +0.000 C 
BRANCH  26  27
ATOM     27  N   UNL     1      -1.469  42.066  34.623  0.00  0.00    +0.000 N 
ATOM     28  C   UNL     1      -0.533  41.254  35.458  0.00  0.00    +0.000 C 
ATOM     29  C   UNL     1       0.108  41.609  36.840  0.00  0.00    +0.000 C 
ATOM     30  O   UNL     1       0.046  42.674  37.669  0.00  0.00    +0.000 OA
ATOM     31  C   UNL     1      -0.797  43.407  36.915  0.00  0.00    +0.000 C 
ATOM     32  C   UNL     1      -1.527  43.236  35.549  0.00  0.00    +0.000 C 
ENDBRANCH  26  27
ENDBRANCH  25  26
ENDBRANCH  23  24
ENDBRANCH   3  23
TORSDOF 6
ENDMDL
MODEL 7
REMARK VINA RESULT:      -5.0     26.514     27.716
REMARK  Name = Gefitinib.pdbqt.pdb
REMARK  6 active torsions:
REMARK  status: ('A' for Active; 'I' for Inactive)
REMARK    1  A    between atoms: C_3  and  O_11
REMARK    2  A    between atoms: C_6  and  O_21
REMARK    3  A    between atoms: O_11  and  C_12
REMARK    4  A    between atoms: C_13  and  C_14
REMARK    5  A    between atoms: C_14  and  N_15
REMARK    6  A    between atoms: N_23  and  C_25
REMARK                            x       y       z     vdW  Elec       q    Type
REMARK                         _______ _______ _______ _____ _____    ______ ____
ROOT
ATOM      1  N   UNL     1     -27.710  42.886  19.191  0.00  0.00    +0.000 NA
ATOM      2  N   UNL     1     -26.554  40.807  19.057  0.00  0.00    +0.000 NA
ATOM      3  C   UNL     1     -27.470  42.850  23.343  0.00  0.00    +0.000 A 
ATOM      4  C   UNL     1     -26.976  41.801  21.191  0.00  0.00    +0.000 A 
ATOM      5  C   UNL     1     -26.915  41.811  22.596  0.00  0.00    +0.000 A 
ATOM      6  C   UNL     1     -28.096  43.903  22.675  0.00  0.00    +0.000 A 
ATOM      7  C   UNL     1     -27.611  42.848  20.519  0.00  0.00    +0.000 A 
ATOM      8  C   UNL     1     -28.154  43.878  21.276  0.00  0.00    +0.000 A 
ATOM      9  C   UNL     1     -26.440  40.780  20.395  0.00  0.00    +0.000 A 
ATOM     10  C   UNL     1     -27.180  41.858  18.516  0.00  0.00    +0.000 A 
ATOM     11  N   UNL     1     -25.804  39.679  21.023  0.00  0.00    +0.000 N 
ATOM     12  H   UNL     1     -25.161  39.992  21.745  0.00  0.00    +0.000 HD
ENDROOT
BRANCH  11  13
ATOM     13  C   UNL     1     -25.383  38.467  20.433  0.00  0.00    +0.000 A 
ATOM     14  C   UNL     1     -24.096  38.391  19.886  0.00  0.00    +0.000 A 
ATOM     15  C   UNL     1     -23.600  37.189  19.388  0.00  0.00    +0.000 A 
ATOM     16 CL   UNL     1     -22.026  37.165  18.700  0.00  0.00    +0.000 Cl
ATOM     17  C   UNL     1     -24.377  36.038  19.456  0.00  0.00    +0.000 A 
ATOM     18  F   UNL     1     -23.917  34.871  18.981  0.00  0.00    +0.000 F 
ATOM     19  C   UNL     1     -25.642  36.078  20.028  0.00  0.00    +0.000 A 
ATOM     20  C   UNL     1     -26.127  37.285  20.527  0.00  0.00    +0.000 A 
ENDBRANCH  11  13
BRANCH   6  21
ATOM     21  O   UNL     1     -28.631  44.905  23.449  0.00  0.00    +0.000 OA
ATOM     22  C   UNL     1     -29.370  45.875  22.761  0.00  0.00    +0.000 C 
ENDBRANCH   6  21
BRANCH   3  23
ATOM     23  O   UNL     1     -27.431  42.896  24.716  0.00  0.00    +0.000 OA
BRANCH  23  24
ATOM     24  C   UNL     1     -27.757  41.756  25.321  0.00  0.00    +0.000 C 
ATOM     25  C   UNL     1     -28.148  40.450  26.020  0.00  0.00    +0.000 C 
BRANCH  25  26
ATOM     26  C   UNL     1     -28.572  39.156  26.724  0.00  0.00    +0.000 C 
BRANCH  26  27
ATOM     27  N   UNL     1     -28.971  37.932  27.405  0.00  0.00    +0.000 N 
ATOM     28  C   UNL     1     -29.051  36.867  26.359  0.00  0.00    +0.000 C 
ATOM     29  C   UNL     1     -28.111  35.636  26.140  0.00  0.00    +0.000 C 
ATOM     30  O   UNL     1     -27.007  35.163  26.758  0.00  0.00    +0.000 OA
ATOM     31  C   UNL     1     -26.934  36.124  27.701  0.00  0.00    +0.000 C 
ATOM     32  C   UNL     1     -27.749  37.398  28.078  0.00  0.00    +0.000 C 
ENDBRANCH  26  27
ENDBRANCH  25  26
ENDBRANCH  23  24
ENDBRANCH   3  23
TORSDOF 6
ENDMDL
MODEL 8
REMARK VINA RESULT:      -4.9     28.355     30.963
REMARK  Name = Gefitinib.pdbqt.pdb
REMARK  6 active torsions:
REMARK  status: ('A' for Active; 'I' for Inactive)
REMARK    1  A    between atoms: C_3  and  O_11
REMARK    2  A    between atoms: C_6  and  O_21
REMARK    3  A    between atoms: O_11  and  C_12
REMARK    4  A    between atoms: C_13  and  C_14
REMARK    5  A    between atoms: C_14  and  N_15
REMARK    6  A    between atoms: N_23  and  C_25
REMARK                            x       y       z     vdW  Elec       q    Type
REMARK                         _______ _______ _______ _____ _____    ______ ____
ROOT
ATOM      1  N   UNL     1     -22.174  38.466   5.518  0.00  0.00    +0.000 NA
ATOM      2  N   UNL     1     -20.082  39.605   5.484  0.00  0.00    +0.000 NA
ATOM      3  C   UNL     1     -20.432  35.141   7.311  0.00  0.00    +0.000 A 
ATOM      4  C   UNL     1     -20.226  37.404   6.411  0.00  0.00    +0.000 A 
ATOM      5  C   UNL     1     -19.662  36.265   7.011  0.00  0.00    +0.000 A 
ATOM      6  C   UNL     1     -21.794  35.156   7.009  0.00  0.00    +0.000 A 
ATOM      7  C   UNL     1     -21.587  37.419   6.098  0.00  0.00    +0.000 A 
ATOM      8  C   UNL     1     -22.343  36.295   6.407  0.00  0.00    +0.000 A 
ATOM      9  C   UNL     1     -19.497  38.556   6.084  0.00  0.00    +0.000 A 
ATOM     10  C   UNL     1     -21.392  39.514   5.230  0.00  0.00    +0.000 A 
ATOM     11  N   UNL     1     -18.105  38.589   6.358  0.00  0.00    +0.000 N 
ATOM     12  H   UNL     1     -17.909  38.254   7.296  0.00  0.00    +0.000 HD
ENDROOT
BRANCH  11  13
ATOM     13  C   UNL     1     -17.161  39.550   5.934  0.00  0.00    +0.000 A 
ATOM     14  C   UNL     1     -17.584  40.868   5.722  0.00  0.00    +0.000 A 
ATOM     15  C   UNL     1     -16.671  41.870   5.405  0.00  0.00    +0.000 A 
ATOM     16 CL   UNL     1     -17.253  43.462   5.123  0.00  0.00    +0.000 Cl
ATOM     17  C   UNL     1     -15.315  41.572   5.325  0.00  0.00    +0.000 A 
ATOM     18  F   UNL     1     -14.421  42.524   5.021  0.00  0.00    +0.000 F 
ATOM     19  C   UNL     1     -14.865  40.281   5.569  0.00  0.00    +0.000 A 
ATOM     20  C   UNL     1     -15.787  39.286   5.888  0.00  0.00    +0.000 A 
ENDBRANCH  11  13
BRANCH   6  21
ATOM     21  O   UNL     1     -22.516  34.027   7.320  0.00  0.00    +0.000 OA
ATOM     22  C   UNL     1     -22.912  33.241   6.231  0.00  0.00    +0.000 C 
ENDBRANCH   6  21
BRANCH   3  23
ATOM     23  O   UNL     1     -19.918  34.009   7.897  0.00  0.00    +0.000 OA
BRANCH  23  24
ATOM     24  C   UNL     1     -19.015  33.364   7.163  0.00  0.00    +0.000 C 
ATOM     25  C   UNL     1     -17.987  32.612   6.310  0.00  0.00    +0.000 C 
BRANCH  25  26
ATOM     26  C   UNL     1     -16.987  31.845   5.438  0.00  0.00    +0.000 C 
BRANCH  26  27
ATOM     27  N   UNL     1     -16.035  31.129   4.601  0.00  0.00    +0.000 N 
ATOM     28  C   UNL     1     -14.912  32.076   4.324  0.00  0.00    +0.000 C 
ATOM     29  C   UNL     1     -13.442  32.036   4.856  0.00  0.00    +0.000 C 
ATOM     30  O   UNL     1     -12.751  31.215   5.677  0.00  0.00    +0.000 OA
ATOM     31  C   UNL     1     -13.764  30.361   5.928  0.00  0.00    +0.000 C 
ATOM     32  C   UNL     1     -15.259  30.230   5.507  0.00  0.00    +0.000 C 
ENDBRANCH  26  27
ENDBRANCH  25  26
ENDBRANCH  23  24
ENDBRANCH   3  23
TORSDOF 6
ENDMDL
MODEL 9
REMARK VINA RESULT:      -4.8      7.984     10.645
REMARK  Name = Gefitinib.pdbqt.pdb
REMARK  6 active torsions:
REMARK  status: ('A' for Active; 'I' for Inactive)
REMARK    1  A    between atoms: C_3  and  O_11
REMARK    2  A    between atoms: C_6  and  O_21
REMARK    3  A    between atoms: O_11  and  C_12
REMARK    4  A    between atoms: C_13  and  C_14
REMARK    5  A    between atoms: C_14  and  N_15
REMARK    6  A    between atoms: N_23  and  C_25
REMARK                            x       y       z     vdW  Elec       q    Type
REMARK                         _______ _______ _______ _____ _____    ______ ____
ROOT
ATOM      1  N   UNL     1      -7.506  51.417  31.919  0.00  0.00    +0.000 NA
ATOM      2  N   UNL     1      -7.905  51.004  29.606  0.00  0.00    +0.000 NA
ATOM      3  C   UNL     1      -8.139  47.408  32.831  0.00  0.00    +0.000 A 
ATOM      4  C   UNL     1      -8.010  49.201  31.174  0.00  0.00    +0.000 A 
ATOM      5  C   UNL     1      -8.225  47.853  31.512  0.00  0.00    +0.000 A 
ATOM      6  C   UNL     1      -7.827  48.327  33.834  0.00  0.00    +0.000 A 
ATOM      7  C   UNL     1      -7.708  50.125  32.178  0.00  0.00    +0.000 A 
ATOM      8  C   UNL     1      -7.620  49.667  33.486  0.00  0.00    +0.000 A 
ATOM      9  C   UNL     1      -8.090  49.700  29.867  0.00  0.00    +0.000 A 
ATOM     10  C   UNL     1      -7.619  51.802  30.642  0.00  0.00    +0.000 A 
ATOM     11  N   UNL     1      -8.416  48.812  28.810  0.00  0.00    +0.000 N 
ATOM     12  H   UNL     1      -7.871  47.957  28.871  0.00  0.00    +0.000 HD
ENDROOT
BRANCH  11  13
ATOM     13  C   UNL     1      -8.742  49.135  27.475  0.00  0.00    +0.000 A 
ATOM     14  C   UNL     1      -7.772  48.962  26.480  0.00  0.00    +0.000 A 
ATOM     15  C   UNL     1      -8.079  49.168  25.137  0.00  0.00    +0.000 A 
ATOM     16 CL   UNL     1      -6.839  48.972  23.965  0.00  0.00    +0.000 Cl
ATOM     17  C   UNL     1      -9.372  49.522  24.769  0.00  0.00    +0.000 A 
ATOM     18  F   UNL     1      -9.687  49.724  23.481  0.00  0.00    +0.000 F 
ATOM     19  C   UNL     1     -10.362  49.662  25.733  0.00  0.00    +0.000 A 
ATOM     20  C   UNL     1     -10.045  49.451  27.073  0.00  0.00    +0.000 A 
ENDBRANCH  11  13
BRANCH   6  21
ATOM     21  O   UNL     1      -7.754  47.846  35.121  0.00  0.00    +0.000 OA
ATOM     22  C   UNL     1      -6.515  47.999  35.755  0.00  0.00    +0.000 C 
ENDBRANCH   6  21
BRANCH   3  23
ATOM     23  O   UNL     1      -8.342  46.100  33.201  0.00  0.00    +0.000 OA
BRANCH  23  24
ATOM     24  C   UNL     1      -9.577  45.824  33.614  0.00  0.00    +0.000 C 
ATOM     25  C   UNL     1     -10.992  45.501  34.106  0.00  0.00    +0.000 C 
BRANCH  25  26
ATOM     26  C   UNL     1     -12.394  45.169  34.629  0.00  0.00    +0.000 C 
BRANCH  26  27
ATOM     27  N   UNL     1     -13.730  44.868  35.124  0.00  0.00    +0.000 N 
ATOM     28  C   UNL     1     -14.493  44.296  33.974  0.00  0.00    +0.000 C 
ATOM     29  C   UNL     1     -14.978  42.825  33.754  0.00  0.00    +0.000 C 
ATOM     30  O   UNL     1     -14.877  41.677  34.458  0.00  0.00    +0.000 OA
ATOM     31  C   UNL     1     -14.188  42.193  35.496  0.00  0.00    +0.000 C 
ATOM     32  C   UNL     1     -13.625  43.591  35.892  0.00  0.00    +0.000 C 
ENDBRANCH  26  27
ENDBRANCH  25  26
ENDBRANCH  23  24
ENDBRANCH   3  23
TORSDOF 6
ENDMDL
