MODEL 1
REMARK VINA RESULT:      -6.6      0.000      0.000
REMARK  Name = Genistein.pdbqt.pdb
REMARK  4 active torsions:
REMARK  status: ('A' for Active; 'I' for Inactive)
REMARK    1  A    between atoms: C_4  and  C_12
REMARK    2  A    between atoms: C_7  and  O_20
REMARK    3  A    between atoms: C_11  and  O_22
REMARK    4  A    between atoms: C_17  and  O_18
REMARK                            x       y       z     vdW  Elec       q    Type
REMARK                         _______ _______ _______ _____ _____    ______ ____
ROOT
ATOM      1  O   UNL     1      -4.532  45.764  25.435  0.00  0.00    +0.000 OA
ATOM      2  O   UNL     1      -5.730  49.598  26.605  0.00  0.00    +0.000 OA
ATOM      3  C   UNL     1      -4.040  47.926  26.551  0.00  0.00    +0.000 A 
ATOM      4  C   UNL     1      -6.317  47.536  25.494  0.00  0.00    +0.000 A 
ATOM      5  C   UNL     1      -3.675  46.612  26.133  0.00  0.00    +0.000 A 
ATOM      6  C   UNL     1      -5.416  48.470  26.245  0.00  0.00    +0.000 A 
ATOM      7  C   UNL     1      -3.111  48.705  27.246  0.00  0.00    +0.000 A 
ATOM      8  C   UNL     1      -5.658  46.440  25.285  0.00  0.00    +0.000 A 
ATOM      9  C   UNL     1      -2.407  46.111  26.415  0.00  0.00    +0.000 A 
ATOM     10  C   UNL     1      -1.844  48.197  27.525  0.00  0.00    +0.000 A 
ATOM     11  C   UNL     1      -1.504  46.911  27.109  0.00  0.00    +0.000 A 
ENDROOT
BRANCH   4  12
ATOM     12  C   UNL     1      -7.691  47.796  25.069  0.00  0.00    +0.000 A 
ATOM     13  C   UNL     1      -8.008  48.919  24.299  0.00  0.00    +0.000 A 
ATOM     14  C   UNL     1      -8.723  46.920  25.424  0.00  0.00    +0.000 A 
ATOM     15  C   UNL     1      -9.318  49.167  23.893  0.00  0.00    +0.000 A 
ATOM     16  C   UNL     1     -10.038  47.157  25.025  0.00  0.00    +0.000 A 
ATOM     17  C   UNL     1     -10.324  48.281  24.261  0.00  0.00    +0.000 A 
BRANCH  17  18
ATOM     18  O   UNL     1     -11.616  48.495  23.879  0.00  0.00    +0.000 OA
ATOM     19  H   UNL     1     -12.199  48.202  24.602  0.00  0.00    +0.000 HD
ENDBRANCH  17  18
ENDBRANCH   4  12
BRANCH   7  20
ATOM     20  O   UNL     1      -3.372  49.975  27.686  0.00  0.00    +0.000 OA
ATOM     21  H   UNL     1      -4.327  50.038  27.918  0.00  0.00    +0.000 HD
ENDBRANCH   7  20
BRANCH  11  22
ATOM     22  O   UNL     1      -0.266  46.403  27.376  0.00  0.00    +0.000 OA
ATOM     23  H   UNL     1       0.088  46.017  26.555  0.00  0.00    +0.000 HD
ENDBRANCH  11  22
TORSDOF 4
ENDMDL
MODEL 2
REMARK VINA RESULT:      -6.2     23.860     25.176
REMARK  Name = Genistein.pdbqt.pdb
REMARK  4 active torsions:
REMARK  status: ('A' for Active; 'I' for Inactive)
REMARK    1  A    between atoms: C_4  and  C_12
REMARK    2  A    between atoms: C_7  and  O_20
REMARK    3  A    between atoms: C_11  and  O_22
REMARK    4  A    between atoms: C_17  and  O_18
REMARK                            x       y       z     vdW  Elec       q    Type
REMARK                         _______ _______ _______ _____ _____    ______ ____
ROOT
ATOM      1  O   UNL     1     -15.240  39.536   5.572  0.00  0.00    +0.000 OA
ATOM      2  O   UNL     1     -19.316  39.080   6.397  0.00  0.00    +0.000 OA
ATOM      3  C   UNL     1     -17.510  40.512   5.814  0.00  0.00    +0.000 A 
ATOM      4  C   UNL     1     -17.154  38.024   6.188  0.00  0.00    +0.000 A 
ATOM      5  C   UNL     1     -16.114  40.621   5.540  0.00  0.00    +0.000 A 
ATOM      6  C   UNL     1     -18.117  39.173   6.162  0.00  0.00    +0.000 A 
ATOM      7  C   UNL     1     -18.309  41.657   5.758  0.00  0.00    +0.000 A 
ATOM      8  C   UNL     1     -15.982  38.490   5.892  0.00  0.00    +0.000 A 
ATOM      9  C   UNL     1     -15.554  41.855   5.221  0.00  0.00    +0.000 A 
ATOM     10  C   UNL     1     -17.741  42.889   5.438  0.00  0.00    +0.000 A 
ATOM     11  C   UNL     1     -16.376  42.977   5.173  0.00  0.00    +0.000 A 
ENDROOT
BRANCH   4  12
ATOM     12  C   UNL     1     -17.462  36.628   6.491  0.00  0.00    +0.000 A 
ATOM     13  C   UNL     1     -17.082  35.599   5.625  0.00  0.00    +0.000 A 
ATOM     14  C   UNL     1     -18.149  36.290   7.663  0.00  0.00    +0.000 A 
ATOM     15  C   UNL     1     -17.375  34.268   5.914  0.00  0.00    +0.000 A 
ATOM     16  C   UNL     1     -18.449  34.962   7.964  0.00  0.00    +0.000 A 
ATOM     17  C   UNL     1     -18.058  33.961   7.085  0.00  0.00    +0.000 A 
BRANCH  17  18
ATOM     18  O   UNL     1     -18.361  32.668   7.397  0.00  0.00    +0.000 OA
ATOM     19  H   UNL     1     -18.723  32.239   6.602  0.00  0.00    +0.000 HD
ENDBRANCH  17  18
ENDBRANCH   4  12
BRANCH   7  20
ATOM     20  O   UNL     1     -19.655  41.649   6.005  0.00  0.00    +0.000 OA
ATOM     21  H   UNL     1     -20.067  42.410   5.536  0.00  0.00    +0.000 HD
ENDBRANCH   7  20
BRANCH  11  22
ATOM     22  O   UNL     1     -15.809  44.178   4.858  0.00  0.00    +0.000 OA
ATOM     23  H   UNL     1     -16.515  44.846   4.819  0.00  0.00    +0.000 HD
ENDBRANCH  11  22
TORSDOF 4
ENDMDL
MODEL 3
REMARK VINA RESULT:      -6.2      1.818      7.046
REMARK  Name = Genistein.pdbqt.pdb
REMARK  4 active torsions:
REMARK  status: ('A' for Active; 'I' for Inactive)
REMARK    1  A    between atoms: C_4  and  C_12
REMARK    2  A    between atoms: C_7  and  O_20
REMARK    3  A    between atoms: C_11  and  O_22
REMARK    4  A    between atoms: C_17  and  O_18
REMARK                            x       y       z     vdW  Elec       q    Type
REMARK                         _______ _______ _______ _____ _____    ______ ____
ROOT
ATOM      1  O   UNL     1      -8.846  46.840  26.992  0.00  0.00    +0.000 OA
ATOM      2  O   UNL     1      -6.738  48.855  23.991  0.00  0.00    +0.000 OA
ATOM      3  C   UNL     1      -8.816  48.383  25.048  0.00  0.00    +0.000 A 
ATOM      4  C   UNL     1      -6.650  47.342  25.872  0.00  0.00    +0.000 A 
ATOM      5  C   UNL     1      -9.493  47.677  26.085  0.00  0.00    +0.000 A 
ATOM      6  C   UNL     1      -7.320  48.249  24.883  0.00  0.00    +0.000 A 
ATOM      7  C   UNL     1      -9.551  49.201  24.185  0.00  0.00    +0.000 A 
ATOM      8  C   UNL     1      -7.567  46.877  26.660  0.00  0.00    +0.000 A 
ATOM      9  C   UNL     1     -10.872  47.801  26.236  0.00  0.00    +0.000 A 
ATOM     10  C   UNL     1     -10.930  49.320  24.342  0.00  0.00    +0.000 A 
ATOM     11  C   UNL     1     -11.576  48.623  25.362  0.00  0.00    +0.000 A 
ENDROOT
BRANCH   4  12
ATOM     12  C   UNL     1      -5.225  47.028  25.947  0.00  0.00    +0.000 A 
ATOM     13  C   UNL     1      -4.712  45.856  25.385  0.00  0.00    +0.000 A 
ATOM     14  C   UNL     1      -4.337  47.901  26.587  0.00  0.00    +0.000 A 
ATOM     15  C   UNL     1      -3.354  45.556  25.455  0.00  0.00    +0.000 A 
ATOM     16  C   UNL     1      -2.974  47.613  26.665  0.00  0.00    +0.000 A 
ATOM     17  C   UNL     1      -2.494  46.441  26.097  0.00  0.00    +0.000 A 
BRANCH  17  18
ATOM     18  O   UNL     1      -1.159  46.177  26.183  0.00  0.00    +0.000 OA
ATOM     19  H   UNL     1      -1.046  45.223  26.344  0.00  0.00    +0.000 HD
ENDBRANCH  17  18
ENDBRANCH   4  12
BRANCH   7  20
ATOM     20  O   UNL     1      -8.987  49.916  23.163  0.00  0.00    +0.000 OA
ATOM     21  H   UNL     1      -8.034  49.679  23.100  0.00  0.00    +0.000 HD
ENDBRANCH   7  20
BRANCH  11  22
ATOM     22  O   UNL     1     -12.926  48.731  25.526  0.00  0.00    +0.000 OA
ATOM     23  H   UNL     1     -13.094  49.321  26.282  0.00  0.00    +0.000 HD
ENDBRANCH  11  22
TORSDOF 4
ENDMDL
MODEL 4
REMARK VINA RESULT:      -6.0     23.907     25.402
REMARK  Name = Genistein.pdbqt.pdb
REMARK  4 active torsions:
REMARK  status: ('A' for Active; 'I' for Inactive)
REMARK    1  A    between atoms: C_4  and  C_12
REMARK    2  A    between atoms: C_7  and  O_20
REMARK    3  A    between atoms: C_11  and  O_22
REMARK    4  A    between atoms: C_17  and  O_18
REMARK                            x       y       z     vdW  Elec       q    Type
REMARK                         _______ _______ _______ _____ _____    ______ ____
ROOT
ATOM      1  O   UNL     1     -16.629  36.853   6.981  0.00  0.00    +0.000 OA
ATOM      2  O   UNL     1     -19.869  39.347   6.094  0.00  0.00    +0.000 OA
ATOM      3  C   UNL     1     -19.078  37.218   6.799  0.00  0.00    +0.000 A 
ATOM      4  C   UNL     1     -17.470  39.103   6.235  0.00  0.00    +0.000 A 
ATOM      5  C   UNL     1     -17.944  36.404   7.090  0.00  0.00    +0.000 A 
ATOM      6  C   UNL     1     -18.895  38.647   6.344  0.00  0.00    +0.000 A 
ATOM      7  C   UNL     1     -20.360  36.680   6.939  0.00  0.00    +0.000 A 
ATOM      8  C   UNL     1     -16.714  38.108   6.574  0.00  0.00    +0.000 A 
ATOM      9  C   UNL     1     -18.112  35.086   7.508  0.00  0.00    +0.000 A 
ATOM     10  C   UNL     1     -20.521  35.360   7.358  0.00  0.00    +0.000 A 
ATOM     11  C   UNL     1     -19.401  34.579   7.638  0.00  0.00    +0.000 A 
ENDROOT
BRANCH   4  12
ATOM     12  C   UNL     1     -17.002  40.425   5.822  0.00  0.00    +0.000 A 
ATOM     13  C   UNL     1     -15.671  40.637   5.454  0.00  0.00    +0.000 A 
ATOM     14  C   UNL     1     -17.884  41.512   5.785  0.00  0.00    +0.000 A 
ATOM     15  C   UNL     1     -15.225  41.896   5.059  0.00  0.00    +0.000 A 
ATOM     16  C   UNL     1     -17.450  42.777   5.392  0.00  0.00    +0.000 A 
ATOM     17  C   UNL     1     -16.121  42.958   5.032  0.00  0.00    +0.000 A 
BRANCH  17  18
ATOM     18  O   UNL     1     -15.716  44.204   4.650  0.00  0.00    +0.000 OA
ATOM     19  H   UNL     1     -15.498  44.712   5.451  0.00  0.00    +0.000 HD
ENDBRANCH  17  18
ENDBRANCH   4  12
BRANCH   7  20
ATOM     20  O   UNL     1     -21.505  37.385   6.682  0.00  0.00    +0.000 OA
ATOM     21  H   UNL     1     -22.159  36.781   6.262  0.00  0.00    +0.000 HD
ENDBRANCH   7  20
BRANCH  11  22
ATOM     22  O   UNL     1     -19.547  33.286   8.050  0.00  0.00    +0.000 OA
ATOM     23  H   UNL     1     -20.497  33.106   8.157  0.00  0.00    +0.000 HD
ENDBRANCH  11  22
TORSDOF 4
ENDMDL
MODEL 5
REMARK VINA RESULT:      -5.8     23.716     25.372
REMARK  Name = Genistein.pdbqt.pdb
REMARK  4 active torsions:
REMARK  status: ('A' for Active; 'I' for Inactive)
REMARK    1  A    between atoms: C_4  and  C_12
REMARK    2  A    between atoms: C_7  and  O_20
REMARK    3  A    between atoms: C_11  and  O_22
REMARK    4  A    between atoms: C_17  and  O_18
REMARK                            x       y       z     vdW  Elec       q    Type
REMARK                         _______ _______ _______ _____ _____    ______ ____
ROOT
ATOM      1  O   UNL     1     -19.193  39.632   5.880  0.00  0.00    +0.000 OA
ATOM      2  O   UNL     1     -15.398  37.888   6.119  0.00  0.00    +0.000 OA
ATOM      3  C   UNL     1     -16.721  39.837   5.797  0.00  0.00    +0.000 A 
ATOM      4  C   UNL     1     -17.790  37.572   6.220  0.00  0.00    +0.000 A 
ATOM      5  C   UNL     1     -18.034  40.389   5.723  0.00  0.00    +0.000 A 
ATOM      6  C   UNL     1     -16.526  38.362   6.056  0.00  0.00    +0.000 A 
ATOM      7  C   UNL     1     -15.616  40.677   5.627  0.00  0.00    +0.000 A 
ATOM      8  C   UNL     1     -18.784  38.393   6.092  0.00  0.00    +0.000 A 
ATOM      9  C   UNL     1     -18.213  41.749   5.484  0.00  0.00    +0.000 A 
ATOM     10  C   UNL     1     -15.804  42.037   5.388  0.00  0.00    +0.000 A 
ATOM     11  C   UNL     1     -17.094  42.559   5.319  0.00  0.00    +0.000 A 
ENDROOT
BRANCH   4  12
ATOM     12  C   UNL     1     -17.900  36.137   6.477  0.00  0.00    +0.000 A 
ATOM     13  C   UNL     1     -17.542  35.200   5.504  0.00  0.00    +0.000 A 
ATOM     14  C   UNL     1     -18.368  35.669   7.710  0.00  0.00    +0.000 A 
ATOM     15  C   UNL     1     -17.645  33.832   5.748  0.00  0.00    +0.000 A 
ATOM     16  C   UNL     1     -18.478  34.303   7.967  0.00  0.00    +0.000 A 
ATOM     17  C   UNL     1     -18.114  33.395   6.982  0.00  0.00    +0.000 A 
BRANCH  17  18
ATOM     18  O   UNL     1     -18.228  32.063   7.253  0.00  0.00    +0.000 OA
ATOM     19  H   UNL     1     -18.697  31.640   6.511  0.00  0.00    +0.000 HD
ENDBRANCH  17  18
ENDBRANCH   4  12
BRANCH   7  20
ATOM     20  O   UNL     1     -14.321  40.237   5.681  0.00  0.00    +0.000 OA
ATOM     21  H   UNL     1     -13.827  40.617   4.920  0.00  0.00    +0.000 HD
ENDBRANCH   7  20
BRANCH  11  22
ATOM     22  O   UNL     1     -17.290  43.889   5.086  0.00  0.00    +0.000 OA
ATOM     23  H   UNL     1     -16.690  44.164   4.370  0.00  0.00    +0.000 HD
ENDBRANCH  11  22
TORSDOF 4
ENDMDL
MODEL 6
REMARK VINA RESULT:      -5.7      3.008      7.751
REMARK  Name = Genistein.pdbqt.pdb
REMARK  4 active torsions:
REMARK  status: ('A' for Active; 'I' for Inactive)
REMARK    1  A    between atoms: C_4  and  C_12
REMARK    2  A    between atoms: C_7  and  O_20
REMARK    3  A    between atoms: C_11  and  O_22
REMARK    4  A    between atoms: C_17  and  O_18
REMARK                            x       y       z     vdW  Elec       q    Type
REMARK                         _______ _______ _______ _____ _____    ______ ____
ROOT
ATOM      1  O   UNL     1      -9.995  49.197  28.339  0.00  0.00    +0.000 OA
ATOM      2  O   UNL     1      -9.708  47.306  24.618  0.00  0.00    +0.000 OA
ATOM      3  C   UNL     1     -10.892  48.777  26.063  0.00  0.00    +0.000 A 
ATOM      4  C   UNL     1      -8.744  47.642  26.807  0.00  0.00    +0.000 A 
ATOM      5  C   UNL     1     -10.950  49.400  27.344  0.00  0.00    +0.000 A 
ATOM      6  C   UNL     1      -9.757  47.841  25.719  0.00  0.00    +0.000 A 
ATOM      7  C   UNL     1     -11.897  49.042  25.128  0.00  0.00    +0.000 A 
ATOM      8  C   UNL     1      -9.115  48.357  27.822  0.00  0.00    +0.000 A 
ATOM      9  C   UNL     1     -11.997  50.262  27.661  0.00  0.00    +0.000 A 
ATOM     10  C   UNL     1     -12.942  49.905  25.452  0.00  0.00    +0.000 A 
ATOM     11  C   UNL     1     -12.982  50.505  26.709  0.00  0.00    +0.000 A 
ENDROOT
BRANCH   4  12
ATOM     12  C   UNL     1      -7.553  46.798  26.751  0.00  0.00    +0.000 A 
ATOM     13  C   UNL     1      -6.764  46.736  25.599  0.00  0.00    +0.000 A 
ATOM     14  C   UNL     1      -7.173  46.030  27.858  0.00  0.00    +0.000 A 
ATOM     15  C   UNL     1      -5.628  45.932  25.546  0.00  0.00    +0.000 A 
ATOM     16  C   UNL     1      -6.038  45.220  27.818  0.00  0.00    +0.000 A 
ATOM     17  C   UNL     1      -5.274  45.179  26.659  0.00  0.00    +0.000 A 
BRANCH  17  18
ATOM     18  O   UNL     1      -4.167  44.382  26.640  0.00  0.00    +0.000 OA
ATOM     19  H   UNL     1      -3.761  44.447  25.757  0.00  0.00    +0.000 HD
ENDBRANCH  17  18
ENDBRANCH   4  12
BRANCH   7  20
ATOM     20  O   UNL     1     -11.925  48.490  23.875  0.00  0.00    +0.000 OA
ATOM     21  H   UNL     1     -12.774  48.005  23.762  0.00  0.00    +0.000 HD
ENDBRANCH   7  20
BRANCH  11  22
ATOM     22  O   UNL     1     -14.000  51.353  27.038  0.00  0.00    +0.000 OA
ATOM     23  H   UNL     1     -13.815  51.722  27.920  0.00  0.00    +0.000 HD
ENDBRANCH  11  22
TORSDOF 4
ENDMDL
MODEL 7
REMARK VINA RESULT:      -5.6     23.502     25.659
REMARK  Name = Genistein.pdbqt.pdb
REMARK  4 active torsions:
REMARK  status: ('A' for Active; 'I' for Inactive)
REMARK    1  A    between atoms: C_4  and  C_12
REMARK    2  A    between atoms: C_7  and  O_20
REMARK    3  A    between atoms: C_11  and  O_22
REMARK    4  A    between atoms: C_17  and  O_18
REMARK                            x       y       z     vdW  Elec       q    Type
REMARK                         _______ _______ _______ _____ _____    ______ ____
ROOT
ATOM      1  O   UNL     1     -20.465  38.495   6.916  0.00  0.00    +0.000 OA
ATOM      2  O   UNL     1     -16.510  37.796   5.744  0.00  0.00    +0.000 OA
ATOM      3  C   UNL     1     -18.580  36.928   6.528  0.00  0.00    +0.000 A 
ATOM      4  C   UNL     1     -18.274  39.411   6.087  0.00  0.00    +0.000 A 
ATOM      5  C   UNL     1     -19.922  37.212   6.919  0.00  0.00    +0.000 A 
ATOM      6  C   UNL     1     -17.663  38.041   6.080  0.00  0.00    +0.000 A 
ATOM      7  C   UNL     1     -18.123  35.607   6.563  0.00  0.00    +0.000 A 
ATOM      8  C   UNL     1     -19.497  39.291   6.496  0.00  0.00    +0.000 A 
ATOM      9  C   UNL     1     -20.767  36.186   7.333  0.00  0.00    +0.000 A 
ATOM     10  C   UNL     1     -18.975  34.585   6.978  0.00  0.00    +0.000 A 
ATOM     11  C   UNL     1     -20.283  34.882   7.357  0.00  0.00    +0.000 A 
ENDROOT
BRANCH   4  12
ATOM     12  C   UNL     1     -17.622  40.663   5.706  0.00  0.00    +0.000 A 
ATOM     13  C   UNL     1     -18.240  41.562   4.832  0.00  0.00    +0.000 A 
ATOM     14  C   UNL     1     -16.359  40.990   6.213  0.00  0.00    +0.000 A 
ATOM     15  C   UNL     1     -17.620  42.755   4.469  0.00  0.00    +0.000 A 
ATOM     16  C   UNL     1     -15.728  42.182   5.857  0.00  0.00    +0.000 A 
ATOM     17  C   UNL     1     -16.366  43.055   4.987  0.00  0.00    +0.000 A 
BRANCH  17  18
ATOM     18  O   UNL     1     -15.732  44.216   4.652  0.00  0.00    +0.000 OA
ATOM     19  H   UNL     1     -15.352  44.109   3.762  0.00  0.00    +0.000 HD
ENDBRANCH  17  18
ENDBRANCH   4  12
BRANCH   7  20
ATOM     20  O   UNL     1     -16.854  35.240   6.207  0.00  0.00    +0.000 OA
ATOM     21  H   UNL     1     -16.903  34.415   5.671  0.00  0.00    +0.000 HD
ENDBRANCH   7  20
BRANCH  11  22
ATOM     22  O   UNL     1     -21.126  33.889   7.764  0.00  0.00    +0.000 OA
ATOM     23  H   UNL     1     -21.578  34.187   8.574  0.00  0.00    +0.000 HD
ENDBRANCH  11  22
TORSDOF 4
ENDMDL
MODEL 8
REMARK VINA RESULT:      -5.6      2.721      4.915
REMARK  Name = Genistein.pdbqt.pdb
REMARK  4 active torsions:
REMARK  status: ('A' for Active; 'I' for Inactive)
REMARK    1  A    between atoms: C_4  and  C_12
REMARK    2  A    between atoms: C_7  and  O_20
REMARK    3  A    between atoms: C_11  and  O_22
REMARK    4  A    between atoms: C_17  and  O_18
REMARK                            x       y       z     vdW  Elec       q    Type
REMARK                         _______ _______ _______ _____ _____    ______ ____
ROOT
ATOM      1  O   UNL     1      -2.176  45.983  30.139  0.00  0.00    +0.000 OA
ATOM      2  O   UNL     1      -1.034  46.371  26.133  0.00  0.00    +0.000 OA
ATOM      3  C   UNL     1      -0.485  45.696  28.346  0.00  0.00    +0.000 A 
ATOM      4  C   UNL     1      -2.755  46.696  27.797  0.00  0.00    +0.000 A 
ATOM      5  C   UNL     1      -0.916  45.582  29.700  0.00  0.00    +0.000 A 
ATOM      6  C   UNL     1      -1.406  46.274  27.297  0.00  0.00    +0.000 A 
ATOM      7  C   UNL     1       0.799  45.266  27.999  0.00  0.00    +0.000 A 
ATOM      8  C   UNL     1      -2.795  46.448  29.068  0.00  0.00    +0.000 A 
ATOM      9  C   UNL     1      -0.067  45.050  30.667  0.00  0.00    +0.000 A 
ATOM     10  C   UNL     1       1.644  44.734  28.972  0.00  0.00    +0.000 A 
ATOM     11  C   UNL     1       1.205  44.630  30.291  0.00  0.00    +0.000 A 
ENDROOT
BRANCH   4  12
ATOM     12  C   UNL     1      -3.837  47.284  27.010  0.00  0.00    +0.000 A 
ATOM     13  C   UNL     1      -4.137  48.646  27.099  0.00  0.00    +0.000 A 
ATOM     14  C   UNL     1      -4.598  46.491  26.144  0.00  0.00    +0.000 A 
ATOM     15  C   UNL     1      -5.168  49.207  26.349  0.00  0.00    +0.000 A 
ATOM     16  C   UNL     1      -5.633  47.039  25.388  0.00  0.00    +0.000 A 
ATOM     17  C   UNL     1      -5.909  48.395  25.497  0.00  0.00    +0.000 A 
BRANCH  17  18
ATOM     18  O   UNL     1      -6.925  48.914  24.748  0.00  0.00    +0.000 OA
ATOM     19  H   UNL     1      -6.560  49.186  23.887  0.00  0.00    +0.000 HD
ENDBRANCH  17  18
ENDBRANCH   4  12
BRANCH   7  20
ATOM     20  O   UNL     1       1.299  45.335  26.726  0.00  0.00    +0.000 OA
ATOM     21  H   UNL     1       2.109  44.779  26.675  0.00  0.00    +0.000 HD
ENDBRANCH   7  20
BRANCH  11  22
ATOM     22  O   UNL     1       2.023  44.111  31.252  0.00  0.00    +0.000 OA
ATOM     23  H   UNL     1       1.970  44.683  32.038  0.00  0.00    +0.000 HD
ENDBRANCH  11  22
TORSDOF 4
ENDMDL
MODEL 9
REMARK VINA RESULT:      -5.4     24.379     25.595
REMARK  Name = Genistein.pdbqt.pdb
REMARK  4 active torsions:
REMARK  status: ('A' for Active; 'I' for Inactive)
REMARK    1  A    between atoms: C_4  and  C_12
REMARK    2  A    between atoms: C_7  and  O_20
REMARK    3  A    between atoms: C_11  and  O_22
REMARK    4  A    between atoms: C_17  and  O_18
REMARK                            x       y       z     vdW  Elec       q    Type
REMARK                         _______ _______ _______ _____ _____    ______ ____
ROOT
ATOM      1  O   UNL     1     -18.489  40.658   3.443  0.00  0.00    +0.000 OA
ATOM      2  O   UNL     1     -15.093  39.807   5.734  0.00  0.00    +0.000 OA
ATOM      3  C   UNL     1     -16.186  41.228   4.171  0.00  0.00    +0.000 A 
ATOM      4  C   UNL     1     -17.330  39.157   5.096  0.00  0.00    +0.000 A 
ATOM      5  C   UNL     1     -17.364  41.479   3.408  0.00  0.00    +0.000 A 
ATOM      6  C   UNL     1     -16.106  40.023   5.078  0.00  0.00    +0.000 A 
ATOM      7  C   UNL     1     -15.106  42.110   4.071  0.00  0.00    +0.000 A 
ATOM      8  C   UNL     1     -18.194  39.685   4.288  0.00  0.00    +0.000 A 
ATOM      9  C   UNL     1     -17.437  42.590   2.572  0.00  0.00    +0.000 A 
ATOM     10  C   UNL     1     -15.187  43.220   3.232  0.00  0.00    +0.000 A 
ATOM     11  C   UNL     1     -16.346  43.449   2.494  0.00  0.00    +0.000 A 
ENDROOT
BRANCH   4  12
ATOM     12  C   UNL     1     -17.529  37.936   5.875  0.00  0.00    +0.000 A 
ATOM     13  C   UNL     1     -16.898  36.741   5.519  0.00  0.00    +0.000 A 
ATOM     14  C   UNL     1     -18.360  37.939   7.002  0.00  0.00    +0.000 A 
ATOM     15  C   UNL     1     -17.087  35.578   6.261  0.00  0.00    +0.000 A 
ATOM     16  C   UNL     1     -18.558  36.781   7.753  0.00  0.00    +0.000 A 
ATOM     17  C   UNL     1     -17.918  35.609   7.375  0.00  0.00    +0.000 A 
BRANCH  17  18
ATOM     18  O   UNL     1     -18.124  34.486   8.123  0.00  0.00    +0.000 OA
ATOM     19  H   UNL     1     -17.633  34.583   8.959  0.00  0.00    +0.000 HD
ENDBRANCH  17  18
ENDBRANCH   4  12
BRANCH   7  20
ATOM     20  O   UNL     1     -13.937  41.950   4.765  0.00  0.00    +0.000 OA
ATOM     21  H   UNL     1     -13.698  40.995   4.764  0.00  0.00    +0.000 HD
ENDBRANCH   7  20
BRANCH  11  22
ATOM     22  O   UNL     1     -16.437  44.533   1.669  0.00  0.00    +0.000 OA
ATOM     23  H   UNL     1     -16.750  45.290   2.195  0.00  0.00    +0.000 HD
ENDBRANCH  11  22
TORSDOF 4
ENDMDL
