MODEL 1
REMARK VINA RESULT:      -6.3      0.000      0.000
REMARK  Name = Hyoscyamine.pdbqt.pdb
REMARK  6 active torsions:
REMARK  status: ('A' for Active; 'I' for Inactive)
REMARK    1  A    between atoms: C_2  and  O_3
REMARK    2  A    between atoms: C_2  and  C_13
REMARK    3  A    between atoms: O_3  and  C_4
REMARK    4  A    between atoms: C_13  and  C_14
REMARK    5  A    between atoms: C_13  and  C_20
REMARK    6  A    between atoms: C_20  and  O_21
REMARK                            x       y       z     vdW  Elec       q    Type
REMARK                         _______ _______ _______ _____ _____    ______ ____
ROOT
ATOM      1  O   UNL     1      -4.447  45.111  24.761  0.00  0.00    +0.000 OA
ATOM      2  C   UNL     1      -4.714  45.338  25.934  0.00  0.00    +0.000 C 
ENDROOT
BRANCH   2   3
ATOM      3  O   UNL     1      -3.999  44.944  27.028  0.00  0.00    +0.000 OA
BRANCH   3   4
ATOM      4  C   UNL     1      -3.193  45.958  27.545  0.00  0.00    +0.000 C 
ATOM      5  C   UNL     1      -2.012  46.408  26.830  0.00  0.00    +0.000 C 
ATOM      6  C   UNL     1      -0.707  46.749  27.412  0.00  0.00    +0.000 C 
ATOM      7  N   UNL     1      -0.484  45.675  28.484  0.00  0.00    +0.000 NA
ATOM      8  C   UNL     1      -0.724  47.996  28.157  0.00  0.00    +0.000 C 
ATOM      9  C   UNL     1      -1.491  46.221  29.509  0.00  0.00    +0.000 C 
ATOM     10  C   UNL     1       0.890  45.714  29.007  0.00  0.00    +0.000 C 
ATOM     11  C   UNL     1      -1.240  47.655  29.556  0.00  0.00    +0.000 C 
ATOM     12  C   UNL     1      -2.804  45.881  28.939  0.00  0.00    +0.000 C 
ENDBRANCH   3   4
ENDBRANCH   2   3
BRANCH   2  13
ATOM     13  C   UNL     1      -5.939  46.080  26.357  0.00  0.00    +0.000 C 
BRANCH  13  14
ATOM     14  C   UNL     1      -6.750  46.909  25.445  0.00  0.00    +0.000 A 
ATOM     15  C   UNL     1      -6.193  48.037  24.834  0.00  0.00    +0.000 A 
ATOM     16  C   UNL     1      -6.958  48.851  23.999  0.00  0.00    +0.000 A 
ATOM     17  C   UNL     1      -8.297  48.549  23.772  0.00  0.00    +0.000 A 
ATOM     18  C   UNL     1      -8.869  47.437  24.381  0.00  0.00    +0.000 A 
ATOM     19  C   UNL     1      -8.099  46.628  25.215  0.00  0.00    +0.000 A 
ENDBRANCH  13  14
BRANCH  13  20
ATOM     20  C   UNL     1      -6.365  45.907  27.711  0.00  0.00    +0.000 C 
BRANCH  20  21
ATOM     21  O   UNL     1      -6.760  45.746  28.970  0.00  0.00    +0.000 OA
ATOM     22  H   UNL     1      -7.693  46.005  29.071  0.00  0.00    +0.000 HD
ENDBRANCH  20  21
ENDBRANCH  13  20
ENDBRANCH   2  13
TORSDOF 6
ENDMDL
MODEL 2
REMARK VINA RESULT:      -6.0      1.572      2.114
REMARK  Name = Hyoscyamine.pdbqt.pdb
REMARK  6 active torsions:
REMARK  status: ('A' for Active; 'I' for Inactive)
REMARK    1  A    between atoms: C_2  and  O_3
REMARK    2  A    between atoms: C_2  and  C_13
REMARK    3  A    between atoms: O_3  and  C_4
REMARK    4  A    between atoms: C_13  and  C_14
REMARK    5  A    between atoms: C_13  and  C_20
REMARK    6  A    between atoms: C_20  and  O_21
REMARK                            x       y       z     vdW  Elec       q    Type
REMARK                         _______ _______ _______ _____ _____    ______ ____
ROOT
ATOM      1  O   UNL     1      -4.183  48.870  26.577  0.00  0.00    +0.000 OA
ATOM      2  C   UNL     1      -4.580  47.733  26.801  0.00  0.00    +0.000 C 
ENDROOT
BRANCH   2   3
ATOM      3  O   UNL     1      -4.420  47.022  27.955  0.00  0.00    +0.000 OA
BRANCH   3   4
ATOM      4  C   UNL     1      -3.133  47.126  28.484  0.00  0.00    +0.000 C 
ATOM      5  C   UNL     1      -2.035  46.354  27.931  0.00  0.00    +0.000 C 
ATOM      6  C   UNL     1      -0.968  45.678  28.681  0.00  0.00    +0.000 C 
ATOM      7  N   UNL     1      -1.691  45.064  29.888  0.00  0.00    +0.000 NA
ATOM      8  C   UNL     1      -0.014  46.601  29.271  0.00  0.00    +0.000 C 
ATOM      9  C   UNL     1      -1.905  46.373  30.663  0.00  0.00    +0.000 C 
ATOM     10  C   UNL     1      -0.817  44.139  30.625  0.00  0.00    +0.000 C 
ATOM     11  C   UNL     1      -0.627  47.067  30.593  0.00  0.00    +0.000 C 
ATOM     12  C   UNL     1      -2.976  47.058  29.923  0.00  0.00    +0.000 C 
ENDBRANCH   3   4
ENDBRANCH   2   3
BRANCH   2  13
ATOM     13  C   UNL     1      -5.295  46.910  25.781  0.00  0.00    +0.000 C 
BRANCH  13  14
ATOM     14  C   UNL     1      -6.557  47.319  25.136  0.00  0.00    +0.000 A 
ATOM     15  C   UNL     1      -6.592  48.440  24.299  0.00  0.00    +0.000 A 
ATOM     16  C   UNL     1      -7.785  48.859  23.713  0.00  0.00    +0.000 A 
ATOM     17  C   UNL     1      -8.964  48.166  23.964  0.00  0.00    +0.000 A 
ATOM     18  C   UNL     1      -8.949  47.056  24.802  0.00  0.00    +0.000 A 
ATOM     19  C   UNL     1      -7.753  46.641  25.386  0.00  0.00    +0.000 A 
ENDBRANCH  13  14
BRANCH  13  20
ATOM     20  C   UNL     1      -4.665  45.691  25.376  0.00  0.00    +0.000 C 
BRANCH  20  21
ATOM     21  O   UNL     1      -4.080  44.558  25.000  0.00  0.00    +0.000 OA
ATOM     22  H   UNL     1      -3.908  43.991  25.773  0.00  0.00    +0.000 HD
ENDBRANCH  20  21
ENDBRANCH  13  20
ENDBRANCH   2  13
TORSDOF 6
ENDMDL
MODEL 3
REMARK VINA RESULT:      -5.8      3.352      4.907
REMARK  Name = Hyoscyamine.pdbqt.pdb
REMARK  6 active torsions:
REMARK  status: ('A' for Active; 'I' for Inactive)
REMARK    1  A    between atoms: C_2  and  O_3
REMARK    2  A    between atoms: C_2  and  C_13
REMARK    3  A    between atoms: O_3  and  C_4
REMARK    4  A    between atoms: C_13  and  C_14
REMARK    5  A    between atoms: C_13  and  C_20
REMARK    6  A    between atoms: C_20  and  O_21
REMARK                            x       y       z     vdW  Elec       q    Type
REMARK                         _______ _______ _______ _____ _____    ______ ____
ROOT
ATOM      1  O   UNL     1      -3.890  48.137  27.141  0.00  0.00    +0.000 OA
ATOM      2  C   UNL     1      -4.714  47.262  27.379  0.00  0.00    +0.000 C 
ENDROOT
BRANCH   2   3
ATOM      3  O   UNL     1      -5.080  46.793  28.607  0.00  0.00    +0.000 OA
BRANCH   3   4
ATOM      4  C   UNL     1      -5.753  47.744  29.374  0.00  0.00    +0.000 C 
ATOM      5  C   UNL     1      -5.337  48.036  30.734  0.00  0.00    +0.000 C 
ATOM      6  C   UNL     1      -6.211  48.271  31.891  0.00  0.00    +0.000 C 
ATOM      7  N   UNL     1      -7.330  47.233  31.731  0.00  0.00    +0.000 NA
ATOM      8  C   UNL     1      -6.901  49.548  31.835  0.00  0.00    +0.000 C 
ATOM      9  C   UNL     1      -8.066  47.929  30.575  0.00  0.00    +0.000 C 
ATOM     10  C   UNL     1      -8.171  47.158  32.935  0.00  0.00    +0.000 C 
ATOM     11  C   UNL     1      -8.139  49.330  30.964  0.00  0.00    +0.000 C 
ATOM     12  C   UNL     1      -7.202  47.697  29.407  0.00  0.00    +0.000 C 
ENDBRANCH   3   4
ENDBRANCH   2   3
BRANCH   2  13
ATOM     13  C   UNL     1      -5.442  46.522  26.305  0.00  0.00    +0.000 C 
BRANCH  13  14
ATOM     14  C   UNL     1      -6.512  47.116  25.482  0.00  0.00    +0.000 A 
ATOM     15  C   UNL     1      -7.801  46.571  25.500  0.00  0.00    +0.000 A 
ATOM     16  C   UNL     1      -8.813  47.099  24.700  0.00  0.00    +0.000 A 
ATOM     17  C   UNL     1      -8.545  48.176  23.862  0.00  0.00    +0.000 A 
ATOM     18  C   UNL     1      -7.267  48.723  23.824  0.00  0.00    +0.000 A 
ATOM     19  C   UNL     1      -6.259  48.190  24.626  0.00  0.00    +0.000 A 
ENDBRANCH  13  14
BRANCH  13  20
ATOM     20  C   UNL     1      -5.012  45.185  26.036  0.00  0.00    +0.000 C 
BRANCH  20  21
ATOM     21  O   UNL     1      -4.612  43.942  25.787  0.00  0.00    +0.000 OA
ATOM     22  H   UNL     1      -5.084  43.580  25.016  0.00  0.00    +0.000 HD
ENDBRANCH  20  21
ENDBRANCH  13  20
ENDBRANCH   2  13
TORSDOF 6
ENDMDL
MODEL 4
REMARK VINA RESULT:      -5.7      2.403      4.258
REMARK  Name = Hyoscyamine.pdbqt.pdb
REMARK  6 active torsions:
REMARK  status: ('A' for Active; 'I' for Inactive)
REMARK    1  A    between atoms: C_2  and  O_3
REMARK    2  A    between atoms: C_2  and  C_13
REMARK    3  A    between atoms: O_3  and  C_4
REMARK    4  A    between atoms: C_13  and  C_14
REMARK    5  A    between atoms: C_13  and  C_20
REMARK    6  A    between atoms: C_20  and  O_21
REMARK                            x       y       z     vdW  Elec       q    Type
REMARK                         _______ _______ _______ _____ _____    ______ ____
ROOT
ATOM      1  O   UNL     1      -3.585  45.742  26.048  0.00  0.00    +0.000 OA
ATOM      2  C   UNL     1      -3.526  46.651  26.866  0.00  0.00    +0.000 C 
ENDROOT
BRANCH   2   3
ATOM      3  O   UNL     1      -3.031  46.580  28.136  0.00  0.00    +0.000 OA
BRANCH   3   4
ATOM      4  C   UNL     1      -1.831  45.872  28.213  0.00  0.00    +0.000 C 
ATOM      5  C   UNL     1      -1.363  45.334  29.478  0.00  0.00    +0.000 C 
ATOM      6  C   UNL     1       0.019  45.330  29.976  0.00  0.00    +0.000 C 
ATOM      7  N   UNL     1       0.562  46.710  29.581  0.00  0.00    +0.000 NA
ATOM      8  C   UNL     1       0.877  44.395  29.268  0.00  0.00    +0.000 C 
ATOM      9  C   UNL     1       0.718  46.427  28.079  0.00  0.00    +0.000 C 
ATOM     10  C   UNL     1       1.862  46.977  30.215  0.00  0.00    +0.000 C 
ATOM     11  C   UNL     1       1.351  45.117  28.006  0.00  0.00    +0.000 C 
ATOM     12  C   UNL     1      -0.661  46.433  27.567  0.00  0.00    +0.000 C 
ENDBRANCH   3   4
ENDBRANCH   2   3
BRANCH   2  13
ATOM     13  C   UNL     1      -4.046  48.023  26.590  0.00  0.00    +0.000 C 
BRANCH  13  14
ATOM     14  C   UNL     1      -3.356  49.260  27.001  0.00  0.00    +0.000 A 
ATOM     15  C   UNL     1      -4.026  50.223  27.763  0.00  0.00    +0.000 A 
ATOM     16  C   UNL     1      -3.397  51.413  28.127  0.00  0.00    +0.000 A 
ATOM     17  C   UNL     1      -2.089  51.659  27.724  0.00  0.00    +0.000 A 
ATOM     18  C   UNL     1      -1.412  50.717  26.957  0.00  0.00    +0.000 A 
ATOM     19  C   UNL     1      -2.046  49.529  26.596  0.00  0.00    +0.000 A 
ENDBRANCH  13  14
BRANCH  13  20
ATOM     20  C   UNL     1      -5.252  48.115  25.826  0.00  0.00    +0.000 C 
BRANCH  20  21
ATOM     21  O   UNL     1      -6.372  48.201  25.116  0.00  0.00    +0.000 OA
ATOM     22  H   UNL     1      -6.244  47.818  24.230  0.00  0.00    +0.000 HD
ENDBRANCH  20  21
ENDBRANCH  13  20
ENDBRANCH   2  13
TORSDOF 6
ENDMDL
MODEL 5
REMARK VINA RESULT:      -5.7     22.060     24.350
REMARK  Name = Hyoscyamine.pdbqt.pdb
REMARK  6 active torsions:
REMARK  status: ('A' for Active; 'I' for Inactive)
REMARK    1  A    between atoms: C_2  and  O_3
REMARK    2  A    between atoms: C_2  and  C_13
REMARK    3  A    between atoms: O_3  and  C_4
REMARK    4  A    between atoms: C_13  and  C_14
REMARK    5  A    between atoms: C_13  and  C_20
REMARK    6  A    between atoms: C_20  and  O_21
REMARK                            x       y       z     vdW  Elec       q    Type
REMARK                         _______ _______ _______ _____ _____    ______ ____
ROOT
ATOM      1  O   UNL     1     -27.422  39.687  21.309  0.00  0.00    +0.000 OA
ATOM      2  C   UNL     1     -26.336  39.420  21.811  0.00  0.00    +0.000 C 
ENDROOT
BRANCH   2   3
ATOM      3  O   UNL     1     -26.078  39.196  23.132  0.00  0.00    +0.000 OA
BRANCH   3   4
ATOM      4  C   UNL     1     -26.974  38.301  23.717  0.00  0.00    +0.000 C 
ATOM      5  C   UNL     1     -27.762  38.684  24.875  0.00  0.00    +0.000 C 
ATOM      6  C   UNL     1     -28.063  37.855  26.049  0.00  0.00    +0.000 C 
ATOM      7  N   UNL     1     -26.745  37.121  26.336  0.00  0.00    +0.000 NA
ATOM      8  C   UNL     1     -29.008  36.788  25.766  0.00  0.00    +0.000 C 
ATOM      9  C   UNL     1     -26.824  36.131  25.164  0.00  0.00    +0.000 C 
ATOM     10  C   UNL     1     -26.788  36.426  27.631  0.00  0.00    +0.000 C 
ATOM     11  C   UNL     1     -28.193  35.634  25.180  0.00  0.00    +0.000 C 
ATOM     12  C   UNL     1     -26.520  36.950  23.980  0.00  0.00    +0.000 C 
ENDBRANCH   3   4
ENDBRANCH   2   3
BRANCH   2  13
ATOM     13  C   UNL     1     -25.075  39.337  21.015  0.00  0.00    +0.000 C 
BRANCH  13  14
ATOM     14  C   UNL     1     -24.648  38.132  20.281  0.00  0.00    +0.000 A 
ATOM     15  C   UNL     1     -25.432  36.973  20.308  0.00  0.00    +0.000 A 
ATOM     16  C   UNL     1     -25.022  35.815  19.648  0.00  0.00    +0.000 A 
ATOM     17  C   UNL     1     -23.815  35.799  18.959  0.00  0.00    +0.000 A 
ATOM     18  C   UNL     1     -23.018  36.939  18.930  0.00  0.00    +0.000 A 
ATOM     19  C   UNL     1     -23.433  38.094  19.592  0.00  0.00    +0.000 A 
ENDBRANCH  13  14
BRANCH  13  20
ATOM     20  C   UNL     1     -24.289  40.528  20.924  0.00  0.00    +0.000 C 
BRANCH  20  21
ATOM     21  O   UNL     1     -23.559  41.636  20.839  0.00  0.00    +0.000 OA
ATOM     22  H   UNL     1     -23.320  41.955  21.727  0.00  0.00    +0.000 HD
ENDBRANCH  20  21
ENDBRANCH  13  20
ENDBRANCH   2  13
TORSDOF 6
ENDMDL
MODEL 6
REMARK VINA RESULT:      -5.7      2.460      7.165
REMARK  Name = Hyoscyamine.pdbqt.pdb
REMARK  6 active torsions:
REMARK  status: ('A' for Active; 'I' for Inactive)
REMARK    1  A    between atoms: C_2  and  O_3
REMARK    2  A    between atoms: C_2  and  C_13
REMARK    3  A    between atoms: O_3  and  C_4
REMARK    4  A    between atoms: C_13  and  C_14
REMARK    5  A    between atoms: C_13  and  C_20
REMARK    6  A    between atoms: C_20  and  O_21
REMARK                            x       y       z     vdW  Elec       q    Type
REMARK                         _______ _______ _______ _____ _____    ______ ____
ROOT
ATOM      1  O   UNL     1      -2.084  46.285  25.634  0.00  0.00    +0.000 OA
ATOM      2  C   UNL     1      -2.410  46.431  26.806  0.00  0.00    +0.000 C 
ENDROOT
BRANCH   2   3
ATOM      3  O   UNL     1      -3.675  46.389  27.315  0.00  0.00    +0.000 OA
BRANCH   3   4
ATOM      4  C   UNL     1      -4.637  46.862  26.423  0.00  0.00    +0.000 C 
ATOM      5  C   UNL     1      -4.915  48.283  26.311  0.00  0.00    +0.000 C 
ATOM      6  C   UNL     1      -6.234  48.912  26.162  0.00  0.00    +0.000 C 
ATOM      7  N   UNL     1      -7.139  48.115  27.112  0.00  0.00    +0.000 NA
ATOM      8  C   UNL     1      -6.822  48.700  24.851  0.00  0.00    +0.000 C 
ATOM      9  C   UNL     1      -7.243  46.848  26.250  0.00  0.00    +0.000 C 
ATOM     10  C   UNL     1      -8.448  48.763  27.277  0.00  0.00    +0.000 C 
ATOM     11  C   UNL     1      -7.500  47.330  24.900  0.00  0.00    +0.000 C 
ATOM     12  C   UNL     1      -5.928  46.204  26.394  0.00  0.00    +0.000 C 
ENDBRANCH   3   4
ENDBRANCH   2   3
BRANCH   2  13
ATOM     13  C   UNL     1      -1.426  46.728  27.889  0.00  0.00    +0.000 C 
BRANCH  13  14
ATOM     14  C   UNL     1      -0.323  45.823  28.265  0.00  0.00    +0.000 A 
ATOM     15  C   UNL     1      -0.406  45.055  29.431  0.00  0.00    +0.000 A 
ATOM     16  C   UNL     1       0.644  44.224  29.818  0.00  0.00    +0.000 A 
ATOM     17  C   UNL     1       1.798  44.157  29.044  0.00  0.00    +0.000 A 
ATOM     18  C   UNL     1       1.902  44.922  27.887  0.00  0.00    +0.000 A 
ATOM     19  C   UNL     1       0.848  45.752  27.506  0.00  0.00    +0.000 A 
ENDBRANCH  13  14
BRANCH  13  20
ATOM     20  C   UNL     1      -1.543  47.997  28.539  0.00  0.00    +0.000 C 
BRANCH  20  21
ATOM     21  O   UNL     1      -1.651  49.176  29.143  0.00  0.00    +0.000 OA
ATOM     22  H   UNL     1      -1.605  49.069  30.109  0.00  0.00    +0.000 HD
ENDBRANCH  20  21
ENDBRANCH  13  20
ENDBRANCH   2  13
TORSDOF 6
ENDMDL
MODEL 7
REMARK VINA RESULT:      -5.4     24.552     26.798
REMARK  Name = Hyoscyamine.pdbqt.pdb
REMARK  6 active torsions:
REMARK  status: ('A' for Active; 'I' for Inactive)
REMARK    1  A    between atoms: C_2  and  O_3
REMARK    2  A    between atoms: C_2  and  C_13
REMARK    3  A    between atoms: O_3  and  C_4
REMARK    4  A    between atoms: C_13  and  C_14
REMARK    5  A    between atoms: C_13  and  C_20
REMARK    6  A    between atoms: C_20  and  O_21
REMARK                            x       y       z     vdW  Elec       q    Type
REMARK                         _______ _______ _______ _____ _____    ______ ____
ROOT
ATOM      1  O   UNL     1     -17.042  38.222   3.083  0.00  0.00    +0.000 OA
ATOM      2  C   UNL     1     -16.609  37.755   4.129  0.00  0.00    +0.000 C 
ENDROOT
BRANCH   2   3
ATOM      3  O   UNL     1     -16.661  36.451   4.527  0.00  0.00    +0.000 OA
BRANCH   3   4
ATOM      4  C   UNL     1     -17.892  36.099   5.080  0.00  0.00    +0.000 C 
ATOM      5  C   UNL     1     -19.096  36.843   4.754  0.00  0.00    +0.000 C 
ATOM      6  C   UNL     1     -20.170  37.229   5.678  0.00  0.00    +0.000 C 
ATOM      7  N   UNL     1     -19.431  37.658   6.953  0.00  0.00    +0.000 NA
ATOM      8  C   UNL     1     -20.987  36.106   6.103  0.00  0.00    +0.000 C 
ATOM      9  C   UNL     1     -19.038  36.249   7.423  0.00  0.00    +0.000 C 
ATOM     10  C   UNL     1     -20.339  38.310   7.908  0.00  0.00    +0.000 C 
ATOM     11  C   UNL     1     -20.244  35.449   7.267  0.00  0.00    +0.000 C 
ATOM     12  C   UNL     1     -17.958  35.852   6.507  0.00  0.00    +0.000 C 
ENDBRANCH   3   4
ENDBRANCH   2   3
BRANCH   2  13
ATOM     13  C   UNL     1     -15.966  38.593   5.185  0.00  0.00    +0.000 C 
BRANCH  13  14
ATOM     14  C   UNL     1     -16.418  39.951   5.542  0.00  0.00    +0.000 A 
ATOM     15  C   UNL     1     -17.781  40.265   5.538  0.00  0.00    +0.000 A 
ATOM     16  C   UNL     1     -18.220  41.554   5.837  0.00  0.00    +0.000 A 
ATOM     17  C   UNL     1     -17.296  42.550   6.136  0.00  0.00    +0.000 A 
ATOM     18  C   UNL     1     -15.937  42.258   6.133  0.00  0.00    +0.000 A 
ATOM     19  C   UNL     1     -15.504  40.967   5.833  0.00  0.00    +0.000 A 
ENDBRANCH  13  14
BRANCH  13  20
ATOM     20  C   UNL     1     -14.896  37.994   5.923  0.00  0.00    +0.000 C 
BRANCH  20  21
ATOM     21  O   UNL     1     -13.903  37.439   6.608  0.00  0.00    +0.000 OA
ATOM     22  H   UNL     1     -13.764  36.518   6.323  0.00  0.00    +0.000 HD
ENDBRANCH  20  21
ENDBRANCH  13  20
ENDBRANCH   2  13
TORSDOF 6
ENDMDL
MODEL 8
REMARK VINA RESULT:      -5.4     24.815     26.815
REMARK  Name = Hyoscyamine.pdbqt.pdb
REMARK  6 active torsions:
REMARK  status: ('A' for Active; 'I' for Inactive)
REMARK    1  A    between atoms: C_2  and  O_3
REMARK    2  A    between atoms: C_2  and  C_13
REMARK    3  A    between atoms: O_3  and  C_4
REMARK    4  A    between atoms: C_13  and  C_14
REMARK    5  A    between atoms: C_13  and  C_20
REMARK    6  A    between atoms: C_20  and  O_21
REMARK                            x       y       z     vdW  Elec       q    Type
REMARK                         _______ _______ _______ _____ _____    ______ ____
ROOT
ATOM      1  O   UNL     1     -20.287  40.685   3.453  0.00  0.00    +0.000 OA
ATOM      2  C   UNL     1     -19.694  40.869   4.510  0.00  0.00    +0.000 C 
ENDROOT
BRANCH   2   3
ATOM      3  O   UNL     1     -19.662  40.032   5.587  0.00  0.00    +0.000 OA
BRANCH   3   4
ATOM      4  C   UNL     1     -18.807  38.944   5.405  0.00  0.00    +0.000 C 
ATOM      5  C   UNL     1     -19.331  37.634   5.062  0.00  0.00    +0.000 C 
ATOM      6  C   UNL     1     -18.879  36.339   5.588  0.00  0.00    +0.000 C 
ATOM      7  N   UNL     1     -18.639  36.606   7.080  0.00  0.00    +0.000 NA
ATOM      8  C   UNL     1     -17.575  35.944   5.084  0.00  0.00    +0.000 C 
ATOM      9  C   UNL     1     -17.337  37.406   6.920  0.00  0.00    +0.000 C 
ATOM     10  C   UNL     1     -18.413  35.355   7.820  0.00  0.00    +0.000 C 
ATOM     11  C   UNL     1     -16.541  36.645   5.967  0.00  0.00    +0.000 C 
ATOM     12  C   UNL     1     -17.777  38.708   6.397  0.00  0.00    +0.000 C 
ENDBRANCH   3   4
ENDBRANCH   2   3
BRANCH   2  13
ATOM     13  C   UNL     1     -18.917  42.112   4.796  0.00  0.00    +0.000 C 
BRANCH  13  14
ATOM     14  C   UNL     1     -17.444  42.179   4.782  0.00  0.00    +0.000 A 
ATOM     15  C   UNL     1     -16.729  42.258   5.983  0.00  0.00    +0.000 A 
ATOM     16  C   UNL     1     -15.339  42.359   5.984  0.00  0.00    +0.000 A 
ATOM     17  C   UNL     1     -14.644  42.391   4.779  0.00  0.00    +0.000 A 
ATOM     18  C   UNL     1     -15.340  42.324   3.577  0.00  0.00    +0.000 A 
ATOM     19  C   UNL     1     -16.730  42.223   3.582  0.00  0.00    +0.000 A 
ENDBRANCH  13  14
BRANCH  13  20
ATOM     20  C   UNL     1     -19.671  43.305   5.030  0.00  0.00    +0.000 C 
BRANCH  20  21
ATOM     21  O   UNL     1     -20.371  44.413   5.248  0.00  0.00    +0.000 OA
ATOM     22  H   UNL     1     -21.115  44.475   4.624  0.00  0.00    +0.000 HD
ENDBRANCH  20  21
ENDBRANCH  13  20
ENDBRANCH   2  13
TORSDOF 6
ENDMDL
MODEL 9
REMARK VINA RESULT:      -5.2      5.548      8.354
REMARK  Name = Hyoscyamine.pdbqt.pdb
REMARK  6 active torsions:
REMARK  status: ('A' for Active; 'I' for Inactive)
REMARK    1  A    between atoms: C_2  and  O_3
REMARK    2  A    between atoms: C_2  and  C_13
REMARK    3  A    between atoms: O_3  and  C_4
REMARK    4  A    between atoms: C_13  and  C_14
REMARK    5  A    between atoms: C_13  and  C_20
REMARK    6  A    between atoms: C_20  and  O_21
REMARK                            x       y       z     vdW  Elec       q    Type
REMARK                         _______ _______ _______ _____ _____    ______ ____
ROOT
ATOM      1  O   UNL     1     -11.666  48.935  26.253  0.00  0.00    +0.000 OA
ATOM      2  C   UNL     1     -11.883  49.089  25.057  0.00  0.00    +0.000 C 
ENDROOT
BRANCH   2   3
ATOM      3  O   UNL     1     -11.430  48.304  24.036  0.00  0.00    +0.000 OA
BRANCH   3   4
ATOM      4  C   UNL     1     -10.047  48.123  24.061  0.00  0.00    +0.000 C 
ATOM      5  C   UNL     1      -9.421  47.305  25.085  0.00  0.00    +0.000 C 
ATOM      6  C   UNL     1      -8.168  47.591  25.796  0.00  0.00    +0.000 C 
ATOM      7  N   UNL     1      -8.232  49.098  26.076  0.00  0.00    +0.000 NA
ATOM      8  C   UNL     1      -6.990  47.435  24.960  0.00  0.00    +0.000 C 
ATOM      9  C   UNL     1      -7.949  49.567  24.640  0.00  0.00    +0.000 C 
ATOM     10  C   UNL     1      -7.168  49.520  26.999  0.00  0.00    +0.000 C 
ATOM     11  C   UNL     1      -6.833  48.747  24.189  0.00  0.00    +0.000 C 
ATOM     12  C   UNL     1      -9.200  49.290  23.917  0.00  0.00    +0.000 C 
ENDBRANCH   3   4
ENDBRANCH   2   3
BRANCH   2  13
ATOM     13  C   UNL     1     -12.678  50.232  24.518  0.00  0.00    +0.000 C 
BRANCH  13  14
ATOM     14  C   UNL     1     -14.060  50.106  24.019  0.00  0.00    +0.000 A 
ATOM     15  C   UNL     1     -14.455  50.778  22.857  0.00  0.00    +0.000 A 
ATOM     16  C   UNL     1     -15.768  50.698  22.394  0.00  0.00    +0.000 A 
ATOM     17  C   UNL     1     -16.707  49.948  23.095  0.00  0.00    +0.000 A 
ATOM     18  C   UNL     1     -16.333  49.282  24.257  0.00  0.00    +0.000 A 
ATOM     19  C   UNL     1     -15.019  49.367  24.716  0.00  0.00    +0.000 A 
ENDBRANCH  13  14
BRANCH  13  20
ATOM     20  C   UNL     1     -12.064  51.523  24.561  0.00  0.00    +0.000 C 
BRANCH  20  21
ATOM     21  O   UNL     1     -11.494  52.723  24.600  0.00  0.00    +0.000 OA
ATOM     22  H   UNL     1     -12.043  53.345  25.109  0.00  0.00    +0.000 HD
ENDBRANCH  20  21
ENDBRANCH  13  20
ENDBRANCH   2  13
TORSDOF 6
ENDMDL
