MODEL 1
REMARK VINA RESULT:      -5.8      0.000      0.000
REMARK  Name = 
REMARK  9 active torsions:
REMARK  status: ('A' for Active; 'I' for Inactive)
REMARK    1  A    between atoms: O_1  and  N_7
REMARK    2  A    between atoms: O_1  and  C_20
REMARK    3  A    between atoms: O_2  and  C_14
REMARK    4  A    between atoms: O_3  and  C_18
REMARK    5  A    between atoms: O_4  and  C_25
REMARK    6  A    between atoms: C_8  and  C_10
REMARK    7  A    between atoms: C_17  and  C_18
REMARK    8  A    between atoms: C_17  and  C_20
REMARK    9  A    between atoms: C_18  and  C_25
REMARK                            x       y       z     vdW  Elec       q    Type
REMARK                         _______ _______ _______ _____ _____    ______ ____
ROOT
ATOM      1  N   UNL     1     -15.309  39.868   4.742  0.00  0.00    +0.000 NA
ATOM      2  N   UNL     1     -18.509  39.071   6.051  0.00  0.00    +0.000 NA
ATOM      3  C   UNL     1     -16.216  38.999   5.115  0.00  0.00    +0.000 C 
ATOM      4  C   UNL     1     -17.504  39.692   5.519  0.00  0.00    +0.000 C 
ATOM      5  C   UNL     1     -17.251  41.100   5.245  0.00  0.00    +0.000 A 
ATOM      6  C   UNL     1     -15.928  41.128   4.806  0.00  0.00    +0.000 A 
ATOM      7  C   UNL     1     -18.019  42.245   5.362  0.00  0.00    +0.000 A 
ATOM      8  C   UNL     1     -15.333  42.331   4.467  0.00  0.00    +0.000 A 
ATOM      9  C   UNL     1     -17.421  43.461   5.019  0.00  0.00    +0.000 A 
ATOM     10  C   UNL     1     -16.087  43.504   4.576  0.00  0.00    +0.000 A 
ENDROOT
BRANCH   3  12
ATOM     11  N   UNL     1     -14.908  35.641   5.527  0.00  0.00    +0.000 N 
ATOM     12  C   UNL     1     -15.919  37.585   5.125  0.00  0.00    +0.000 A 
ATOM     13  C   UNL     1     -16.685  36.528   4.528  0.00  0.00    +0.000 A 
ATOM     14  C   UNL     1     -16.021  35.329   4.785  0.00  0.00    +0.000 A 
ATOM     15  C   UNL     1     -14.843  36.991   5.760  0.00  0.00    +0.000 A 
ATOM     16  C   UNL     1     -17.879  36.479   3.776  0.00  0.00    +0.000 A 
ATOM     17  C   UNL     1     -16.487  34.088   4.335  0.00  0.00    +0.000 A 
ATOM     18  C   UNL     1     -18.361  35.248   3.318  0.00  0.00    +0.000 A 
ATOM     19  C   UNL     1     -17.672  34.071   3.594  0.00  0.00    +0.000 A 
ATOM     20  H   UNL     1     -14.253  34.955   5.871  0.00  0.00    +0.000 HD
BRANCH  15  21
ATOM     21  O   UNL     1     -13.886  37.524   6.512  0.00  0.00    +0.000 OA
ATOM     22  H   UNL     1     -13.475  36.846   7.072  0.00  0.00    +0.000 HD
ENDBRANCH  15  21
ENDBRANCH   3  12
BRANCH   2  23
ATOM     23  O   UNL     1     -19.554  39.939   6.376  0.00  0.00    +0.000 OA
BRANCH  23  24
ATOM     24  C   UNL     1     -20.666  39.160   6.810  0.00  0.00    +0.000 C 
BRANCH  24  25
ATOM     25  C   UNL     1     -20.206  38.166   7.867  0.00  0.00    +0.000 C 
BRANCH  25  26
ATOM     26  C   UNL     1     -20.247  36.707   7.413  0.00  0.00    +0.000 C 
BRANCH  26  27
ATOM     27  O   UNL     1     -20.658  36.685   6.037  0.00  0.00    +0.000 OA
ATOM     28  H   UNL     1     -20.178  35.925   5.652  0.00  0.00    +0.000 HD
ENDBRANCH  26  27
BRANCH  26  29
ATOM     29  C   UNL     1     -18.903  35.981   7.522  0.00  0.00    +0.000 C 
BRANCH  29  30
ATOM     30  O   UNL     1     -17.928  36.916   7.996  0.00  0.00    +0.000 OA
ATOM     31  H   UNL     1     -17.450  36.475   8.721  0.00  0.00    +0.000 HD
ENDBRANCH  29  30
ENDBRANCH  26  29
ENDBRANCH  25  26
ENDBRANCH  24  25
ENDBRANCH  23  24
ENDBRANCH   2  23
TORSDOF 9
ENDMDL
MODEL 2
REMARK VINA RESULT:      -5.8     27.839     30.735
REMARK  Name = 
REMARK  9 active torsions:
REMARK  status: ('A' for Active; 'I' for Inactive)
REMARK    1  A    between atoms: O_1  and  N_7
REMARK    2  A    between atoms: O_1  and  C_20
REMARK    3  A    between atoms: O_2  and  C_14
REMARK    4  A    between atoms: O_3  and  C_18
REMARK    5  A    between atoms: O_4  and  C_25
REMARK    6  A    between atoms: C_8  and  C_10
REMARK    7  A    between atoms: C_17  and  C_18
REMARK    8  A    between atoms: C_17  and  C_20
REMARK    9  A    between atoms: C_18  and  C_25
REMARK                            x       y       z     vdW  Elec       q    Type
REMARK                         _______ _______ _______ _____ _____    ______ ____
ROOT
ATOM      1  N   UNL     1       6.614  54.571  17.668  0.00  0.00    +0.000 NA
ATOM      2  N   UNL     1       3.900  56.139  19.330  0.00  0.00    +0.000 NA
ATOM      3  C   UNL     1       5.356  54.933  17.728  0.00  0.00    +0.000 C 
ATOM      4  C   UNL     1       5.086  55.767  18.967  0.00  0.00    +0.000 C 
ATOM      5  C   UNL     1       6.396  55.917  19.588  0.00  0.00    +0.000 A 
ATOM      6  C   UNL     1       7.245  55.167  18.773  0.00  0.00    +0.000 A 
ATOM      7  C   UNL     1       6.845  56.582  20.715  0.00  0.00    +0.000 A 
ATOM      8  C   UNL     1       8.590  55.067  19.078  0.00  0.00    +0.000 A 
ATOM      9  C   UNL     1       8.204  56.482  21.024  0.00  0.00    +0.000 A 
ATOM     10  C   UNL     1       9.070  55.729  20.213  0.00  0.00    +0.000 A 
ENDROOT
BRANCH   3  12
ATOM     11  N   UNL     1       2.678  53.572  15.697  0.00  0.00    +0.000 N 
ATOM     12  C   UNL     1       4.423  54.522  16.706  0.00  0.00    +0.000 A 
ATOM     13  C   UNL     1       4.454  54.854  15.310  0.00  0.00    +0.000 A 
ATOM     14  C   UNL     1       3.359  54.236  14.705  0.00  0.00    +0.000 A 
ATOM     15  C   UNL     1       3.291  53.752  16.910  0.00  0.00    +0.000 A 
ATOM     16  C   UNL     1       5.322  55.614  14.497  0.00  0.00    +0.000 A 
ATOM     17  C   UNL     1       3.086  54.339  13.336  0.00  0.00    +0.000 A 
ATOM     18  C   UNL     1       5.066  55.729  13.126  0.00  0.00    +0.000 A 
ATOM     19  C   UNL     1       3.963  55.099  12.556  0.00  0.00    +0.000 A 
ATOM     20  H   UNL     1       1.828  53.052  15.541  0.00  0.00    +0.000 HD
BRANCH  15  21
ATOM     21  O   UNL     1       2.778  53.257  18.031  0.00  0.00    +0.000 OA
ATOM     22  H   UNL     1       2.025  52.677  17.834  0.00  0.00    +0.000 HD
ENDBRANCH  15  21
ENDBRANCH   3  12
BRANCH   2  23
ATOM     23  O   UNL     1       3.913  56.855  20.529  0.00  0.00    +0.000 OA
BRANCH  23  24
ATOM     24  C   UNL     1       3.306  58.124  20.301  0.00  0.00    +0.000 C 
BRANCH  24  25
ATOM     25  C   UNL     1       2.116  58.291  21.235  0.00  0.00    +0.000 C 
BRANCH  25  26
ATOM     26  C   UNL     1       0.855  57.559  20.777  0.00  0.00    +0.000 C 
BRANCH  26  27
ATOM     27  O   UNL     1       1.074  57.102  19.433  0.00  0.00    +0.000 OA
ATOM     28  H   UNL     1       0.368  56.442  19.282  0.00  0.00    +0.000 HD
ENDBRANCH  26  27
BRANCH  26  29
ATOM     29  C   UNL     1       0.488  56.348  21.640  0.00  0.00    +0.000 C 
BRANCH  29  30
ATOM     30  O   UNL     1      -0.577  55.644  20.992  0.00  0.00    +0.000 OA
ATOM     31  H   UNL     1      -0.287  55.484  20.076  0.00  0.00    +0.000 HD
ENDBRANCH  29  30
ENDBRANCH  26  29
ENDBRANCH  25  26
ENDBRANCH  24  25
ENDBRANCH  23  24
ENDBRANCH   2  23
TORSDOF 9
ENDMDL
MODEL 3
REMARK VINA RESULT:      -5.7     27.509     29.100
REMARK  Name = 
REMARK  9 active torsions:
REMARK  status: ('A' for Active; 'I' for Inactive)
REMARK    1  A    between atoms: O_1  and  N_7
REMARK    2  A    between atoms: O_1  and  C_20
REMARK    3  A    between atoms: O_2  and  C_14
REMARK    4  A    between atoms: O_3  and  C_18
REMARK    5  A    between atoms: O_4  and  C_25
REMARK    6  A    between atoms: C_8  and  C_10
REMARK    7  A    between atoms: C_17  and  C_18
REMARK    8  A    between atoms: C_17  and  C_20
REMARK    9  A    between atoms: C_18  and  C_25
REMARK                            x       y       z     vdW  Elec       q    Type
REMARK                         _______ _______ _______ _____ _____    ______ ____
ROOT
ATOM      1  N   UNL     1      -2.001  50.274  26.631  0.00  0.00    +0.000 NA
ATOM      2  N   UNL     1      -1.584  47.745  29.083  0.00  0.00    +0.000 NA
ATOM      3  C   UNL     1      -2.449  49.252  27.317  0.00  0.00    +0.000 C 
ATOM      4  C   UNL     1      -1.442  48.813  28.364  0.00  0.00    +0.000 C 
ATOM      5  C   UNL     1      -0.365  49.786  28.251  0.00  0.00    +0.000 A 
ATOM      6  C   UNL     1      -0.758  50.607  27.194  0.00  0.00    +0.000 A 
ATOM      7  C   UNL     1       0.826  49.971  28.931  0.00  0.00    +0.000 A 
ATOM      8  C   UNL     1       0.052  51.652  26.787  0.00  0.00    +0.000 A 
ATOM      9  C   UNL     1       1.645  51.027  28.523  0.00  0.00    +0.000 A 
ATOM     10  C   UNL     1       1.262  51.861  27.458  0.00  0.00    +0.000 A 
ENDROOT
BRANCH   3  12
ATOM     11  N   UNL     1      -5.945  48.436  26.797  0.00  0.00    +0.000 N 
ATOM     12  C   UNL     1      -3.741  48.677  27.022  0.00  0.00    +0.000 A 
ATOM     13  C   UNL     1      -4.015  47.374  26.487  0.00  0.00    +0.000 A 
ATOM     14  C   UNL     1      -5.400  47.249  26.370  0.00  0.00    +0.000 A 
ATOM     15  C   UNL     1      -4.961  49.314  27.171  0.00  0.00    +0.000 A 
ATOM     16  C   UNL     1      -3.214  46.277  26.102  0.00  0.00    +0.000 A 
ATOM     17  C   UNL     1      -6.023  46.091  25.889  0.00  0.00    +0.000 A 
ATOM     18  C   UNL     1      -3.819  45.111  25.619  0.00  0.00    +0.000 A 
ATOM     19  C   UNL     1      -5.204  45.022  25.516  0.00  0.00    +0.000 A 
ATOM     20  H   UNL     1      -6.935  48.629  26.800  0.00  0.00    +0.000 HD
BRANCH  15  21
ATOM     21  O   UNL     1      -5.242  50.553  27.559  0.00  0.00    +0.000 OA
ATOM     22  H   UNL     1      -5.805  50.544  28.349  0.00  0.00    +0.000 HD
ENDBRANCH  15  21
ENDBRANCH   3  12
BRANCH   2  23
ATOM     23  O   UNL     1      -0.499  47.535  29.938  0.00  0.00    +0.000 OA
BRANCH  23  24
ATOM     24  C   UNL     1      -0.368  46.133  30.160  0.00  0.00    +0.000 C 
BRANCH  24  25
ATOM     25  C   UNL     1       1.016  45.679  29.718  0.00  0.00    +0.000 C 
BRANCH  25  26
ATOM     26  C   UNL     1       1.055  45.066  28.318  0.00  0.00    +0.000 C 
BRANCH  26  27
ATOM     27  O   UNL     1       0.483  46.016  27.405  0.00  0.00    +0.000 OA
ATOM     28  H   UNL     1       1.214  46.239  26.795  0.00  0.00    +0.000 HD
ENDBRANCH  26  27
BRANCH  26  29
ATOM     29  C   UNL     1       2.465  44.721  27.827  0.00  0.00    +0.000 C 
BRANCH  29  30
ATOM     30  O   UNL     1       2.985  43.679  28.660  0.00  0.00    +0.000 OA
ATOM     31  H   UNL     1       2.961  42.862  28.130  0.00  0.00    +0.000 HD
ENDBRANCH  29  30
ENDBRANCH  26  29
ENDBRANCH  25  26
ENDBRANCH  24  25
ENDBRANCH  23  24
ENDBRANCH   2  23
TORSDOF 9
ENDMDL
MODEL 4
REMARK VINA RESULT:      -5.7     27.822     29.282
REMARK  Name = 
REMARK  9 active torsions:
REMARK  status: ('A' for Active; 'I' for Inactive)
REMARK    1  A    between atoms: O_1  and  N_7
REMARK    2  A    between atoms: O_1  and  C_20
REMARK    3  A    between atoms: O_2  and  C_14
REMARK    4  A    between atoms: O_3  and  C_18
REMARK    5  A    between atoms: O_4  and  C_25
REMARK    6  A    between atoms: C_8  and  C_10
REMARK    7  A    between atoms: C_17  and  C_18
REMARK    8  A    between atoms: C_17  and  C_20
REMARK    9  A    between atoms: C_18  and  C_25
REMARK                            x       y       z     vdW  Elec       q    Type
REMARK                         _______ _______ _______ _____ _____    ______ ____
ROOT
ATOM      1  N   UNL     1      -1.652  46.342  26.637  0.00  0.00    +0.000 NA
ATOM      2  N   UNL     1      -2.911  47.286  29.816  0.00  0.00    +0.000 NA
ATOM      3  C   UNL     1      -1.476  46.760  27.866  0.00  0.00    +0.000 C 
ATOM      4  C   UNL     1      -2.789  46.788  28.627  0.00  0.00    +0.000 C 
ATOM      5  C   UNL     1      -3.757  46.239  27.687  0.00  0.00    +0.000 A 
ATOM      6  C   UNL     1      -3.015  46.017  26.527  0.00  0.00    +0.000 A 
ATOM      7  C   UNL     1      -5.111  45.967  27.764  0.00  0.00    +0.000 A 
ATOM      8  C   UNL     1      -3.628  45.506  25.396  0.00  0.00    +0.000 A 
ATOM      9  C   UNL     1      -5.732  45.451  26.624  0.00  0.00    +0.000 A 
ATOM     10  C   UNL     1      -4.997  45.223  25.448  0.00  0.00    +0.000 A 
ENDROOT
BRANCH   3  12
ATOM     11  N   UNL     1       1.527  48.361  29.121  0.00  0.00    +0.000 N 
ATOM     12  C   UNL     1      -0.164  47.142  28.332  0.00  0.00    +0.000 A 
ATOM     13  C   UNL     1       0.993  46.303  28.467  0.00  0.00    +0.000 A 
ATOM     14  C   UNL     1       2.035  47.096  28.949  0.00  0.00    +0.000 A 
ATOM     15  C   UNL     1       0.200  48.401  28.776  0.00  0.00    +0.000 A 
ATOM     16  C   UNL     1       1.259  44.941  28.209  0.00  0.00    +0.000 A 
ATOM     17  C   UNL     1       3.322  46.600  29.189  0.00  0.00    +0.000 A 
ATOM     18  C   UNL     1       2.539  44.427  28.442  0.00  0.00    +0.000 A 
ATOM     19  C   UNL     1       3.555  45.247  28.925  0.00  0.00    +0.000 A 
ATOM     20  H   UNL     1       2.063  49.136  29.481  0.00  0.00    +0.000 HD
BRANCH  15  21
ATOM     21  O   UNL     1      -0.525  49.505  28.920  0.00  0.00    +0.000 OA
ATOM     22  H   UNL     1      -0.018  50.187  29.389  0.00  0.00    +0.000 HD
ENDBRANCH  15  21
ENDBRANCH   3  12
BRANCH   2  23
ATOM     23  O   UNL     1      -4.228  47.235  30.278  0.00  0.00    +0.000 OA
BRANCH  23  24
ATOM     24  C   UNL     1      -4.604  48.541  30.707  0.00  0.00    +0.000 C 
BRANCH  24  25
ATOM     25  C   UNL     1      -5.472  49.194  29.641  0.00  0.00    +0.000 C 
BRANCH  25  26
ATOM     26  C   UNL     1      -4.717  50.156  28.723  0.00  0.00    +0.000 C 
BRANCH  26  27
ATOM     27  O   UNL     1      -3.338  50.156  29.125  0.00  0.00    +0.000 OA
ATOM     28  H   UNL     1      -3.172  51.072  29.425  0.00  0.00    +0.000 HD
ENDBRANCH  26  27
BRANCH  26  29
ATOM     29  C   UNL     1      -4.783  49.783  27.239  0.00  0.00    +0.000 C 
BRANCH  29  30
ATOM     30  O   UNL     1      -3.444  49.716  26.736  0.00  0.00    +0.000 OA
ATOM     31  H   UNL     1      -2.880  49.451  27.484  0.00  0.00    +0.000 HD
ENDBRANCH  29  30
ENDBRANCH  26  29
ENDBRANCH  25  26
ENDBRANCH  24  25
ENDBRANCH  23  24
ENDBRANCH   2  23
TORSDOF 9
ENDMDL
MODEL 5
REMARK VINA RESULT:      -5.7     25.030     26.567
REMARK  Name = 
REMARK  9 active torsions:
REMARK  status: ('A' for Active; 'I' for Inactive)
REMARK    1  A    between atoms: O_1  and  N_7
REMARK    2  A    between atoms: O_1  and  C_20
REMARK    3  A    between atoms: O_2  and  C_14
REMARK    4  A    between atoms: O_3  and  C_18
REMARK    5  A    between atoms: O_4  and  C_25
REMARK    6  A    between atoms: C_8  and  C_10
REMARK    7  A    between atoms: C_17  and  C_18
REMARK    8  A    between atoms: C_17  and  C_20
REMARK    9  A    between atoms: C_18  and  C_25
REMARK                            x       y       z     vdW  Elec       q    Type
REMARK                         _______ _______ _______ _____ _____    ______ ____
ROOT
ATOM      1  N   UNL     1      -7.037  47.006  25.189  0.00  0.00    +0.000 NA
ATOM      2  N   UNL     1      -7.884  47.588  28.584  0.00  0.00    +0.000 NA
ATOM      3  C   UNL     1      -7.748  47.607  26.110  0.00  0.00    +0.000 C 
ATOM      4  C   UNL     1      -7.268  47.234  27.501  0.00  0.00    +0.000 C 
ATOM      5  C   UNL     1      -6.107  46.389  27.261  0.00  0.00    +0.000 A 
ATOM      6  C   UNL     1      -6.044  46.284  25.871  0.00  0.00    +0.000 A 
ATOM      7  C   UNL     1      -5.204  45.752  28.094  0.00  0.00    +0.000 A 
ATOM      8  C   UNL     1      -5.054  45.522  25.276  0.00  0.00    +0.000 A 
ATOM      9  C   UNL     1      -4.203  44.984  27.495  0.00  0.00    +0.000 A 
ATOM     10  C   UNL     1      -4.129  44.868  26.096  0.00  0.00    +0.000 A 
ENDROOT
BRANCH   3  12
ATOM     11  N   UNL     1     -10.773  49.204  24.903  0.00  0.00    +0.000 N 
ATOM     12  C   UNL     1      -8.842  48.476  25.744  0.00  0.00    +0.000 A 
ATOM     13  C   UNL     1      -8.982  49.874  26.039  0.00  0.00    +0.000 A 
ATOM     14  C   UNL     1     -10.191  50.301  25.490  0.00  0.00    +0.000 A 
ATOM     15  C   UNL     1      -9.986  48.093  25.065  0.00  0.00    +0.000 A 
ATOM     16  C   UNL     1      -8.185  50.825  26.713  0.00  0.00    +0.000 A 
ATOM     17  C   UNL     1     -10.644  51.623  25.579  0.00  0.00    +0.000 A 
ATOM     18  C   UNL     1      -8.621  52.150  26.813  0.00  0.00    +0.000 A 
ATOM     19  C   UNL     1      -9.834  52.542  26.253  0.00  0.00    +0.000 A 
ATOM     20  H   UNL     1     -11.671  49.224  24.444  0.00  0.00    +0.000 HD
BRANCH  15  21
ATOM     21  O   UNL     1     -10.371  46.896  24.638  0.00  0.00    +0.000 OA
ATOM     22  H   UNL     1     -11.070  46.539  25.209  0.00  0.00    +0.000 HD
ENDBRANCH  15  21
ENDBRANCH   3  12
BRANCH   2  23
ATOM     23  O   UNL     1      -7.269  47.080  29.731  0.00  0.00    +0.000 OA
BRANCH  23  24
ATOM     24  C   UNL     1      -6.864  48.177  30.546  0.00  0.00    +0.000 C 
BRANCH  24  25
ATOM     25  C   UNL     1      -7.152  47.856  32.005  0.00  0.00    +0.000 C 
BRANCH  25  26
ATOM     26  C   UNL     1      -8.621  48.011  32.401  0.00  0.00    +0.000 C 
BRANCH  26  27
ATOM     27  O   UNL     1      -9.359  48.368  31.223  0.00  0.00    +0.000 OA
ATOM     28  H   UNL     1      -8.673  48.510  30.540  0.00  0.00    +0.000 HD
ENDBRANCH  26  27
BRANCH  26  29
ATOM     29  C   UNL     1      -9.245  46.742  32.991  0.00  0.00    +0.000 C 
BRANCH  29  30
ATOM     30  O   UNL     1      -8.195  45.803  33.241  0.00  0.00    +0.000 OA
ATOM     31  H   UNL     1      -8.623  44.940  33.389  0.00  0.00    +0.000 HD
ENDBRANCH  29  30
ENDBRANCH  26  29
ENDBRANCH  25  26
ENDBRANCH  24  25
ENDBRANCH  23  24
ENDBRANCH   2  23
TORSDOF 9
ENDMDL
MODEL 6
REMARK VINA RESULT:      -5.6     25.819     27.110
REMARK  Name = 
REMARK  9 active torsions:
REMARK  status: ('A' for Active; 'I' for Inactive)
REMARK    1  A    between atoms: O_1  and  N_7
REMARK    2  A    between atoms: O_1  and  C_20
REMARK    3  A    between atoms: O_2  and  C_14
REMARK    4  A    between atoms: O_3  and  C_18
REMARK    5  A    between atoms: O_4  and  C_25
REMARK    6  A    between atoms: C_8  and  C_10
REMARK    7  A    between atoms: C_17  and  C_18
REMARK    8  A    between atoms: C_17  and  C_20
REMARK    9  A    between atoms: C_18  and  C_25
REMARK                            x       y       z     vdW  Elec       q    Type
REMARK                         _______ _______ _______ _____ _____    ______ ____
ROOT
ATOM      1  N   UNL     1      -6.618  46.795  25.366  0.00  0.00    +0.000 NA
ATOM      2  N   UNL     1      -6.953  48.401  28.512  0.00  0.00    +0.000 NA
ATOM      3  C   UNL     1      -6.124  47.195  26.511  0.00  0.00    +0.000 C 
ATOM      4  C   UNL     1      -7.202  47.810  27.386  0.00  0.00    +0.000 C 
ATOM      5  C   UNL     1      -8.427  47.633  26.618  0.00  0.00    +0.000 A 
ATOM      6  C   UNL     1      -7.999  47.044  25.428  0.00  0.00    +0.000 A 
ATOM      7  C   UNL     1      -9.754  47.942  26.859  0.00  0.00    +0.000 A 
ATOM      8  C   UNL     1      -8.913  46.745  24.434  0.00  0.00    +0.000 A 
ATOM      9  C   UNL     1     -10.678  47.640  25.856  0.00  0.00    +0.000 A 
ATOM     10  C   UNL     1     -10.262  47.047  24.651  0.00  0.00    +0.000 A 
ENDROOT
BRANCH   3  12
ATOM     11  N   UNL     1      -2.739  46.121  27.250  0.00  0.00    +0.000 N 
ATOM     12  C   UNL     1      -4.717  47.044  26.799  0.00  0.00    +0.000 A 
ATOM     13  C   UNL     1      -3.730  48.082  26.901  0.00  0.00    +0.000 A 
ATOM     14  C   UNL     1      -2.509  47.474  27.195  0.00  0.00    +0.000 A 
ATOM     15  C   UNL     1      -4.057  45.843  26.992  0.00  0.00    +0.000 A 
ATOM     16  C   UNL     1      -3.762  49.488  26.784  0.00  0.00    +0.000 A 
ATOM     17  C   UNL     1      -1.323  48.196  27.376  0.00  0.00    +0.000 A 
ATOM     18  C   UNL     1      -2.587  50.226  26.961  0.00  0.00    +0.000 A 
ATOM     19  C   UNL     1      -1.385  49.587  27.254  0.00  0.00    +0.000 A 
ATOM     20  H   UNL     1      -2.020  45.437  27.427  0.00  0.00    +0.000 HD
BRANCH  15  21
ATOM     21  O   UNL     1      -4.507  44.595  26.925  0.00  0.00    +0.000 OA
ATOM     22  H   UNL     1      -5.105  44.408  27.666  0.00  0.00    +0.000 HD
ENDBRANCH  15  21
ENDBRANCH   3  12
BRANCH   2  23
ATOM     23  O   UNL     1      -8.106  48.924  29.101  0.00  0.00    +0.000 OA
BRANCH  23  24
ATOM     24  C   UNL     1      -8.345  48.223  30.319  0.00  0.00    +0.000 C 
BRANCH  24  25
ATOM     25  C   UNL     1      -7.084  48.242  31.169  0.00  0.00    +0.000 C 
BRANCH  25  26
ATOM     26  C   UNL     1      -7.310  47.860  32.632  0.00  0.00    +0.000 C 
BRANCH  26  27
ATOM     27  O   UNL     1      -7.365  49.072  33.400  0.00  0.00    +0.000 OA
ATOM     28  H   UNL     1      -7.883  49.689  32.844  0.00  0.00    +0.000 HD
ENDBRANCH  26  27
BRANCH  26  29
ATOM     29  C   UNL     1      -8.604  47.078  32.880  0.00  0.00    +0.000 C 
BRANCH  29  30
ATOM     30  O   UNL     1      -8.253  45.737  33.237  0.00  0.00    +0.000 OA
ATOM     31  H   UNL     1      -7.512  45.802  33.866  0.00  0.00    +0.000 HD
ENDBRANCH  29  30
ENDBRANCH  26  29
ENDBRANCH  25  26
ENDBRANCH  24  25
ENDBRANCH  23  24
ENDBRANCH   2  23
TORSDOF 9
ENDMDL
MODEL 7
REMARK VINA RESULT:      -5.6     27.543     29.485
REMARK  Name = 
REMARK  9 active torsions:
REMARK  status: ('A' for Active; 'I' for Inactive)
REMARK    1  A    between atoms: O_1  and  N_7
REMARK    2  A    between atoms: O_1  and  C_20
REMARK    3  A    between atoms: O_2  and  C_14
REMARK    4  A    between atoms: O_3  and  C_18
REMARK    5  A    between atoms: O_4  and  C_25
REMARK    6  A    between atoms: C_8  and  C_10
REMARK    7  A    between atoms: C_17  and  C_18
REMARK    8  A    between atoms: C_17  and  C_20
REMARK    9  A    between atoms: C_18  and  C_25
REMARK                            x       y       z     vdW  Elec       q    Type
REMARK                         _______ _______ _______ _____ _____    ______ ____
ROOT
ATOM      1  N   UNL     1      -4.654  49.026  26.885  0.00  0.00    +0.000 NA
ATOM      2  N   UNL     1      -1.434  47.824  27.762  0.00  0.00    +0.000 NA
ATOM      3  C   UNL     1      -3.446  49.212  27.356  0.00  0.00    +0.000 C 
ATOM      4  C   UNL     1      -2.617  47.945  27.248  0.00  0.00    +0.000 C 
ATOM      5  C   UNL     1      -3.491  47.005  26.562  0.00  0.00    +0.000 A 
ATOM      6  C   UNL     1      -4.684  47.709  26.396  0.00  0.00    +0.000 A 
ATOM      7  C   UNL     1      -3.336  45.698  26.133  0.00  0.00    +0.000 A 
ATOM      8  C   UNL     1      -5.769  47.106  25.785  0.00  0.00    +0.000 A 
ATOM      9  C   UNL     1      -4.429  45.088  25.514  0.00  0.00    +0.000 A 
ATOM     10  C   UNL     1      -5.638  45.785  25.342  0.00  0.00    +0.000 A 
ENDROOT
BRANCH   3  12
ATOM     11  N   UNL     1      -3.066  52.359  29.119  0.00  0.00    +0.000 N 
ATOM     12  C   UNL     1      -3.059  50.491  27.904  0.00  0.00    +0.000 A 
ATOM     13  C   UNL     1      -1.887  51.258  27.587  0.00  0.00    +0.000 A 
ATOM     14  C   UNL     1      -1.927  52.423  28.353  0.00  0.00    +0.000 A 
ATOM     15  C   UNL     1      -3.746  51.193  28.878  0.00  0.00    +0.000 A 
ATOM     16  C   UNL     1      -0.798  51.077  26.707  0.00  0.00    +0.000 A 
ATOM     17  C   UNL     1      -0.939  53.413  28.287  0.00  0.00    +0.000 A 
ATOM     18  C   UNL     1       0.199  52.055  26.627  0.00  0.00    +0.000 A 
ATOM     19  C   UNL     1       0.127  53.206  27.407  0.00  0.00    +0.000 A 
ATOM     20  H   UNL     1      -3.334  53.067  29.785  0.00  0.00    +0.000 HD
BRANCH  15  21
ATOM     21  O   UNL     1      -4.847  50.876  29.551  0.00  0.00    +0.000 OA
ATOM     22  H   UNL     1      -5.622  51.311  29.161  0.00  0.00    +0.000 HD
ENDBRANCH  15  21
ENDBRANCH   3  12
BRANCH   2  23
ATOM     23  O   UNL     1      -0.901  46.548  27.568  0.00  0.00    +0.000 OA
BRANCH  23  24
ATOM     24  C   UNL     1       0.443  46.545  28.040  0.00  0.00    +0.000 C 
BRANCH  24  25
ATOM     25  C   UNL     1       0.682  45.299  28.880  0.00  0.00    +0.000 C 
BRANCH  25  26
ATOM     26  C   UNL     1       0.016  45.336  30.256  0.00  0.00    +0.000 C 
BRANCH  26  27
ATOM     27  O   UNL     1      -0.574  46.634  30.425  0.00  0.00    +0.000 OA
ATOM     28  H   UNL     1      -1.458  46.555  30.014  0.00  0.00    +0.000 HD
ENDBRANCH  26  27
BRANCH  26  29
ATOM     29  C   UNL     1      -1.081  44.283  30.446  0.00  0.00    +0.000 C 
BRANCH  29  30
ATOM     30  O   UNL     1      -0.496  43.138  31.077  0.00  0.00    +0.000 OA
ATOM     31  H   UNL     1      -0.881  43.086  31.970  0.00  0.00    +0.000 HD
ENDBRANCH  29  30
ENDBRANCH  26  29
ENDBRANCH  25  26
ENDBRANCH  24  25
ENDBRANCH  23  24
ENDBRANCH   2  23
TORSDOF 9
ENDMDL
MODEL 8
REMARK VINA RESULT:      -5.6     22.829     25.295
REMARK  Name = 
REMARK  9 active torsions:
REMARK  status: ('A' for Active; 'I' for Inactive)
REMARK    1  A    between atoms: O_1  and  N_7
REMARK    2  A    between atoms: O_1  and  C_20
REMARK    3  A    between atoms: O_2  and  C_14
REMARK    4  A    between atoms: O_3  and  C_18
REMARK    5  A    between atoms: O_4  and  C_25
REMARK    6  A    between atoms: C_8  and  C_10
REMARK    7  A    between atoms: C_17  and  C_18
REMARK    8  A    between atoms: C_17  and  C_20
REMARK    9  A    between atoms: C_18  and  C_25
REMARK                            x       y       z     vdW  Elec       q    Type
REMARK                         _______ _______ _______ _____ _____    ______ ____
ROOT
ATOM      1  N   UNL     1       9.195  41.081   8.260  0.00  0.00    +0.000 NA
ATOM      2  N   UNL     1       6.711  39.245   6.516  0.00  0.00    +0.000 NA
ATOM      3  C   UNL     1       8.618  39.952   7.931  0.00  0.00    +0.000 C 
ATOM      4  C   UNL     1       7.520  40.177   6.907  0.00  0.00    +0.000 C 
ATOM      5  C   UNL     1       7.594  41.602   6.614  0.00  0.00    +0.000 A 
ATOM      6  C   UNL     1       8.594  42.072   7.465  0.00  0.00    +0.000 A 
ATOM      7  C   UNL     1       6.900  42.434   5.754  0.00  0.00    +0.000 A 
ATOM      8  C   UNL     1       8.926  43.416   7.472  0.00  0.00    +0.000 A 
ATOM      9  C   UNL     1       7.235  43.791   5.758  0.00  0.00    +0.000 A 
ATOM     10  C   UNL     1       8.239  44.279   6.611  0.00  0.00    +0.000 A 
ENDROOT
BRANCH   3  12
ATOM     11  N   UNL     1       9.356  37.097  10.042  0.00  0.00    +0.000 N 
ATOM     12  C   UNL     1       9.033  38.710   8.539  0.00  0.00    +0.000 A 
ATOM     13  C   UNL     1       9.721  37.617   7.911  0.00  0.00    +0.000 A 
ATOM     14  C   UNL     1       9.919  36.632   8.878  0.00  0.00    +0.000 A 
ATOM     15  C   UNL     1       8.800  38.335   9.850  0.00  0.00    +0.000 A 
ATOM     16  C   UNL     1      10.209  37.378   6.608  0.00  0.00    +0.000 A 
ATOM     17  C   UNL     1      10.575  35.424   8.612  0.00  0.00    +0.000 A 
ATOM     18  C   UNL     1      10.867  36.177   6.323  0.00  0.00    +0.000 A 
ATOM     19  C   UNL     1      11.046  35.215   7.313  0.00  0.00    +0.000 A 
ATOM     20  H   UNL     1       9.338  36.573  10.904  0.00  0.00    +0.000 HD
BRANCH  15  21
ATOM     21  O   UNL     1       8.138  38.960  10.818  0.00  0.00    +0.000 OA
ATOM     22  H   UNL     1       7.184  38.798  10.739  0.00  0.00    +0.000 HD
ENDBRANCH  15  21
ENDBRANCH   3  12
BRANCH   2  23
ATOM     23  O   UNL     1       5.762  39.716   5.606  0.00  0.00    +0.000 OA
BRANCH  23  24
ATOM     24  C   UNL     1       6.080  39.198   4.317  0.00  0.00    +0.000 C 
BRANCH  24  25
ATOM     25  C   UNL     1       4.798  38.998   3.522  0.00  0.00    +0.000 C 
BRANCH  25  26
ATOM     26  C   UNL     1       4.108  37.657   3.775  0.00  0.00    +0.000 C 
BRANCH  26  27
ATOM     27  O   UNL     1       4.336  37.297   5.147  0.00  0.00    +0.000 OA
ATOM     28  H   UNL     1       4.790  36.432   5.099  0.00  0.00    +0.000 HD
ENDBRANCH  26  27
BRANCH  26  29
ATOM     29  C   UNL     1       2.596  37.676   3.531  0.00  0.00    +0.000 C 
BRANCH  29  30
ATOM     30  O   UNL     1       2.000  36.658   4.342  0.00  0.00    +0.000 OA
ATOM     31  H   UNL     1       2.543  36.593   5.148  0.00  0.00    +0.000 HD
ENDBRANCH  29  30
ENDBRANCH  26  29
ENDBRANCH  25  26
ENDBRANCH  24  25
ENDBRANCH  23  24
ENDBRANCH   2  23
TORSDOF 9
ENDMDL
MODEL 9
REMARK VINA RESULT:      -5.4      2.503      4.297
REMARK  Name = 
REMARK  9 active torsions:
REMARK  status: ('A' for Active; 'I' for Inactive)
REMARK    1  A    between atoms: O_1  and  N_7
REMARK    2  A    between atoms: O_1  and  C_20
REMARK    3  A    between atoms: O_2  and  C_14
REMARK    4  A    between atoms: O_3  and  C_18
REMARK    5  A    between atoms: O_4  and  C_25
REMARK    6  A    between atoms: C_8  and  C_10
REMARK    7  A    between atoms: C_17  and  C_18
REMARK    8  A    between atoms: C_17  and  C_20
REMARK    9  A    between atoms: C_18  and  C_25
REMARK                            x       y       z     vdW  Elec       q    Type
REMARK                         _______ _______ _______ _____ _____    ______ ____
ROOT
ATOM      1  N   UNL     1     -16.636  39.360   6.275  0.00  0.00    +0.000 NA
ATOM      2  N   UNL     1     -19.747  40.943   5.640  0.00  0.00    +0.000 NA
ATOM      3  C   UNL     1     -17.945  39.352   6.242  0.00  0.00    +0.000 C 
ATOM      4  C   UNL     1     -18.486  40.645   5.661  0.00  0.00    +0.000 C 
ATOM      5  C   UNL     1     -17.294  41.387   5.274  0.00  0.00    +0.000 A 
ATOM      6  C   UNL     1     -16.239  40.572   5.685  0.00  0.00    +0.000 A 
ATOM      7  C   UNL     1     -17.091  42.613   4.665  0.00  0.00    +0.000 A 
ATOM      8  C   UNL     1     -14.931  40.979   5.490  0.00  0.00    +0.000 A 
ATOM      9  C   UNL     1     -15.771  43.025   4.467  0.00  0.00    +0.000 A 
ATOM     10  C   UNL     1     -14.698  42.214   4.877  0.00  0.00    +0.000 A 
ENDROOT
BRANCH   3  12
ATOM     11  N   UNL     1     -20.260  36.989   7.730  0.00  0.00    +0.000 N 
ATOM     12  C   UNL     1     -18.686  38.216   6.738  0.00  0.00    +0.000 A 
ATOM     13  C   UNL     1     -18.358  36.826   6.590  0.00  0.00    +0.000 A 
ATOM     14  C   UNL     1     -19.352  36.087   7.230  0.00  0.00    +0.000 A 
ATOM     15  C   UNL     1     -19.887  38.272   7.424  0.00  0.00    +0.000 A 
ATOM     16  C   UNL     1     -17.296  36.124   5.980  0.00  0.00    +0.000 A 
ATOM     17  C   UNL     1     -19.342  34.689   7.292  0.00  0.00    +0.000 A 
ATOM     18  C   UNL     1     -17.268  34.726   6.031  0.00  0.00    +0.000 A 
ATOM     19  C   UNL     1     -18.278  34.020   6.679  0.00  0.00    +0.000 A 
ATOM     20  H   UNL     1     -21.097  36.724   8.227  0.00  0.00    +0.000 HD
BRANCH  15  21
ATOM     21  O   UNL     1     -20.644  39.315   7.747  0.00  0.00    +0.000 OA
ATOM     22  H   UNL     1     -20.268  40.134   7.386  0.00  0.00    +0.000 HD
ENDBRANCH  15  21
ENDBRANCH   3  12
BRANCH   2  23
ATOM     23  O   UNL     1     -19.982  42.208   5.097  0.00  0.00    +0.000 OA
BRANCH  23  24
ATOM     24  C   UNL     1     -20.837  42.061   3.967  0.00  0.00    +0.000 C 
BRANCH  24  25
ATOM     25  C   UNL     1     -22.255  42.460   4.350  0.00  0.00    +0.000 C 
BRANCH  25  26
ATOM     26  C   UNL     1     -23.013  41.393   5.140  0.00  0.00    +0.000 C 
BRANCH  26  27
ATOM     27  O   UNL     1     -22.439  41.328   6.455  0.00  0.00    +0.000 OA
ATOM     28  H   UNL     1     -22.586  42.220   6.829  0.00  0.00    +0.000 HD
ENDBRANCH  26  27
BRANCH  26  29
ATOM     29  C   UNL     1     -24.513  41.672   5.285  0.00  0.00    +0.000 C 
BRANCH  29  30
ATOM     30  O   UNL     1     -24.695  43.087   5.392  0.00  0.00    +0.000 OA
ATOM     31  H   UNL     1     -25.058  43.255   6.280  0.00  0.00    +0.000 HD
ENDBRANCH  29  30
ENDBRANCH  26  29
ENDBRANCH  25  26
ENDBRANCH  24  25
ENDBRANCH  23  24
ENDBRANCH   2  23
TORSDOF 9
ENDMDL
