MODEL 1
REMARK VINA RESULT:      -6.1      0.000      0.000
REMARK  Name = 
REMARK  6 active torsions:
REMARK  status: ('A' for Active; 'I' for Inactive)
REMARK    1  A    between atoms: O_3  and  C_16
REMARK    2  A    between atoms: O_4  and  C_17
REMARK    3  A    between atoms: O_4  and  C_22
REMARK    4  A    between atoms: O_5  and  C_19
REMARK    5  A    between atoms: O_5  and  C_23
REMARK    6  A    between atoms: O_6  and  C_21
REMARK                            x       y       z     vdW  Elec       q    Type
REMARK                         _______ _______ _______ _____ _____    ______ ____
ROOT
ATOM      1  O   UNL     1     -14.437  41.938   3.945  0.00  0.00    +0.000 OA
ATOM      2  O   UNL     1     -18.009  41.591   5.590  0.00  0.00    +0.000 OA
ATOM      3  C   UNL     1     -16.218  43.172   5.016  0.00  0.00    +0.000 C 
ATOM      4  C   UNL     1     -15.167  42.071   5.191  0.00  0.00    +0.000 C 
ATOM      5  C   UNL     1     -16.357  43.150   3.533  0.00  0.00    +0.000 A 
ATOM      6  C   UNL     1     -17.458  42.884   5.837  0.00  0.00    +0.000 C 
ATOM      7  C   UNL     1     -15.744  40.730   5.592  0.00  0.00    +0.000 A 
ATOM      8  C   UNL     1     -15.283  42.457   2.996  0.00  0.00    +0.000 A 
ATOM      9  C   UNL     1     -17.129  40.554   5.754  0.00  0.00    +0.000 A 
ATOM     10  C   UNL     1     -17.303  43.740   2.711  0.00  0.00    +0.000 A 
ATOM     11  C   UNL     1     -14.877  39.642   5.800  0.00  0.00    +0.000 A 
ATOM     12  C   UNL     1     -15.121  42.337   1.630  0.00  0.00    +0.000 A 
ATOM     13  C   UNL     1     -17.638  39.287   6.071  0.00  0.00    +0.000 A 
ATOM     14  C   UNL     1     -17.158  43.614   1.322  0.00  0.00    +0.000 A 
ATOM     15  C   UNL     1     -16.068  42.914   0.775  0.00  0.00    +0.000 A 
ATOM     16  C   UNL     1     -15.377  38.397   6.169  0.00  0.00    +0.000 A 
ATOM     17  C   UNL     1     -16.747  38.233   6.307  0.00  0.00    +0.000 A 
ENDROOT
BRANCH  12  18
ATOM     18  O   UNL     1     -14.052  41.657   1.117  0.00  0.00    +0.000 OA
ATOM     19  H   UNL     1     -13.281  42.229   1.290  0.00  0.00    +0.000 HD
ENDBRANCH  12  18
BRANCH  13  20
ATOM     20  O   UNL     1     -18.964  38.967   6.245  0.00  0.00    +0.000 OA
ATOM     21  C   UNL     1     -19.667  38.689   5.036  0.00  0.00    +0.000 C 
ENDBRANCH  13  20
BRANCH  15  22
ATOM     22  O   UNL     1     -15.821  42.733  -0.564  0.00  0.00    +0.000 OA
ATOM     23  C   UNL     1     -15.482  43.893  -1.315  0.00  0.00    +0.000 C 
ENDBRANCH  15  22
BRANCH  17  24
ATOM     24  O   UNL     1     -17.219  37.000   6.669  0.00  0.00    +0.000 OA
ATOM     25  H   UNL     1     -17.991  36.848   6.092  0.00  0.00    +0.000 HD
ENDBRANCH  17  24
TORSDOF 4
ENDMDL
MODEL 2
REMARK VINA RESULT:      -5.8      1.068      6.364
REMARK  Name = 
REMARK  6 active torsions:
REMARK  status: ('A' for Active; 'I' for Inactive)
REMARK    1  A    between atoms: O_3  and  C_16
REMARK    2  A    between atoms: O_4  and  C_17
REMARK    3  A    between atoms: O_4  and  C_22
REMARK    4  A    between atoms: O_5  and  C_19
REMARK    5  A    between atoms: O_5  and  C_23
REMARK    6  A    between atoms: O_6  and  C_21
REMARK                            x       y       z     vdW  Elec       q    Type
REMARK                         _______ _______ _______ _____ _____    ______ ____
ROOT
ATOM      1  O   UNL     1     -17.792  41.826   5.841  0.00  0.00    +0.000 OA
ATOM      2  O   UNL     1     -14.628  42.148   3.502  0.00  0.00    +0.000 OA
ATOM      3  C   UNL     1     -15.380  41.992   5.836  0.00  0.00    +0.000 C 
ATOM      4  C   UNL     1     -16.692  42.698   5.477  0.00  0.00    +0.000 C 
ATOM      5  C   UNL     1     -15.850  40.578   5.834  0.00  0.00    +0.000 A 
ATOM      6  C   UNL     1     -14.275  42.362   4.868  0.00  0.00    +0.000 C 
ATOM      7  C   UNL     1     -16.803  43.082   4.017  0.00  0.00    +0.000 A 
ATOM      8  C   UNL     1     -17.237  40.571   5.872  0.00  0.00    +0.000 A 
ATOM      9  C   UNL     1     -15.780  42.774   3.105  0.00  0.00    +0.000 A 
ATOM     10  C   UNL     1     -15.133  39.394   5.862  0.00  0.00    +0.000 A 
ATOM     11  C   UNL     1     -17.956  43.752   3.568  0.00  0.00    +0.000 A 
ATOM     12  C   UNL     1     -17.942  39.387   5.945  0.00  0.00    +0.000 A 
ATOM     13  C   UNL     1     -15.937  43.092   1.749  0.00  0.00    +0.000 A 
ATOM     14  C   UNL     1     -15.838  38.183   5.921  0.00  0.00    +0.000 A 
ATOM     15  C   UNL     1     -17.243  38.173   5.964  0.00  0.00    +0.000 A 
ATOM     16  C   UNL     1     -18.088  44.116   2.231  0.00  0.00    +0.000 A 
ATOM     17  C   UNL     1     -17.079  43.790   1.339  0.00  0.00    +0.000 A 
ENDROOT
BRANCH  12  18
ATOM     18  O   UNL     1     -19.308  39.397   5.991  0.00  0.00    +0.000 OA
ATOM     19  H   UNL     1     -19.555  38.540   6.385  0.00  0.00    +0.000 HD
ENDBRANCH  12  18
BRANCH  13  20
ATOM     20  O   UNL     1     -15.029  42.839   0.747  0.00  0.00    +0.000 OA
ATOM     21  C   UNL     1     -15.079  41.512   0.227  0.00  0.00    +0.000 C 
ENDBRANCH  13  20
BRANCH  15  22
ATOM     22  O   UNL     1     -18.036  37.053   6.030  0.00  0.00    +0.000 OA
ATOM     23  C   UNL     1     -18.004  36.318   7.248  0.00  0.00    +0.000 C 
ENDBRANCH  15  22
BRANCH  17  24
ATOM     24  O   UNL     1     -17.228  44.157   0.028  0.00  0.00    +0.000 OA
ATOM     25  H   UNL     1     -16.734  44.994  -0.055  0.00  0.00    +0.000 HD
ENDBRANCH  17  24
TORSDOF 4
ENDMDL
MODEL 3
REMARK VINA RESULT:      -5.8     24.134     25.998
REMARK  Name = 
REMARK  6 active torsions:
REMARK  status: ('A' for Active; 'I' for Inactive)
REMARK    1  A    between atoms: O_3  and  C_16
REMARK    2  A    between atoms: O_4  and  C_17
REMARK    3  A    between atoms: O_4  and  C_22
REMARK    4  A    between atoms: O_5  and  C_19
REMARK    5  A    between atoms: O_5  and  C_23
REMARK    6  A    between atoms: O_6  and  C_21
REMARK                            x       y       z     vdW  Elec       q    Type
REMARK                         _______ _______ _______ _____ _____    ______ ____
ROOT
ATOM      1  O   UNL     1      -6.324  45.645  26.462  0.00  0.00    +0.000 OA
ATOM      2  O   UNL     1      -7.512  49.230  27.612  0.00  0.00    +0.000 OA
ATOM      3  C   UNL     1      -6.796  47.015  28.396  0.00  0.00    +0.000 C 
ATOM      4  C   UNL     1      -7.386  46.362  27.142  0.00  0.00    +0.000 C 
ATOM      5  C   UNL     1      -5.363  47.078  27.995  0.00  0.00    +0.000 A 
ATOM      6  C   UNL     1      -7.491  48.323  28.713  0.00  0.00    +0.000 C 
ATOM      7  C   UNL     1      -8.036  47.341  26.188  0.00  0.00    +0.000 A 
ATOM      8  C   UNL     1      -5.170  46.242  26.905  0.00  0.00    +0.000 A 
ATOM      9  C   UNL     1      -8.052  48.719  26.461  0.00  0.00    +0.000 A 
ATOM     10  C   UNL     1      -4.300  47.755  28.567  0.00  0.00    +0.000 A 
ATOM     11  C   UNL     1      -8.629  46.860  25.006  0.00  0.00    +0.000 A 
ATOM     12  C   UNL     1      -3.915  46.056  26.362  0.00  0.00    +0.000 A 
ATOM     13  C   UNL     1      -8.612  49.607  25.531  0.00  0.00    +0.000 A 
ATOM     14  C   UNL     1      -3.021  47.586  28.016  0.00  0.00    +0.000 A 
ATOM     15  C   UNL     1      -2.822  46.737  26.915  0.00  0.00    +0.000 A 
ATOM     16  C   UNL     1      -9.233  47.735  24.109  0.00  0.00    +0.000 A 
ATOM     17  C   UNL     1      -9.225  49.094  24.382  0.00  0.00    +0.000 A 
ENDROOT
BRANCH  12  18
ATOM     18  O   UNL     1      -3.740  45.222  25.293  0.00  0.00    +0.000 OA
ATOM     19  H   UNL     1      -3.959  44.333  25.628  0.00  0.00    +0.000 HD
ENDBRANCH  12  18
BRANCH  13  20
ATOM     20  O   UNL     1      -8.683  50.974  25.659  0.00  0.00    +0.000 OA
ATOM     21  C   UNL     1      -9.765  51.435  26.465  0.00  0.00    +0.000 C 
ENDBRANCH  13  20
BRANCH  15  22
ATOM     22  O   UNL     1      -1.619  46.489  26.299  0.00  0.00    +0.000 OA
ATOM     23  C   UNL     1      -0.471  46.428  27.138  0.00  0.00    +0.000 C 
ENDBRANCH  15  22
BRANCH  17  24
ATOM     24  O   UNL     1      -9.824  49.939  23.486  0.00  0.00    +0.000 OA
ATOM     25  H   UNL     1     -10.121  50.700  24.021  0.00  0.00    +0.000 HD
ENDBRANCH  17  24
TORSDOF 4
ENDMDL
MODEL 4
REMARK VINA RESULT:      -5.7     23.294     25.155
REMARK  Name = 
REMARK  6 active torsions:
REMARK  status: ('A' for Active; 'I' for Inactive)
REMARK    1  A    between atoms: O_3  and  C_16
REMARK    2  A    between atoms: O_4  and  C_17
REMARK    3  A    between atoms: O_4  and  C_22
REMARK    4  A    between atoms: O_5  and  C_19
REMARK    5  A    between atoms: O_5  and  C_23
REMARK    6  A    between atoms: O_6  and  C_21
REMARK                            x       y       z     vdW  Elec       q    Type
REMARK                         _______ _______ _______ _____ _____    ______ ____
ROOT
ATOM      1  O   UNL     1      -8.069  48.338  28.352  0.00  0.00    +0.000 OA
ATOM      2  O   UNL     1      -9.908  49.677  25.125  0.00  0.00    +0.000 OA
ATOM      3  C   UNL     1      -7.905  49.916  26.528  0.00  0.00    +0.000 C 
ATOM      4  C   UNL     1      -8.705  49.503  27.768  0.00  0.00    +0.000 C 
ATOM      5  C   UNL     1      -7.246  48.617  26.214  0.00  0.00    +0.000 A 
ATOM      6  C   UNL     1      -8.806  50.516  25.468  0.00  0.00    +0.000 C 
ATOM      7  C   UNL     1     -10.162  49.206  27.488  0.00  0.00    +0.000 A 
ATOM      8  C   UNL     1      -7.354  47.785  27.318  0.00  0.00    +0.000 A 
ATOM      9  C   UNL     1     -10.684  49.290  26.185  0.00  0.00    +0.000 A 
ATOM     10  C   UNL     1      -6.552  48.213  25.086  0.00  0.00    +0.000 A 
ATOM     11  C   UNL     1     -11.005  48.832  28.550  0.00  0.00    +0.000 A 
ATOM     12  C   UNL     1      -6.771  46.534  27.329  0.00  0.00    +0.000 A 
ATOM     13  C   UNL     1     -12.024  48.954  25.948  0.00  0.00    +0.000 A 
ATOM     14  C   UNL     1      -5.966  46.938  25.079  0.00  0.00    +0.000 A 
ATOM     15  C   UNL     1      -6.071  46.095  26.198  0.00  0.00    +0.000 A 
ATOM     16  C   UNL     1     -12.350  48.551  28.324  0.00  0.00    +0.000 A 
ATOM     17  C   UNL     1     -12.846  48.621  27.032  0.00  0.00    +0.000 A 
ENDROOT
BRANCH  12  18
ATOM     18  O   UNL     1      -6.879  45.730  28.429  0.00  0.00    +0.000 OA
ATOM     19  H   UNL     1      -6.735  46.322  29.191  0.00  0.00    +0.000 HD
ENDBRANCH  12  18
BRANCH  13  20
ATOM     20  O   UNL     1     -12.661  48.977  24.730  0.00  0.00    +0.000 OA
ATOM     21  C   UNL     1     -13.077  50.274  24.306  0.00  0.00    +0.000 C 
ENDBRANCH  13  20
BRANCH  15  22
ATOM     22  O   UNL     1      -5.535  44.835  26.306  0.00  0.00    +0.000 OA
ATOM     23  C   UNL     1      -4.138  44.711  26.063  0.00  0.00    +0.000 C 
ENDBRANCH  15  22
BRANCH  17  24
ATOM     24  O   UNL     1     -14.171  48.340  26.830  0.00  0.00    +0.000 OA
ATOM     25  H   UNL     1     -14.637  48.806  27.550  0.00  0.00    +0.000 HD
ENDBRANCH  17  24
TORSDOF 4
ENDMDL
MODEL 5
REMARK VINA RESULT:      -5.6      2.442      6.829
REMARK  Name = 
REMARK  6 active torsions:
REMARK  status: ('A' for Active; 'I' for Inactive)
REMARK    1  A    between atoms: O_3  and  C_16
REMARK    2  A    between atoms: O_4  and  C_17
REMARK    3  A    between atoms: O_4  and  C_22
REMARK    4  A    between atoms: O_5  and  C_19
REMARK    5  A    between atoms: O_5  and  C_23
REMARK    6  A    between atoms: O_6  and  C_21
REMARK                            x       y       z     vdW  Elec       q    Type
REMARK                         _______ _______ _______ _____ _____    ______ ____
ROOT
ATOM      1  O   UNL     1     -16.047  38.041   6.619  0.00  0.00    +0.000 OA
ATOM      2  O   UNL     1     -17.063  39.549   3.114  0.00  0.00    +0.000 OA
ATOM      3  C   UNL     1     -15.896  37.698   4.231  0.00  0.00    +0.000 C 
ATOM      4  C   UNL     1     -15.519  38.617   5.397  0.00  0.00    +0.000 C 
ATOM      5  C   UNL     1     -17.074  37.008   4.828  0.00  0.00    +0.000 A 
ATOM      6  C   UNL     1     -16.121  38.488   2.959  0.00  0.00    +0.000 C 
ATOM      7  C   UNL     1     -16.016  40.038   5.244  0.00  0.00    +0.000 A 
ATOM      8  C   UNL     1     -17.068  37.224   6.198  0.00  0.00    +0.000 A 
ATOM      9  C   UNL     1     -16.773  40.427   4.126  0.00  0.00    +0.000 A 
ATOM     10  C   UNL     1     -18.036  36.203   4.241  0.00  0.00    +0.000 A 
ATOM     11  C   UNL     1     -15.718  40.983   6.243  0.00  0.00    +0.000 A 
ATOM     12  C   UNL     1     -18.015  36.643   7.016  0.00  0.00    +0.000 A 
ATOM     13  C   UNL     1     -17.267  41.736   4.039  0.00  0.00    +0.000 A 
ATOM     14  C   UNL     1     -19.013  35.618   5.059  0.00  0.00    +0.000 A 
ATOM     15  C   UNL     1     -19.007  35.833   6.448  0.00  0.00    +0.000 A 
ATOM     16  C   UNL     1     -16.162  42.297   6.132  0.00  0.00    +0.000 A 
ATOM     17  C   UNL     1     -16.924  42.661   5.032  0.00  0.00    +0.000 A 
ENDROOT
BRANCH  12  18
ATOM     18  O   UNL     1     -17.990  36.860   8.366  0.00  0.00    +0.000 OA
ATOM     19  H   UNL     1     -18.661  37.549   8.525  0.00  0.00    +0.000 HD
ENDBRANCH  12  18
BRANCH  13  20
ATOM     20  O   UNL     1     -18.029  42.248   3.016  0.00  0.00    +0.000 OA
ATOM     21  C   UNL     1     -17.284  42.635   1.863  0.00  0.00    +0.000 C 
ENDBRANCH  13  20
BRANCH  15  22
ATOM     22  O   UNL     1     -19.905  35.308   7.345  0.00  0.00    +0.000 OA
ATOM     23  C   UNL     1     -19.808  33.913   7.606  0.00  0.00    +0.000 C 
ENDBRANCH  15  22
BRANCH  17  24
ATOM     24  O   UNL     1     -17.351  43.959   4.941  0.00  0.00    +0.000 OA
ATOM     25  H   UNL     1     -18.209  43.908   4.478  0.00  0.00    +0.000 HD
ENDBRANCH  17  24
TORSDOF 4
ENDMDL
MODEL 6
REMARK VINA RESULT:      -5.0      2.827      4.669
REMARK  Name = 
REMARK  6 active torsions:
REMARK  status: ('A' for Active; 'I' for Inactive)
REMARK    1  A    between atoms: O_3  and  C_16
REMARK    2  A    between atoms: O_4  and  C_17
REMARK    3  A    between atoms: O_4  and  C_22
REMARK    4  A    between atoms: O_5  and  C_19
REMARK    5  A    between atoms: O_5  and  C_23
REMARK    6  A    between atoms: O_6  and  C_21
REMARK                            x       y       z     vdW  Elec       q    Type
REMARK                         _______ _______ _______ _____ _____    ______ ____
ROOT
ATOM      1  O   UNL     1     -15.263  39.155   5.802  0.00  0.00    +0.000 OA
ATOM      2  O   UNL     1     -17.765  36.103   5.930  0.00  0.00    +0.000 OA
ATOM      3  C   UNL     1     -17.160  38.236   6.987  0.00  0.00    +0.000 C 
ATOM      4  C   UNL     1     -15.690  38.026   6.607  0.00  0.00    +0.000 C 
ATOM      5  C   UNL     1     -17.570  39.161   5.893  0.00  0.00    +0.000 A 
ATOM      6  C   UNL     1     -17.893  36.916   7.095  0.00  0.00    +0.000 C 
ATOM      7  C   UNL     1     -15.427  36.736   5.862  0.00  0.00    +0.000 A 
ATOM      8  C   UNL     1     -16.429  39.669   5.290  0.00  0.00    +0.000 A 
ATOM      9  C   UNL     1     -16.473  35.852   5.547  0.00  0.00    +0.000 A 
ATOM     10  C   UNL     1     -18.828  39.580   5.496  0.00  0.00    +0.000 A 
ATOM     11  C   UNL     1     -14.112  36.422   5.473  0.00  0.00    +0.000 A 
ATOM     12  C   UNL     1     -16.512  40.607   4.281  0.00  0.00    +0.000 A 
ATOM     13  C   UNL     1     -16.206  34.692   4.807  0.00  0.00    +0.000 A 
ATOM     14  C   UNL     1     -18.928  40.522   4.462  0.00  0.00    +0.000 A 
ATOM     15  C   UNL     1     -17.774  41.041   3.852  0.00  0.00    +0.000 A 
ATOM     16  C   UNL     1     -13.838  35.243   4.786  0.00  0.00    +0.000 A 
ATOM     17  C   UNL     1     -14.883  34.390   4.466  0.00  0.00    +0.000 A 
ENDROOT
BRANCH  12  18
ATOM     18  O   UNL     1     -15.378  41.104   3.703  0.00  0.00    +0.000 OA
ATOM     19  H   UNL     1     -15.617  42.002   3.407  0.00  0.00    +0.000 HD
ENDBRANCH  12  18
BRANCH  13  20
ATOM     20  O   UNL     1     -17.129  33.750   4.417  0.00  0.00    +0.000 OA
ATOM     21  C   UNL     1     -17.512  32.838   5.445  0.00  0.00    +0.000 C 
ENDBRANCH  13  20
BRANCH  15  22
ATOM     22  O   UNL     1     -17.749  41.969   2.840  0.00  0.00    +0.000 OA
ATOM     23  C   UNL     1     -18.276  41.560   1.583  0.00  0.00    +0.000 C 
ENDBRANCH  15  22
BRANCH  17  24
ATOM     24  O   UNL     1     -14.593  33.235   3.788  0.00  0.00    +0.000 OA
ATOM     25  H   UNL     1     -13.630  33.119   3.896  0.00  0.00    +0.000 HD
ENDBRANCH  17  24
TORSDOF 4
ENDMDL
MODEL 7
REMARK VINA RESULT:      -5.0     27.159     29.242
REMARK  Name = 
REMARK  6 active torsions:
REMARK  status: ('A' for Active; 'I' for Inactive)
REMARK    1  A    between atoms: O_3  and  C_16
REMARK    2  A    between atoms: O_4  and  C_17
REMARK    3  A    between atoms: O_4  and  C_22
REMARK    4  A    between atoms: O_5  and  C_19
REMARK    5  A    between atoms: O_5  and  C_23
REMARK    6  A    between atoms: O_6  and  C_21
REMARK                            x       y       z     vdW  Elec       q    Type
REMARK                         _______ _______ _______ _____ _____    ______ ____
ROOT
ATOM      1  O   UNL     1       5.406  54.046  16.134  0.00  0.00    +0.000 OA
ATOM      2  O   UNL     1       2.827  57.019  15.823  0.00  0.00    +0.000 OA
ATOM      3  C   UNL     1       3.259  54.852  16.898  0.00  0.00    +0.000 C 
ATOM      4  C   UNL     1       4.072  54.393  15.683  0.00  0.00    +0.000 C 
ATOM      5  C   UNL     1       4.371  55.260  17.802  0.00  0.00    +0.000 A 
ATOM      6  C   UNL     1       2.248  55.913  16.513  0.00  0.00    +0.000 C 
ATOM      7  C   UNL     1       4.157  55.422  14.576  0.00  0.00    +0.000 A 
ATOM      8  C   UNL     1       5.557  54.731  17.314  0.00  0.00    +0.000 A 
ATOM      9  C   UNL     1       3.548  56.682  14.708  0.00  0.00    +0.000 A 
ATOM     10  C   UNL     1       4.348  55.976  18.986  0.00  0.00    +0.000 A 
ATOM     11  C   UNL     1       4.863  55.111  13.400  0.00  0.00    +0.000 A 
ATOM     12  C   UNL     1       6.746  54.897  17.995  0.00  0.00    +0.000 A 
ATOM     13  C   UNL     1       3.692  57.635  13.689  0.00  0.00    +0.000 A 
ATOM     14  C   UNL     1       5.552  56.165  19.680  0.00  0.00    +0.000 A 
ATOM     15  C   UNL     1       6.754  55.627  19.191  0.00  0.00    +0.000 A 
ATOM     16  C   UNL     1       4.960  56.037  12.365  0.00  0.00    +0.000 A 
ATOM     17  C   UNL     1       4.371  57.283  12.516  0.00  0.00    +0.000 A 
ENDROOT
BRANCH  12  18
ATOM     18  O   UNL     1       7.904  54.361  17.505  0.00  0.00    +0.000 OA
ATOM     19  H   UNL     1       7.863  53.415  17.735  0.00  0.00    +0.000 HD
ENDBRANCH  12  18
BRANCH  13  20
ATOM     20  O   UNL     1       3.167  58.906  13.689  0.00  0.00    +0.000 OA
ATOM     21  C   UNL     1       3.955  59.870  14.384  0.00  0.00    +0.000 C 
ENDBRANCH  13  20
BRANCH  15  22
ATOM     22  O   UNL     1       7.986  55.741  19.787  0.00  0.00    +0.000 OA
ATOM     23  C   UNL     1       8.449  57.060  20.051  0.00  0.00    +0.000 C 
ENDBRANCH  15  22
BRANCH  17  24
ATOM     24  O   UNL     1       4.478  58.180  11.487  0.00  0.00    +0.000 OA
ATOM     25  H   UNL     1       5.206  57.839  10.934  0.00  0.00    +0.000 HD
ENDBRANCH  17  24
TORSDOF 4
ENDMDL
MODEL 8
REMARK VINA RESULT:      -4.9      2.702      7.196
REMARK  Name = 
REMARK  6 active torsions:
REMARK  status: ('A' for Active; 'I' for Inactive)
REMARK    1  A    between atoms: O_3  and  C_16
REMARK    2  A    between atoms: O_4  and  C_17
REMARK    3  A    between atoms: O_4  and  C_22
REMARK    4  A    between atoms: O_5  and  C_19
REMARK    5  A    between atoms: O_5  and  C_23
REMARK    6  A    between atoms: O_6  and  C_21
REMARK                            x       y       z     vdW  Elec       q    Type
REMARK                         _______ _______ _______ _____ _____    ______ ____
ROOT
ATOM      1  O   UNL     1     -17.876  38.125   7.679  0.00  0.00    +0.000 OA
ATOM      2  O   UNL     1     -16.636  37.112   4.071  0.00  0.00    +0.000 OA
ATOM      3  C   UNL     1     -16.996  36.300   6.361  0.00  0.00    +0.000 C 
ATOM      4  C   UNL     1     -16.717  37.700   6.919  0.00  0.00    +0.000 C 
ATOM      5  C   UNL     1     -18.486  36.316   6.381  0.00  0.00    +0.000 A 
ATOM      6  C   UNL     1     -16.319  36.097   5.022  0.00  0.00    +0.000 C 
ATOM      7  C   UNL     1     -16.393  38.729   5.858  0.00  0.00    +0.000 A 
ATOM      8  C   UNL     1     -18.908  37.367   7.183  0.00  0.00    +0.000 A 
ATOM      9  C   UNL     1     -16.386  38.390   4.494  0.00  0.00    +0.000 A 
ATOM     10  C   UNL     1     -19.401  35.452   5.805  0.00  0.00    +0.000 A 
ATOM     11  C   UNL     1     -16.102  40.050   6.247  0.00  0.00    +0.000 A 
ATOM     12  C   UNL     1     -20.248  37.579   7.434  0.00  0.00    +0.000 A 
ATOM     13  C   UNL     1     -16.138  39.379   3.532  0.00  0.00    +0.000 A 
ATOM     14  C   UNL     1     -20.767  35.665   6.040  0.00  0.00    +0.000 A 
ATOM     15  C   UNL     1     -21.197  36.726   6.855  0.00  0.00    +0.000 A 
ATOM     16  C   UNL     1     -15.802  41.020   5.295  0.00  0.00    +0.000 A 
ATOM     17  C   UNL     1     -15.816  40.675   3.953  0.00  0.00    +0.000 A 
ENDROOT
BRANCH  12  18
ATOM     18  O   UNL     1     -20.647  38.614   8.233  0.00  0.00    +0.000 OA
ATOM     19  H   UNL     1     -20.701  38.234   9.130  0.00  0.00    +0.000 HD
ENDBRANCH  12  18
BRANCH  13  20
ATOM     20  O   UNL     1     -16.113  39.195   2.169  0.00  0.00    +0.000 OA
ATOM     21  C   UNL     1     -17.399  39.201   1.550  0.00  0.00    +0.000 C 
ENDBRANCH  13  20
BRANCH  15  22
ATOM     22  O   UNL     1     -22.502  37.026   7.160  0.00  0.00    +0.000 OA
ATOM     23  C   UNL     1     -23.375  37.276   6.064  0.00  0.00    +0.000 C 
ENDBRANCH  15  22
BRANCH  17  24
ATOM     24  O   UNL     1     -15.519  41.644   3.032  0.00  0.00    +0.000 OA
ATOM     25  H   UNL     1     -14.761  41.288   2.530  0.00  0.00    +0.000 HD
ENDBRANCH  17  24
TORSDOF 4
ENDMDL
MODEL 9
REMARK VINA RESULT:      -4.9      2.838      5.264
REMARK  Name = 
REMARK  6 active torsions:
REMARK  status: ('A' for Active; 'I' for Inactive)
REMARK    1  A    between atoms: O_3  and  C_16
REMARK    2  A    between atoms: O_4  and  C_17
REMARK    3  A    between atoms: O_4  and  C_22
REMARK    4  A    between atoms: O_5  and  C_19
REMARK    5  A    between atoms: O_5  and  C_23
REMARK    6  A    between atoms: O_6  and  C_21
REMARK                            x       y       z     vdW  Elec       q    Type
REMARK                         _______ _______ _______ _____ _____    ______ ____
ROOT
ATOM      1  O   UNL     1     -17.742  44.251  -0.147  0.00  0.00    +0.000 OA
ATOM      2  O   UNL     1     -15.340  43.211   2.808  0.00  0.00    +0.000 OA
ATOM      3  C   UNL     1     -15.723  43.035   0.388  0.00  0.00    +0.000 C 
ATOM      4  C   UNL     1     -17.238  43.119   0.605  0.00  0.00    +0.000 C 
ATOM      5  C   UNL     1     -15.447  44.448   0.007  0.00  0.00    +0.000 A 
ATOM      6  C   UNL     1     -15.021  42.494   1.616  0.00  0.00    +0.000 C 
ATOM      7  C   UNL     1     -17.643  43.246   2.057  0.00  0.00    +0.000 A 
ATOM      8  C   UNL     1     -16.648  45.063  -0.317  0.00  0.00    +0.000 A 
ATOM      9  C   UNL     1     -16.680  43.302   3.079  0.00  0.00    +0.000 A 
ATOM     10  C   UNL     1     -14.247  45.128  -0.114  0.00  0.00    +0.000 A 
ATOM     11  C   UNL     1     -19.009  43.314   2.387  0.00  0.00    +0.000 A 
ATOM     12  C   UNL     1     -16.683  46.366  -0.772  0.00  0.00    +0.000 A 
ATOM     13  C   UNL     1     -17.085  43.477   4.410  0.00  0.00    +0.000 A 
ATOM     14  C   UNL     1     -14.270  46.457  -0.561  0.00  0.00    +0.000 A 
ATOM     15  C   UNL     1     -15.484  47.081  -0.893  0.00  0.00    +0.000 A 
ATOM     16  C   UNL     1     -19.414  43.432   3.713  0.00  0.00    +0.000 A 
ATOM     17  C   UNL     1     -18.452  43.506   4.708  0.00  0.00    +0.000 A 
ENDROOT
BRANCH  12  18
ATOM     18  O   UNL     1     -17.873  46.954  -1.095  0.00  0.00    +0.000 OA
ATOM     19  H   UNL     1     -18.515  46.598  -0.453  0.00  0.00    +0.000 HD
ENDBRANCH  12  18
BRANCH  13  20
ATOM     20  O   UNL     1     -16.256  43.563   5.504  0.00  0.00    +0.000 OA
ATOM     21  C   UNL     1     -15.829  42.304   6.020  0.00  0.00    +0.000 C 
ENDBRANCH  13  20
BRANCH  15  22
ATOM     22  O   UNL     1     -15.627  48.370  -1.347  0.00  0.00    +0.000 OA
ATOM     23  C   UNL     1     -14.657  49.314  -0.907  0.00  0.00    +0.000 C 
ENDBRANCH  15  22
BRANCH  17  24
ATOM     24  O   UNL     1     -18.871  43.623   6.007  0.00  0.00    +0.000 OA
ATOM     25  H   UNL     1     -18.050  43.721   6.526  0.00  0.00    +0.000 HD
ENDBRANCH  17  24
TORSDOF 4
ENDMDL
