MODEL 1
REMARK VINA RESULT:      -6.2      0.000      0.000
REMARK  Name = IPA3.pdbqt.pdb
REMARK  5 active torsions:
REMARK  status: ('A' for Active; 'I' for Inactive)
REMARK    1  A    between atoms: S_1  and  S_2
REMARK    2  A    between atoms: S_1  and  C_15
REMARK    3  A    between atoms: S_2  and  C_3
REMARK    4  A    between atoms: C_10  and  O_13
REMARK    5  A    between atoms: C_22  and  O_25
REMARK                            x       y       z     vdW  Elec       q    Type
REMARK                         _______ _______ _______ _____ _____    ______ ____
ROOT
ATOM      1  S   UNL     1      -5.850  49.757  28.854  0.00  0.00    +0.000 S 
ENDROOT
BRANCH   1   2
ATOM      2  C   UNL     1      -7.352  49.170  28.056  0.00  0.00    +0.000 A 
ATOM      3  C   UNL     1      -7.370  48.848  26.677  0.00  0.00    +0.000 A 
ATOM      4  C   UNL     1      -8.569  48.364  26.103  0.00  0.00    +0.000 A 
ATOM      5  C   UNL     1      -6.250  48.969  25.836  0.00  0.00    +0.000 A 
ATOM      6  C   UNL     1      -9.718  48.222  26.878  0.00  0.00    +0.000 A 
ATOM      7  C   UNL     1      -8.618  48.014  24.754  0.00  0.00    +0.000 A 
ATOM      8  C   UNL     1      -9.701  48.555  28.227  0.00  0.00    +0.000 A 
ATOM      9  C   UNL     1      -8.528  49.023  28.809  0.00  0.00    +0.000 A 
ATOM     10  C   UNL     1      -7.489  48.137  23.949  0.00  0.00    +0.000 A 
ATOM     11  C   UNL     1      -6.304  48.617  24.489  0.00  0.00    +0.000 A 
BRANCH   9  12
ATOM     12  O   UNL     1      -8.586  49.320  30.144  0.00  0.00    +0.000 OA
ATOM     13  H   UNL     1      -7.707  49.142  30.527  0.00  0.00    +0.000 HD
ENDBRANCH   9  12
ENDBRANCH   1   2
BRANCH   1  14
ATOM     14  S   UNL     1      -5.053  48.002  29.583  0.00  0.00    +0.000 S 
BRANCH  14  15
ATOM     15  C   UNL     1      -3.849  47.593  28.311  0.00  0.00    +0.000 A 
ATOM     16  C   UNL     1      -4.118  46.597  27.343  0.00  0.00    +0.000 A 
ATOM     17  C   UNL     1      -3.150  46.331  26.346  0.00  0.00    +0.000 A 
ATOM     18  C   UNL     1      -5.311  45.853  27.303  0.00  0.00    +0.000 A 
ATOM     19  C   UNL     1      -1.944  47.027  26.328  0.00  0.00    +0.000 A 
ATOM     20  C   UNL     1      -3.389  45.372  25.362  0.00  0.00    +0.000 A 
ATOM     21  C   UNL     1      -1.675  47.994  27.289  0.00  0.00    +0.000 A 
ATOM     22  C   UNL     1      -2.621  48.274  28.269  0.00  0.00    +0.000 A 
ATOM     23  C   UNL     1      -4.585  44.659  25.344  0.00  0.00    +0.000 A 
ATOM     24  C   UNL     1      -5.547  44.898  26.318  0.00  0.00    +0.000 A 
BRANCH  22  25
ATOM     25  O   UNL     1      -2.289  49.246  29.176  0.00  0.00    +0.000 OA
ATOM     26  H   UNL     1      -2.891  50.000  29.034  0.00  0.00    +0.000 HD
ENDBRANCH  22  25
ENDBRANCH  14  15
ENDBRANCH   1  14
TORSDOF 5
ENDMDL
MODEL 2
REMARK VINA RESULT:      -6.2     24.735     27.084
REMARK  Name = IPA3.pdbqt.pdb
REMARK  5 active torsions:
REMARK  status: ('A' for Active; 'I' for Inactive)
REMARK    1  A    between atoms: S_1  and  S_2
REMARK    2  A    between atoms: S_1  and  C_15
REMARK    3  A    between atoms: S_2  and  C_3
REMARK    4  A    between atoms: C_10  and  O_13
REMARK    5  A    between atoms: C_22  and  O_25
REMARK                            x       y       z     vdW  Elec       q    Type
REMARK                         _______ _______ _______ _____ _____    ______ ____
ROOT
ATOM      1  S   UNL     1     -20.131  43.824   4.426  0.00  0.00    +0.000 S 
ENDROOT
BRANCH   1   2
ATOM      2  C   UNL     1     -18.511  43.758   3.648  0.00  0.00    +0.000 A 
ATOM      3  C   UNL     1     -17.386  43.247   4.341  0.00  0.00    +0.000 A 
ATOM      4  C   UNL     1     -16.139  43.191   3.674  0.00  0.00    +0.000 A 
ATOM      5  C   UNL     1     -17.437  42.774   5.664  0.00  0.00    +0.000 A 
ATOM      6  C   UNL     1     -16.016  43.646   2.364  0.00  0.00    +0.000 A 
ATOM      7  C   UNL     1     -15.016  42.672   4.317  0.00  0.00    +0.000 A 
ATOM      8  C   UNL     1     -17.117  44.162   1.693  0.00  0.00    +0.000 A 
ATOM      9  C   UNL     1     -18.352  44.215   2.330  0.00  0.00    +0.000 A 
ATOM     10  C   UNL     1     -15.101  42.204   5.625  0.00  0.00    +0.000 A 
ATOM     11  C   UNL     1     -16.313  42.255   6.301  0.00  0.00    +0.000 A 
BRANCH   9  12
ATOM     12  O   UNL     1     -19.393  44.727   1.601  0.00  0.00    +0.000 OA
ATOM     13  H   UNL     1     -19.016  45.273   0.888  0.00  0.00    +0.000 HD
ENDBRANCH   9  12
ENDBRANCH   1   2
BRANCH   1  14
ATOM     14  S   UNL     1     -21.016  42.115   3.690  0.00  0.00    +0.000 S 
BRANCH  14  15
ATOM     15  C   UNL     1     -20.366  40.860   4.801  0.00  0.00    +0.000 A 
ATOM     16  C   UNL     1     -19.220  40.103   4.459  0.00  0.00    +0.000 A 
ATOM     17  C   UNL     1     -18.730  39.147   5.379  0.00  0.00    +0.000 A 
ATOM     18  C   UNL     1     -18.520  40.255   3.248  0.00  0.00    +0.000 A 
ATOM     19  C   UNL     1     -19.376  38.941   6.595  0.00  0.00    +0.000 A 
ATOM     20  C   UNL     1     -17.590  38.399   5.086  0.00  0.00    +0.000 A 
ATOM     21  C   UNL     1     -20.511  39.674   6.923  0.00  0.00    +0.000 A 
ATOM     22  C   UNL     1     -20.998  40.624   6.033  0.00  0.00    +0.000 A 
ATOM     23  C   UNL     1     -16.914  38.580   3.882  0.00  0.00    +0.000 A 
ATOM     24  C   UNL     1     -17.381  39.508   2.960  0.00  0.00    +0.000 A 
BRANCH  22  25
ATOM     25  O   UNL     1     -22.114  41.314   6.429  0.00  0.00    +0.000 OA
ATOM     26  H   UNL     1     -22.202  41.204   7.394  0.00  0.00    +0.000 HD
ENDBRANCH  22  25
ENDBRANCH  14  15
ENDBRANCH   1  14
TORSDOF 5
ENDMDL
MODEL 3
REMARK VINA RESULT:      -6.2     24.725     26.938
REMARK  Name = IPA3.pdbqt.pdb
REMARK  5 active torsions:
REMARK  status: ('A' for Active; 'I' for Inactive)
REMARK    1  A    between atoms: S_1  and  S_2
REMARK    2  A    between atoms: S_1  and  C_15
REMARK    3  A    between atoms: S_2  and  C_3
REMARK    4  A    between atoms: C_10  and  O_13
REMARK    5  A    between atoms: C_22  and  O_25
REMARK                            x       y       z     vdW  Elec       q    Type
REMARK                         _______ _______ _______ _____ _____    ______ ____
ROOT
ATOM      1  S   UNL     1     -20.988  42.130   3.700  0.00  0.00    +0.000 S 
ENDROOT
BRANCH   1   2
ATOM      2  C   UNL     1     -20.337  40.868   4.804  0.00  0.00    +0.000 A 
ATOM      3  C   UNL     1     -19.194  40.109   4.455  0.00  0.00    +0.000 A 
ATOM      4  C   UNL     1     -18.704  39.147   5.371  0.00  0.00    +0.000 A 
ATOM      5  C   UNL     1     -18.498  40.264   3.243  0.00  0.00    +0.000 A 
ATOM      6  C   UNL     1     -19.347  38.938   6.588  0.00  0.00    +0.000 A 
ATOM      7  C   UNL     1     -17.567  38.398   5.071  0.00  0.00    +0.000 A 
ATOM      8  C   UNL     1     -20.478  39.673   6.921  0.00  0.00    +0.000 A 
ATOM      9  C   UNL     1     -20.966  40.629   6.037  0.00  0.00    +0.000 A 
ATOM     10  C   UNL     1     -16.896  38.582   3.866  0.00  0.00    +0.000 A 
ATOM     11  C   UNL     1     -17.361  39.515   2.949  0.00  0.00    +0.000 A 
BRANCH   9  12
ATOM     12  O   UNL     1     -22.078  41.321   6.438  0.00  0.00    +0.000 OA
ATOM     13  H   UNL     1     -22.644  41.452   5.656  0.00  0.00    +0.000 HD
ENDBRANCH   9  12
ENDBRANCH   1   2
BRANCH   1  14
ATOM     14  S   UNL     1     -20.092  43.832   4.439  0.00  0.00    +0.000 S 
BRANCH  14  15
ATOM     15  C   UNL     1     -18.474  43.760   3.658  0.00  0.00    +0.000 A 
ATOM     16  C   UNL     1     -17.352  43.238   4.346  0.00  0.00    +0.000 A 
ATOM     17  C   UNL     1     -16.106  43.177   3.678  0.00  0.00    +0.000 A 
ATOM     18  C   UNL     1     -17.404  42.758   5.667  0.00  0.00    +0.000 A 
ATOM     19  C   UNL     1     -15.981  43.639   2.372  0.00  0.00    +0.000 A 
ATOM     20  C   UNL     1     -14.985  42.648   4.317  0.00  0.00    +0.000 A 
ATOM     21  C   UNL     1     -17.080  44.166   1.703  0.00  0.00    +0.000 A 
ATOM     22  C   UNL     1     -18.314  44.223   2.342  0.00  0.00    +0.000 A 
ATOM     23  C   UNL     1     -15.071  42.172   5.622  0.00  0.00    +0.000 A 
ATOM     24  C   UNL     1     -16.283  42.229   6.300  0.00  0.00    +0.000 A 
BRANCH  22  25
ATOM     25  O   UNL     1     -19.352  44.745   1.617  0.00  0.00    +0.000 OA
ATOM     26  H   UNL     1     -19.950  45.198   2.240  0.00  0.00    +0.000 HD
ENDBRANCH  22  25
ENDBRANCH  14  15
ENDBRANCH   1  14
TORSDOF 5
ENDMDL
MODEL 4
REMARK VINA RESULT:      -6.1      1.967      2.418
REMARK  Name = IPA3.pdbqt.pdb
REMARK  5 active torsions:
REMARK  status: ('A' for Active; 'I' for Inactive)
REMARK    1  A    between atoms: S_1  and  S_2
REMARK    2  A    between atoms: S_1  and  C_15
REMARK    3  A    between atoms: S_2  and  C_3
REMARK    4  A    between atoms: C_10  and  O_13
REMARK    5  A    between atoms: C_22  and  O_25
REMARK                            x       y       z     vdW  Elec       q    Type
REMARK                         _______ _______ _______ _____ _____    ______ ____
ROOT
ATOM      1  S   UNL     1      -8.816  50.780  28.347  0.00  0.00    +0.000 S 
ENDROOT
BRANCH   1   2
ATOM      2  C   UNL     1      -9.570  49.433  27.423  0.00  0.00    +0.000 A 
ATOM      3  C   UNL     1      -9.099  49.073  26.137  0.00  0.00    +0.000 A 
ATOM      4  C   UNL     1      -9.707  47.988  25.464  0.00  0.00    +0.000 A 
ATOM      5  C   UNL     1      -8.039  49.729  25.486  0.00  0.00    +0.000 A 
ATOM      6  C   UNL     1     -10.765  47.296  26.048  0.00  0.00    +0.000 A 
ATOM      7  C   UNL     1      -9.254  47.590  24.206  0.00  0.00    +0.000 A 
ATOM      8  C   UNL     1     -11.237  47.662  27.303  0.00  0.00    +0.000 A 
ATOM      9  C   UNL     1     -10.642  48.719  27.983  0.00  0.00    +0.000 A 
ATOM     10  C   UNL     1      -8.197  48.256  23.592  0.00  0.00    +0.000 A 
ATOM     11  C   UNL     1      -7.588  49.328  24.231  0.00  0.00    +0.000 A 
BRANCH   9  12
ATOM     12  O   UNL     1     -11.154  49.015  29.218  0.00  0.00    +0.000 OA
ATOM     13  H   UNL     1     -10.404  49.171  29.821  0.00  0.00    +0.000 HD
ENDBRANCH   9  12
ENDBRANCH   1   2
BRANCH   1  14
ATOM     14  S   UNL     1      -7.465  49.769  29.529  0.00  0.00    +0.000 S 
BRANCH  14  15
ATOM     15  C   UNL     1      -6.118  49.477  28.374  0.00  0.00    +0.000 A 
ATOM     16  C   UNL     1      -5.995  48.245  27.689  0.00  0.00    +0.000 A 
ATOM     17  C   UNL     1      -4.933  48.074  26.769  0.00  0.00    +0.000 A 
ATOM     18  C   UNL     1      -6.884  47.168  27.860  0.00  0.00    +0.000 A 
ATOM     19  C   UNL     1      -4.014  49.097  26.555  0.00  0.00    +0.000 A 
ATOM     20  C   UNL     1      -4.794  46.882  26.059  0.00  0.00    +0.000 A 
ATOM     21  C   UNL     1      -4.126  50.301  27.240  0.00  0.00    +0.000 A 
ATOM     22  C   UNL     1      -5.170  50.487  28.139  0.00  0.00    +0.000 A 
ATOM     23  C   UNL     1      -5.697  45.838  26.244  0.00  0.00    +0.000 A 
ATOM     24  C   UNL     1      -6.743  45.980  27.148  0.00  0.00    +0.000 A 
BRANCH  22  25
ATOM     25  O   UNL     1      -5.222  51.703  28.769  0.00  0.00    +0.000 OA
ATOM     26  H   UNL     1      -6.162  51.937  28.882  0.00  0.00    +0.000 HD
ENDBRANCH  22  25
ENDBRANCH  14  15
ENDBRANCH   1  14
TORSDOF 5
ENDMDL
MODEL 5
REMARK VINA RESULT:      -6.1      1.364      2.498
REMARK  Name = IPA3.pdbqt.pdb
REMARK  5 active torsions:
REMARK  status: ('A' for Active; 'I' for Inactive)
REMARK    1  A    between atoms: S_1  and  S_2
REMARK    2  A    between atoms: S_1  and  C_15
REMARK    3  A    between atoms: S_2  and  C_3
REMARK    4  A    between atoms: C_10  and  O_13
REMARK    5  A    between atoms: C_22  and  O_25
REMARK                            x       y       z     vdW  Elec       q    Type
REMARK                         _______ _______ _______ _____ _____    ______ ____
ROOT
ATOM      1  S   UNL     1      -5.828  49.419  28.894  0.00  0.00    +0.000 S 
ENDROOT
BRANCH   1   2
ATOM      2  C   UNL     1      -7.386  49.072  28.064  0.00  0.00    +0.000 A 
ATOM      3  C   UNL     1      -7.439  48.863  26.665  0.00  0.00    +0.000 A 
ATOM      4  C   UNL     1      -8.685  48.566  26.064  0.00  0.00    +0.000 A 
ATOM      5  C   UNL     1      -6.312  48.921  25.827  0.00  0.00    +0.000 A 
ATOM      6  C   UNL     1      -9.844  48.497  26.834  0.00  0.00    +0.000 A 
ATOM      7  C   UNL     1      -8.772  48.330  24.692  0.00  0.00    +0.000 A 
ATOM      8  C   UNL     1      -9.791  48.719  28.205  0.00  0.00    +0.000 A 
ATOM      9  C   UNL     1      -8.572  49.002  28.812  0.00  0.00    +0.000 A 
ATOM     10  C   UNL     1      -7.636  48.386  23.891  0.00  0.00    +0.000 A 
ATOM     11  C   UNL     1      -6.404  48.683  24.458  0.00  0.00    +0.000 A 
BRANCH   9  12
ATOM     12  O   UNL     1      -8.598  49.199  30.168  0.00  0.00    +0.000 OA
ATOM     13  H   UNL     1      -7.962  49.908  30.376  0.00  0.00    +0.000 HD
ENDBRANCH   9  12
ENDBRANCH   1   2
BRANCH   1  14
ATOM     14  S   UNL     1      -5.359  47.576  29.687  0.00  0.00    +0.000 S 
BRANCH  14  15
ATOM     15  C   UNL     1      -4.991  46.625  28.206  0.00  0.00    +0.000 A 
ATOM     16  C   UNL     1      -3.743  46.748  27.549  0.00  0.00    +0.000 A 
ATOM     17  C   UNL     1      -3.490  45.958  26.403  0.00  0.00    +0.000 A 
ATOM     18  C   UNL     1      -2.719  47.611  27.980  0.00  0.00    +0.000 A 
ATOM     19  C   UNL     1      -4.461  45.086  25.919  0.00  0.00    +0.000 A 
ATOM     20  C   UNL     1      -2.264  46.035  25.744  0.00  0.00    +0.000 A 
ATOM     21  C   UNL     1      -5.692  44.978  26.555  0.00  0.00    +0.000 A 
ATOM     22  C   UNL     1      -5.951  45.740  27.688  0.00  0.00    +0.000 A 
ATOM     23  C   UNL     1      -1.267  46.893  26.202  0.00  0.00    +0.000 A 
ATOM     24  C   UNL     1      -1.495  47.684  27.321  0.00  0.00    +0.000 A 
BRANCH  22  25
ATOM     25  O   UNL     1      -7.182  45.573  28.267  0.00  0.00    +0.000 OA
ATOM     26  H   UNL     1      -7.263  46.229  28.983  0.00  0.00    +0.000 HD
ENDBRANCH  22  25
ENDBRANCH  14  15
ENDBRANCH   1  14
TORSDOF 5
ENDMDL
MODEL 6
REMARK VINA RESULT:      -5.5     24.645     26.342
REMARK  Name = IPA3.pdbqt.pdb
REMARK  5 active torsions:
REMARK  status: ('A' for Active; 'I' for Inactive)
REMARK    1  A    between atoms: S_1  and  S_2
REMARK    2  A    between atoms: S_1  and  C_15
REMARK    3  A    between atoms: S_2  and  C_3
REMARK    4  A    between atoms: C_10  and  O_13
REMARK    5  A    between atoms: C_22  and  O_25
REMARK                            x       y       z     vdW  Elec       q    Type
REMARK                         _______ _______ _______ _____ _____    ______ ____
ROOT
ATOM      1  S   UNL     1     -19.541  40.574   4.713  0.00  0.00    +0.000 S 
ENDROOT
BRANCH   1   2
ATOM      2  C   UNL     1     -19.020  39.226   5.784  0.00  0.00    +0.000 A 
ATOM      3  C   UNL     1     -17.811  38.528   5.547  0.00  0.00    +0.000 A 
ATOM      4  C   UNL     1     -17.432  37.494   6.436  0.00  0.00    +0.000 A 
ATOM      5  C   UNL     1     -16.947  38.813   4.476  0.00  0.00    +0.000 A 
ATOM      6  C   UNL     1     -18.243  37.157   7.516  0.00  0.00    +0.000 A 
ATOM      7  C   UNL     1     -16.237  36.801   6.248  0.00  0.00    +0.000 A 
ATOM      8  C   UNL     1     -19.437  37.832   7.737  0.00  0.00    +0.000 A 
ATOM      9  C   UNL     1     -19.819  38.858   6.879  0.00  0.00    +0.000 A 
ATOM     10  C   UNL     1     -15.398  37.112   5.181  0.00  0.00    +0.000 A 
ATOM     11  C   UNL     1     -15.753  38.119   4.293  0.00  0.00    +0.000 A 
BRANCH   9  12
ATOM     12  O   UNL     1     -21.003  39.485   7.166  0.00  0.00    +0.000 OA
ATOM     13  H   UNL     1     -21.051  39.599   8.133  0.00  0.00    +0.000 HD
ENDBRANCH   9  12
ENDBRANCH   1   2
BRANCH   1  14
ATOM     14  S   UNL     1     -18.818  42.215   5.727  0.00  0.00    +0.000 S 
BRANCH  14  15
ATOM     15  C   UNL     1     -17.194  42.417   4.982  0.00  0.00    +0.000 A 
ATOM     16  C   UNL     1     -17.038  43.056   3.729  0.00  0.00    +0.000 A 
ATOM     17  C   UNL     1     -15.737  43.216   3.197  0.00  0.00    +0.000 A 
ATOM     18  C   UNL     1     -18.113  43.560   2.974  0.00  0.00    +0.000 A 
ATOM     19  C   UNL     1     -14.628  42.736   3.888  0.00  0.00    +0.000 A 
ATOM     20  C   UNL     1     -15.543  43.860   1.976  0.00  0.00    +0.000 A 
ATOM     21  C   UNL     1     -14.783  42.095   5.112  0.00  0.00    +0.000 A 
ATOM     22  C   UNL     1     -16.055  41.940   5.652  0.00  0.00    +0.000 A 
ATOM     23  C   UNL     1     -16.628  44.357   1.258  0.00  0.00    +0.000 A 
ATOM     24  C   UNL     1     -17.916  44.205   1.756  0.00  0.00    +0.000 A 
BRANCH  22  25
ATOM     25  O   UNL     1     -16.129  41.307   6.865  0.00  0.00    +0.000 OA
ATOM     26  H   UNL     1     -16.631  41.885   7.469  0.00  0.00    +0.000 HD
ENDBRANCH  22  25
ENDBRANCH  14  15
ENDBRANCH   1  14
TORSDOF 5
ENDMDL
MODEL 7
REMARK VINA RESULT:      -5.5      2.927      6.934
REMARK  Name = IPA3.pdbqt.pdb
REMARK  5 active torsions:
REMARK  status: ('A' for Active; 'I' for Inactive)
REMARK    1  A    between atoms: S_1  and  S_2
REMARK    2  A    between atoms: S_1  and  C_15
REMARK    3  A    between atoms: S_2  and  C_3
REMARK    4  A    between atoms: C_10  and  O_13
REMARK    5  A    between atoms: C_22  and  O_25
REMARK                            x       y       z     vdW  Elec       q    Type
REMARK                         _______ _______ _______ _____ _____    ______ ____
ROOT
ATOM      1  S   UNL     1      -2.447  48.728  28.942  0.00  0.00    +0.000 S 
ENDROOT
BRANCH   1   2
ATOM      2  C   UNL     1      -0.776  48.071  29.054  0.00  0.00    +0.000 A 
ATOM      3  C   UNL     1      -0.540  46.735  29.461  0.00  0.00    +0.000 A 
ATOM      4  C   UNL     1       0.791  46.258  29.506  0.00  0.00    +0.000 A 
ATOM      5  C   UNL     1      -1.563  45.839  29.814  0.00  0.00    +0.000 A 
ATOM      6  C   UNL     1       1.854  47.094  29.173  0.00  0.00    +0.000 A 
ATOM      7  C   UNL     1       1.060  44.942  29.879  0.00  0.00    +0.000 A 
ATOM      8  C   UNL     1       1.621  48.409  28.791  0.00  0.00    +0.000 A 
ATOM      9  C   UNL     1       0.318  48.891  28.731  0.00  0.00    +0.000 A 
ATOM     10  C   UNL     1       0.023  44.076  30.215  0.00  0.00    +0.000 A 
ATOM     11  C   UNL     1      -1.290  44.524  30.184  0.00  0.00    +0.000 A 
BRANCH   9  12
ATOM     12  O   UNL     1       0.166  50.193  28.336  0.00  0.00    +0.000 OA
ATOM     13  H   UNL     1       0.171  50.210  27.361  0.00  0.00    +0.000 HD
ENDBRANCH   9  12
ENDBRANCH   1   2
BRANCH   1  14
ATOM     14  S   UNL     1      -2.617  49.087  26.920  0.00  0.00    +0.000 S 
BRANCH  14  15
ATOM     15  C   UNL     1      -3.548  47.650  26.372  0.00  0.00    +0.000 A 
ATOM     16  C   UNL     1      -4.955  47.702  26.223  0.00  0.00    +0.000 A 
ATOM     17  C   UNL     1      -5.638  46.553  25.762  0.00  0.00    +0.000 A 
ATOM     18  C   UNL     1      -5.724  48.847  26.499  0.00  0.00    +0.000 A 
ATOM     19  C   UNL     1      -4.940  45.383  25.475  0.00  0.00    +0.000 A 
ATOM     20  C   UNL     1      -7.021  46.574  25.582  0.00  0.00    +0.000 A 
ATOM     21  C   UNL     1      -3.561  45.328  25.637  0.00  0.00    +0.000 A 
ATOM     22  C   UNL     1      -2.874  46.453  26.079  0.00  0.00    +0.000 A 
ATOM     23  C   UNL     1      -7.753  47.727  25.854  0.00  0.00    +0.000 A 
ATOM     24  C   UNL     1      -7.104  48.866  26.316  0.00  0.00    +0.000 A 
BRANCH  22  25
ATOM     25  O   UNL     1      -1.515  46.326  26.204  0.00  0.00    +0.000 OA
ATOM     26  H   UNL     1      -1.102  46.868  25.506  0.00  0.00    +0.000 HD
ENDBRANCH  22  25
ENDBRANCH  14  15
ENDBRANCH   1  14
TORSDOF 5
ENDMDL
MODEL 8
REMARK VINA RESULT:      -5.4     24.559     26.886
REMARK  Name = IPA3.pdbqt.pdb
REMARK  5 active torsions:
REMARK  status: ('A' for Active; 'I' for Inactive)
REMARK    1  A    between atoms: S_1  and  S_2
REMARK    2  A    between atoms: S_1  and  C_15
REMARK    3  A    between atoms: S_2  and  C_3
REMARK    4  A    between atoms: C_10  and  O_13
REMARK    5  A    between atoms: C_22  and  O_25
REMARK                            x       y       z     vdW  Elec       q    Type
REMARK                         _______ _______ _______ _____ _____    ______ ____
ROOT
ATOM      1  S   UNL     1     -21.175  40.508   6.174  0.00  0.00    +0.000 S 
ENDROOT
BRANCH   1   2
ATOM      2  C   UNL     1     -21.304  38.740   5.871  0.00  0.00    +0.000 A 
ATOM      3  C   UNL     1     -20.385  37.829   6.447  0.00  0.00    +0.000 A 
ATOM      4  C   UNL     1     -20.547  36.445   6.200  0.00  0.00    +0.000 A 
ATOM      5  C   UNL     1     -19.316  38.221   7.271  0.00  0.00    +0.000 A 
ATOM      6  C   UNL     1     -21.582  35.987   5.389  0.00  0.00    +0.000 A 
ATOM      7  C   UNL     1     -19.676  35.517   6.770  0.00  0.00    +0.000 A 
ATOM      8  C   UNL     1     -22.473  36.884   4.812  0.00  0.00    +0.000 A 
ATOM      9  C   UNL     1     -22.334  38.247   5.053  0.00  0.00    +0.000 A 
ATOM     10  C   UNL     1     -18.631  35.937   7.589  0.00  0.00    +0.000 A 
ATOM     11  C   UNL     1     -18.449  37.291   7.839  0.00  0.00    +0.000 A 
BRANCH   9  12
ATOM     12  O   UNL     1     -23.255  39.068   4.459  0.00  0.00    +0.000 OA
ATOM     13  H   UNL     1     -23.157  38.974   3.494  0.00  0.00    +0.000 HD
ENDBRANCH   9  12
ENDBRANCH   1   2
BRANCH   1  14
ATOM     14  S   UNL     1     -20.099  41.134   4.532  0.00  0.00    +0.000 S 
BRANCH  14  15
ATOM     15  C   UNL     1     -18.427  41.188   5.192  0.00  0.00    +0.000 A 
ATOM     16  C   UNL     1     -17.545  40.091   5.040  0.00  0.00    +0.000 A 
ATOM     17  C   UNL     1     -16.230  40.193   5.552  0.00  0.00    +0.000 A 
ATOM     18  C   UNL     1     -17.898  38.894   4.391  0.00  0.00    +0.000 A 
ATOM     19  C   UNL     1     -15.816  41.347   6.210  0.00  0.00    +0.000 A 
ATOM     20  C   UNL     1     -15.327  39.142   5.401  0.00  0.00    +0.000 A 
ATOM     21  C   UNL     1     -16.688  42.418   6.372  0.00  0.00    +0.000 A 
ATOM     22  C   UNL     1     -17.980  42.336   5.866  0.00  0.00    +0.000 A 
ATOM     23  C   UNL     1     -15.704  37.973   4.745  0.00  0.00    +0.000 A 
ATOM     24  C   UNL     1     -16.992  37.847   4.241  0.00  0.00    +0.000 A 
BRANCH  22  25
ATOM     25  O   UNL     1     -18.778  43.434   6.055  0.00  0.00    +0.000 OA
ATOM     26  H   UNL     1     -18.939  43.521   7.013  0.00  0.00    +0.000 HD
ENDBRANCH  22  25
ENDBRANCH  14  15
ENDBRANCH   1  14
TORSDOF 5
ENDMDL
MODEL 9
REMARK VINA RESULT:      -5.4     24.576     26.754
REMARK  Name = IPA3.pdbqt.pdb
REMARK  5 active torsions:
REMARK  status: ('A' for Active; 'I' for Inactive)
REMARK    1  A    between atoms: S_1  and  S_2
REMARK    2  A    between atoms: S_1  and  C_15
REMARK    3  A    between atoms: S_2  and  C_3
REMARK    4  A    between atoms: C_10  and  O_13
REMARK    5  A    between atoms: C_22  and  O_25
REMARK                            x       y       z     vdW  Elec       q    Type
REMARK                         _______ _______ _______ _____ _____    ______ ____
ROOT
ATOM      1  S   UNL     1     -20.540  40.728   4.053  0.00  0.00    +0.000 S 
ENDROOT
BRANCH   1   2
ATOM      2  C   UNL     1     -20.130  42.382   3.476  0.00  0.00    +0.000 A 
ATOM      3  C   UNL     1     -18.940  42.630   2.751  0.00  0.00    +0.000 A 
ATOM      4  C   UNL     1     -18.677  43.943   2.296  0.00  0.00    +0.000 A 
ATOM      5  C   UNL     1     -17.997  41.634   2.441  0.00  0.00    +0.000 A 
ATOM      6  C   UNL     1     -19.566  44.979   2.571  0.00  0.00    +0.000 A 
ATOM      7  C   UNL     1     -17.526  44.220   1.558  0.00  0.00    +0.000 A 
ATOM      8  C   UNL     1     -20.726  44.736   3.296  0.00  0.00    +0.000 A 
ATOM      9  C   UNL     1     -21.004  43.448   3.743  0.00  0.00    +0.000 A 
ATOM     10  C   UNL     1     -16.616  43.211   1.260  0.00  0.00    +0.000 A 
ATOM     11  C   UNL     1     -16.849  41.916   1.703  0.00  0.00    +0.000 A 
BRANCH   9  12
ATOM     12  O   UNL     1     -22.170  43.284   4.442  0.00  0.00    +0.000 OA
ATOM     13  H   UNL     1     -22.451  44.161   4.761  0.00  0.00    +0.000 HD
ENDBRANCH   9  12
ENDBRANCH   1   2
BRANCH   1  14
ATOM     14  S   UNL     1     -20.066  40.855   6.054  0.00  0.00    +0.000 S 
BRANCH  14  15
ATOM     15  C   UNL     1     -18.290  41.131   5.991  0.00  0.00    +0.000 A 
ATOM     16  C   UNL     1     -17.386  40.051   5.851  0.00  0.00    +0.000 A 
ATOM     17  C   UNL     1     -16.000  40.323   5.778  0.00  0.00    +0.000 A 
ATOM     18  C   UNL     1     -17.789  38.706   5.766  0.00  0.00    +0.000 A 
ATOM     19  C   UNL     1     -15.531  41.631   5.860  0.00  0.00    +0.000 A 
ATOM     20  C   UNL     1     -15.081  39.286   5.617  0.00  0.00    +0.000 A 
ATOM     21  C   UNL     1     -16.419  42.689   6.013  0.00  0.00    +0.000 A 
ATOM     22  C   UNL     1     -17.785  42.439   6.076  0.00  0.00    +0.000 A 
ATOM     23  C   UNL     1     -15.513  37.965   5.526  0.00  0.00    +0.000 A 
ATOM     24  C   UNL     1     -16.869  37.674   5.603  0.00  0.00    +0.000 A 
BRANCH  22  25
ATOM     25  O   UNL     1     -18.598  43.532   6.218  0.00  0.00    +0.000 OA
ATOM     26  H   UNL     1     -19.030  43.693   5.359  0.00  0.00    +0.000 HD
ENDBRANCH  22  25
ENDBRANCH  14  15
ENDBRANCH   1  14
TORSDOF 5
ENDMDL
