MODEL 1
REMARK VINA RESULT:      -7.6      0.000      0.000
REMARK  Name = 
REMARK  8 active torsions:
REMARK  status: ('A' for Active; 'I' for Inactive)
REMARK    1  A    between atoms: O_1  and  C_21
REMARK    2  A    between atoms: O_1  and  C_38
REMARK    3  A    between atoms: O_4  and  C_26
REMARK    4  A    between atoms: N_7  and  C_11
REMARK    5  A    between atoms: C_26  and  C_33
REMARK    6  A    between atoms: C_29  and  C_37
REMARK    7  A    between atoms: C_33  and  C_42
REMARK    8  A    between atoms: C_37  and  C_43
REMARK                            x       y       z     vdW  Elec       q    Type
REMARK                         _______ _______ _______ _____ _____    ______ ____
ROOT
ATOM      1  O   UNL     1     -15.308  44.672  36.759  0.00  0.00    +0.000 OA
ATOM      2  O   UNL     1     -11.805  46.663  35.531  0.00  0.00    +0.000 OA
ATOM      3  O   UNL     1     -17.513  44.627  36.328  0.00  0.00    +0.000 OA
ATOM      4  N   UNL     1     -12.640  47.008  33.421  0.00  0.00    +0.000 N 
ATOM      5  N   UNL     1     -13.902  47.518  30.102  0.00  0.00    +0.000 NA
ATOM      6  C   UNL     1     -13.621  46.808  32.471  0.00  0.00    +0.000 A 
ATOM      7  C   UNL     1     -11.990  48.101  31.483  0.00  0.00    +0.000 A 
ATOM      8  C   UNL     1     -11.547  47.828  32.891  0.00  0.00    +0.000 C 
ATOM      9  C   UNL     1     -14.865  45.506  34.073  0.00  0.00    +0.000 A 
ATOM     10  C   UNL     1     -16.066  44.650  34.389  0.00  0.00    +0.000 C 
ATOM     11  C   UNL     1     -13.216  47.492  31.248  0.00  0.00    +0.000 A 
ATOM     12  C   UNL     1     -13.911  45.698  35.005  0.00  0.00    +0.000 A 
ATOM     13  C   UNL     1     -11.383  48.820  30.463  0.00  0.00    +0.000 A 
ATOM     14  C   UNL     1     -14.713  46.086  32.743  0.00  0.00    +0.000 A 
ATOM     15  C   UNL     1     -12.686  46.500  34.693  0.00  0.00    +0.000 A 
ATOM     16  C   UNL     1     -12.066  48.866  29.213  0.00  0.00    +0.000 A 
ATOM     17  C   UNL     1     -13.993  45.123  36.376  0.00  0.00    +0.000 C 
ATOM     18  C   UNL     1     -13.327  48.196  29.097  0.00  0.00    +0.000 A 
ATOM     19  C   UNL     1     -16.356  44.673  35.907  0.00  0.00    +0.000 C 
ATOM     20  C   UNL     1     -12.273  49.538  26.879  0.00  0.00    +0.000 A 
ATOM     21  C   UNL     1     -11.563  49.540  28.078  0.00  0.00    +0.000 A 
ATOM     22  C   UNL     1     -14.010  48.239  27.889  0.00  0.00    +0.000 A 
ATOM     23  C   UNL     1     -13.503  48.910  26.775  0.00  0.00    +0.000 A 
ENDROOT
BRANCH  10  24
ATOM     24  O   UNL     1     -17.206  45.186  33.703  0.00  0.00    +0.000 OA
ATOM     25  H   UNL     1     -17.029  46.141  33.583  0.00  0.00    +0.000 HD
ENDBRANCH  10  24
BRANCH  10  26
ATOM     26  C   UNL     1     -15.834  43.199  33.919  0.00  0.00    +0.000 C 
ATOM     27  C   UNL     1     -16.833  42.187  34.473  0.00  0.00    +0.000 C 
ENDBRANCH  10  26
BRANCH  13  28
ATOM     28  C   UNL     1     -10.045  49.476  30.700  0.00  0.00    +0.000 C 
ATOM     29  C   UNL     1      -8.885  48.546  30.378  0.00  0.00    +0.000 C 
ENDBRANCH  13  28
BRANCH  20  30
ATOM     30  O   UNL     1     -11.770  50.249  25.789  0.00  0.00    +0.000 OA
BRANCH  30  38
ATOM     31  O   UNL     1     -11.883  48.848  23.949  0.00  0.00    +0.000 OA
ATOM     32  N   UNL     1      -9.839  49.374  24.870  0.00  0.00    +0.000 N 
ATOM     33  C   UNL     1      -7.170  48.382  25.544  0.00  0.00    +0.000 C 
ATOM     34  C   UNL     1      -8.044  49.191  26.535  0.00  0.00    +0.000 C 
ATOM     35  C   UNL     1      -8.109  47.665  24.540  0.00  0.00    +0.000 C 
ATOM     36  C   UNL     1      -9.034  50.112  25.829  0.00  0.00    +0.000 C 
ATOM     37  C   UNL     1      -9.095  48.621  23.879  0.00  0.00    +0.000 C 
ATOM     38  C   UNL     1     -11.222  49.442  24.796  0.00  0.00    +0.000 C 
BRANCH  33  39
ATOM     39  N   UNL     1      -6.267  47.417  26.248  0.00  0.00    +0.000 NA
ATOM     40  C   UNL     1      -7.012  46.528  27.165  0.00  0.00    +0.000 C 
ATOM     41  C   UNL     1      -5.468  46.609  25.303  0.00  0.00    +0.000 C 
ATOM     42  C   UNL     1      -6.102  45.554  27.917  0.00  0.00    +0.000 C 
ATOM     43  C   UNL     1      -4.520  45.636  26.009  0.00  0.00    +0.000 C 
ATOM     44  C   UNL     1      -5.268  44.720  26.961  0.00  0.00    +0.000 C 
ENDBRANCH  33  39
ENDBRANCH  30  38
ENDBRANCH  20  30
TORSDOF 6
ENDMDL
MODEL 2
REMARK VINA RESULT:      -7.2     25.700     29.871
REMARK  Name = 
REMARK  8 active torsions:
REMARK  status: ('A' for Active; 'I' for Inactive)
REMARK    1  A    between atoms: O_1  and  C_21
REMARK    2  A    between atoms: O_1  and  C_38
REMARK    3  A    between atoms: O_4  and  C_26
REMARK    4  A    between atoms: N_7  and  C_11
REMARK    5  A    between atoms: C_26  and  C_33
REMARK    6  A    between atoms: C_29  and  C_37
REMARK    7  A    between atoms: C_33  and  C_42
REMARK    8  A    between atoms: C_37  and  C_43
REMARK                            x       y       z     vdW  Elec       q    Type
REMARK                         _______ _______ _______ _____ _____    ______ ____
ROOT
ATOM      1  O   UNL     1     -16.570  47.656  -1.526  0.00  0.00    +0.000 OA
ATOM      2  O   UNL     1     -19.601  45.143  -0.026  0.00  0.00    +0.000 OA
ATOM      3  O   UNL     1     -14.610  48.562  -0.903  0.00  0.00    +0.000 OA
ATOM      4  N   UNL     1     -18.123  44.033   1.334  0.00  0.00    +0.000 N 
ATOM      5  N   UNL     1     -15.827  42.248   3.434  0.00  0.00    +0.000 NA
ATOM      6  C   UNL     1     -16.834  43.796   1.765  0.00  0.00    +0.000 A 
ATOM      7  C   UNL     1     -18.206  42.381   2.959  0.00  0.00    +0.000 A 
ATOM      8  C   UNL     1     -19.084  43.178   2.038  0.00  0.00    +0.000 C 
ATOM      9  C   UNL     1     -16.043  45.473   0.226  0.00  0.00    +0.000 A 
ATOM     10  C   UNL     1     -14.886  46.212  -0.398  0.00  0.00    +0.000 C 
ATOM     11  C   UNL     1     -16.879  42.756   2.787  0.00  0.00    +0.000 A 
ATOM     12  C   UNL     1     -17.300  45.709  -0.200  0.00  0.00    +0.000 A 
ATOM     13  C   UNL     1     -18.517  41.394   3.883  0.00  0.00    +0.000 A 
ATOM     14  C   UNL     1     -15.797  44.469   1.255  0.00  0.00    +0.000 A 
ATOM     15  C   UNL     1     -18.457  44.947   0.369  0.00  0.00    +0.000 A 
ATOM     16  C   UNL     1     -17.429  40.807   4.591  0.00  0.00    +0.000 A 
ATOM     17  C   UNL     1     -17.622  46.706  -1.257  0.00  0.00    +0.000 C 
ATOM     18  C   UNL     1     -16.104  41.282   4.323  0.00  0.00    +0.000 A 
ATOM     19  C   UNL     1     -15.354  47.580  -0.942  0.00  0.00    +0.000 C 
ATOM     20  C   UNL     1     -16.480  39.236   6.195  0.00  0.00    +0.000 A 
ATOM     21  C   UNL     1     -17.588  39.778   5.545  0.00  0.00    +0.000 A 
ATOM     22  C   UNL     1     -15.032  40.727   5.011  0.00  0.00    +0.000 A 
ATOM     23  C   UNL     1     -15.203  39.712   5.953  0.00  0.00    +0.000 A 
ENDROOT
BRANCH  10  24
ATOM     24  O   UNL     1     -13.891  46.443   0.609  0.00  0.00    +0.000 OA
ATOM     25  H   UNL     1     -14.211  47.199   1.141  0.00  0.00    +0.000 HD
ENDBRANCH  10  24
BRANCH  10  26
ATOM     26  C   UNL     1     -14.262  45.378  -1.537  0.00  0.00    +0.000 C 
ATOM     27  C   UNL     1     -12.971  44.656  -1.159  0.00  0.00    +0.000 C 
ENDBRANCH  10  26
BRANCH  13  28
ATOM     28  C   UNL     1     -19.953  40.968   4.071  0.00  0.00    +0.000 C 
ATOM     29  C   UNL     1     -20.623  41.701   5.223  0.00  0.00    +0.000 C 
ENDBRANCH  13  28
BRANCH  20  30
ATOM     30  O   UNL     1     -16.675  38.251   7.164  0.00  0.00    +0.000 OA
BRANCH  30  38
ATOM     31  O   UNL     1     -16.287  36.371   5.868  0.00  0.00    +0.000 OA
ATOM     32  N   UNL     1     -18.237  36.551   7.080  0.00  0.00    +0.000 N 
ATOM     33  C   UNL     1     -21.114  36.015   7.112  0.00  0.00    +0.000 C 
ATOM     34  C   UNL     1     -20.506  37.380   7.520  0.00  0.00    +0.000 C 
ATOM     35  C   UNL     1     -20.137  35.321   6.129  0.00  0.00    +0.000 C 
ATOM     36  C   UNL     1     -19.075  37.256   8.034  0.00  0.00    +0.000 C 
ATOM     37  C   UNL     1     -18.716  35.242   6.677  0.00  0.00    +0.000 C 
ATOM     38  C   UNL     1     -17.003  37.004   6.640  0.00  0.00    +0.000 C 
BRANCH  33  39
ATOM     39  N   UNL     1     -22.483  36.161   6.525  0.00  0.00    +0.000 NA
ATOM     40  C   UNL     1     -23.533  35.651   7.433  0.00  0.00    +0.000 C 
ATOM     41  C   UNL     1     -22.782  37.557   6.145  0.00  0.00    +0.000 C 
ATOM     42  C   UNL     1     -24.939  35.763   6.838  0.00  0.00    +0.000 C 
ATOM     43  C   UNL     1     -24.170  37.719   5.519  0.00  0.00    +0.000 C 
ATOM     44  C   UNL     1     -25.260  37.192   6.435  0.00  0.00    +0.000 C 
ENDBRANCH  33  39
ENDBRANCH  30  38
ENDBRANCH  20  30
TORSDOF 6
ENDMDL
MODEL 3
REMARK VINA RESULT:      -7.1      8.660     14.690
REMARK  Name = 
REMARK  8 active torsions:
REMARK  status: ('A' for Active; 'I' for Inactive)
REMARK    1  A    between atoms: O_1  and  C_21
REMARK    2  A    between atoms: O_1  and  C_38
REMARK    3  A    between atoms: O_4  and  C_26
REMARK    4  A    between atoms: N_7  and  C_11
REMARK    5  A    between atoms: C_26  and  C_33
REMARK    6  A    between atoms: C_29  and  C_37
REMARK    7  A    between atoms: C_33  and  C_42
REMARK    8  A    between atoms: C_37  and  C_43
REMARK                            x       y       z     vdW  Elec       q    Type
REMARK                         _______ _______ _______ _____ _____    ______ ____
ROOT
ATOM      1  O   UNL     1       4.972  54.869  29.384  0.00  0.00    +0.000 OA
ATOM      2  O   UNL     1       1.178  54.585  27.574  0.00  0.00    +0.000 OA
ATOM      3  O   UNL     1       6.192  53.900  31.004  0.00  0.00    +0.000 OA
ATOM      4  N   UNL     1       1.037  52.340  28.028  0.00  0.00    +0.000 N 
ATOM      5  N   UNL     1       0.812  48.820  28.680  0.00  0.00    +0.000 NA
ATOM      6  C   UNL     1       1.604  51.172  28.496  0.00  0.00    +0.000 A 
ATOM      7  C   UNL     1      -0.524  50.643  27.790  0.00  0.00    +0.000 A 
ATOM      8  C   UNL     1      -0.330  52.113  27.552  0.00  0.00    +0.000 C 
ATOM      9  C   UNL     1       3.618  52.392  29.012  0.00  0.00    +0.000 A 
ATOM     10  C   UNL     1       5.041  52.385  29.511  0.00  0.00    +0.000 C 
ATOM     11  C   UNL     1       0.627  50.100  28.347  0.00  0.00    +0.000 A 
ATOM     12  C   UNL     1       3.070  53.535  28.556  0.00  0.00    +0.000 A 
ATOM     13  C   UNL     1      -1.612  49.818  27.542  0.00  0.00    +0.000 A 
ATOM     14  C   UNL     1       2.850  51.151  28.980  0.00  0.00    +0.000 A 
ATOM     15  C   UNL     1       1.676  53.552  28.008  0.00  0.00    +0.000 A 
ATOM     16  C   UNL     1      -1.462  48.438  27.864  0.00  0.00    +0.000 A 
ATOM     17  C   UNL     1       3.799  54.833  28.545  0.00  0.00    +0.000 C 
ATOM     18  C   UNL     1      -0.223  48.001  28.436  0.00  0.00    +0.000 A 
ATOM     19  C   UNL     1       5.430  53.783  30.043  0.00  0.00    +0.000 C 
ATOM     20  C   UNL     1      -2.259  46.138  27.975  0.00  0.00    +0.000 A 
ATOM     21  C   UNL     1      -2.472  47.476  27.649  0.00  0.00    +0.000 A 
ATOM     22  C   UNL     1      -0.063  46.661  28.765  0.00  0.00    +0.000 A 
ATOM     23  C   UNL     1      -1.070  45.720  28.549  0.00  0.00    +0.000 A 
ENDROOT
BRANCH  10  24
ATOM     24  O   UNL     1       5.147  51.445  30.589  0.00  0.00    +0.000 OA
ATOM     25  H   UNL     1       5.090  51.968  31.414  0.00  0.00    +0.000 HD
ENDBRANCH  10  24
BRANCH  10  26
ATOM     26  C   UNL     1       6.007  51.963  28.382  0.00  0.00    +0.000 C 
ATOM     27  C   UNL     1       7.162  51.075  28.837  0.00  0.00    +0.000 C 
ENDBRANCH  10  26
BRANCH  13  28
ATOM     28  C   UNL     1      -2.864  50.393  26.924  0.00  0.00    +0.000 C 
ATOM     29  C   UNL     1      -3.816  50.951  27.971  0.00  0.00    +0.000 C 
ENDBRANCH  13  28
BRANCH  20  30
ATOM     30  O   UNL     1      -3.293  45.220  27.790  0.00  0.00    +0.000 OA
BRANCH  30  38
ATOM     31  O   UNL     1      -3.495  45.235  25.482  0.00  0.00    +0.000 OA
ATOM     32  N   UNL     1      -5.309  45.762  26.800  0.00  0.00    +0.000 N 
ATOM     33  C   UNL     1      -7.669  47.469  27.084  0.00  0.00    +0.000 C 
ATOM     34  C   UNL     1      -6.657  47.231  28.233  0.00  0.00    +0.000 C 
ATOM     35  C   UNL     1      -6.931  47.265  25.736  0.00  0.00    +0.000 C 
ATOM     36  C   UNL     1      -5.929  45.896  28.107  0.00  0.00    +0.000 C 
ATOM     37  C   UNL     1      -6.199  45.929  25.667  0.00  0.00    +0.000 C 
ATOM     38  C   UNL     1      -3.989  45.389  26.596  0.00  0.00    +0.000 C 
BRANCH  33  39
ATOM     39  N   UNL     1      -8.310  48.819  27.169  0.00  0.00    +0.000 NA
ATOM     40  C   UNL     1      -7.364  49.854  27.638  0.00  0.00    +0.000 C 
ATOM     41  C   UNL     1      -8.912  49.234  25.884  0.00  0.00    +0.000 C 
ATOM     42  C   UNL     1      -8.009  51.237  27.761  0.00  0.00    +0.000 C 
ATOM     43  C   UNL     1      -9.595  50.602  25.962  0.00  0.00    +0.000 C 
ATOM     44  C   UNL     1      -8.638  51.675  26.450  0.00  0.00    +0.000 C 
ENDBRANCH  33  39
ENDBRANCH  30  38
ENDBRANCH  20  30
TORSDOF 6
ENDMDL
MODEL 4
REMARK VINA RESULT:      -6.9      1.733      2.489
REMARK  Name = 
REMARK  8 active torsions:
REMARK  status: ('A' for Active; 'I' for Inactive)
REMARK    1  A    between atoms: O_1  and  C_21
REMARK    2  A    between atoms: O_1  and  C_38
REMARK    3  A    between atoms: O_4  and  C_26
REMARK    4  A    between atoms: N_7  and  C_11
REMARK    5  A    between atoms: C_26  and  C_33
REMARK    6  A    between atoms: C_29  and  C_37
REMARK    7  A    between atoms: C_33  and  C_42
REMARK    8  A    between atoms: C_37  and  C_43
REMARK                            x       y       z     vdW  Elec       q    Type
REMARK                         _______ _______ _______ _____ _____    ______ ____
ROOT
ATOM      1  O   UNL     1     -14.038  42.897  38.935  0.00  0.00    +0.000 OA
ATOM      2  O   UNL     1     -10.664  44.665  37.135  0.00  0.00    +0.000 OA
ATOM      3  O   UNL     1     -16.269  43.145  39.043  0.00  0.00    +0.000 OA
ATOM      4  N   UNL     1     -11.897  45.391  35.341  0.00  0.00    +0.000 N 
ATOM      5  N   UNL     1     -13.791  46.495  32.502  0.00  0.00    +0.000 NA
ATOM      6  C   UNL     1     -13.084  45.431  34.638  0.00  0.00    +0.000 A 
ATOM      7  C   UNL     1     -11.557  46.674  33.441  0.00  0.00    +0.000 A 
ATOM      8  C   UNL     1     -10.850  46.158  34.661  0.00  0.00    +0.000 C 
ATOM      9  C   UNL     1     -14.101  44.053  36.333  0.00  0.00    +0.000 A 
ATOM     10  C   UNL     1     -15.304  43.292  36.830  0.00  0.00    +0.000 C 
ATOM     11  C   UNL     1     -12.876  46.236  33.439  0.00  0.00    +0.000 A 
ATOM     12  C   UNL     1     -12.945  44.010  37.025  0.00  0.00    +0.000 A 
ATOM     13  C   UNL     1     -11.104  47.462  32.392  0.00  0.00    +0.000 A 
ATOM     14  C   UNL     1     -14.174  44.797  35.081  0.00  0.00    +0.000 A 
ATOM     15  C   UNL     1     -11.724  44.716  36.521  0.00  0.00    +0.000 A 
ATOM     16  C   UNL     1     -12.037  47.757  31.357  0.00  0.00    +0.000 A 
ATOM     17  C   UNL     1     -12.794  43.258  38.301  0.00  0.00    +0.000 C 
ATOM     18  C   UNL     1     -13.370  47.246  31.472  0.00  0.00    +0.000 A 
ATOM     19  C   UNL     1     -15.240  43.129  38.365  0.00  0.00    +0.000 C 
ATOM     20  C   UNL     1     -12.670  48.770  29.233  0.00  0.00    +0.000 A 
ATOM     21  C   UNL     1     -11.715  48.528  30.218  0.00  0.00    +0.000 A 
ATOM     22  C   UNL     1     -14.295  47.531  30.476  0.00  0.00    +0.000 A 
ATOM     23  C   UNL     1     -13.965  48.296  29.357  0.00  0.00    +0.000 A 
ENDROOT
BRANCH  10  24
ATOM     24  O   UNL     1     -16.487  44.036  36.503  0.00  0.00    +0.000 OA
ATOM     25  H   UNL     1     -17.138  43.835  37.205  0.00  0.00    +0.000 HD
ENDBRANCH  10  24
BRANCH  10  26
ATOM     26  C   UNL     1     -15.383  41.905  36.156  0.00  0.00    +0.000 C 
ATOM     27  C   UNL     1     -16.400  41.808  35.023  0.00  0.00    +0.000 C 
ENDBRANCH  10  26
BRANCH  13  28
ATOM     28  C   UNL     1      -9.670  47.934  32.374  0.00  0.00    +0.000 C 
ATOM     29  C   UNL     1      -9.490  49.252  33.113  0.00  0.00    +0.000 C 
ENDBRANCH  13  28
BRANCH  20  30
ATOM     30  O   UNL     1     -12.333  49.572  28.142  0.00  0.00    +0.000 OA
BRANCH  30  38
ATOM     31  O   UNL     1     -13.217  48.425  26.334  0.00  0.00    +0.000 OA
ATOM     32  N   UNL     1     -10.942  48.744  26.494  0.00  0.00    +0.000 N 
ATOM     33  C   UNL     1      -8.304  47.564  26.036  0.00  0.00    +0.000 C 
ATOM     34  C   UNL     1      -8.691  48.275  27.357  0.00  0.00    +0.000 C 
ATOM     35  C   UNL     1      -9.597  47.021  25.377  0.00  0.00    +0.000 C 
ATOM     36  C   UNL     1      -9.787  49.319  27.162  0.00  0.00    +0.000 C 
ATOM     37  C   UNL     1     -10.670  48.095  25.226  0.00  0.00    +0.000 C 
ATOM     38  C   UNL     1     -12.249  48.878  26.939  0.00  0.00    +0.000 C 
BRANCH  33  39
ATOM     39  N   UNL     1      -7.294  46.481  26.255  0.00  0.00    +0.000 NA
ATOM     40  C   UNL     1      -6.046  46.724  25.501  0.00  0.00    +0.000 C 
ATOM     41  C   UNL     1      -6.985  46.286  27.687  0.00  0.00    +0.000 C 
ATOM     42  C   UNL     1      -5.012  45.611  25.688  0.00  0.00    +0.000 C 
ATOM     43  C   UNL     1      -5.974  45.163  27.930  0.00  0.00    +0.000 C 
ATOM     44  C   UNL     1      -4.688  45.394  27.156  0.00  0.00    +0.000 C 
ENDBRANCH  33  39
ENDBRANCH  30  38
ENDBRANCH  20  30
TORSDOF 6
ENDMDL
MODEL 5
REMARK VINA RESULT:      -6.8     30.779     32.871
REMARK  Name = 
REMARK  8 active torsions:
REMARK  status: ('A' for Active; 'I' for Inactive)
REMARK    1  A    between atoms: O_1  and  C_21
REMARK    2  A    between atoms: O_1  and  C_38
REMARK    3  A    between atoms: O_4  and  C_26
REMARK    4  A    between atoms: N_7  and  C_11
REMARK    5  A    between atoms: C_26  and  C_33
REMARK    6  A    between atoms: C_29  and  C_37
REMARK    7  A    between atoms: C_33  and  C_42
REMARK    8  A    between atoms: C_37  and  C_43
REMARK                            x       y       z     vdW  Elec       q    Type
REMARK                         _______ _______ _______ _____ _____    ______ ____
ROOT
ATOM      1  O   UNL     1       7.076  44.935   5.692  0.00  0.00    +0.000 OA
ATOM      2  O   UNL     1       7.545  40.763   6.042  0.00  0.00    +0.000 OA
ATOM      3  O   UNL     1       7.157  46.796   6.950  0.00  0.00    +0.000 OA
ATOM      4  N   UNL     1       9.018  40.991   7.787  0.00  0.00    +0.000 N 
ATOM      5  N   UNL     1      11.361  41.319  10.484  0.00  0.00    +0.000 NA
ATOM      6  C   UNL     1       9.785  41.786   8.615  0.00  0.00    +0.000 A 
ATOM      7  C   UNL     1      10.160  39.603   9.252  0.00  0.00    +0.000 A 
ATOM      8  C   UNL     1       9.183  39.571   8.112  0.00  0.00    +0.000 C 
ATOM      9  C   UNL     1       8.953  43.733   7.465  0.00  0.00    +0.000 A 
ATOM     10  C   UNL     1       8.971  45.230   7.278  0.00  0.00    +0.000 C 
ATOM     11  C   UNL     1      10.508  40.918   9.538  0.00  0.00    +0.000 A 
ATOM     12  C   UNL     1       8.202  42.963   6.653  0.00  0.00    +0.000 A 
ATOM     13  C   UNL     1      10.722  38.576   9.996  0.00  0.00    +0.000 A 
ATOM     14  C   UNL     1       9.785  43.117   8.493  0.00  0.00    +0.000 A 
ATOM     15  C   UNL     1       8.212  41.472   6.789  0.00  0.00    +0.000 A 
ATOM     16  C   UNL     1      11.652  38.948  11.010  0.00  0.00    +0.000 A 
ATOM     17  C   UNL     1       7.343  43.522   5.575  0.00  0.00    +0.000 C 
ATOM     18  C   UNL     1      11.927  40.341  11.207  0.00  0.00    +0.000 A 
ATOM     19  C   UNL     1       7.645  45.707   6.643  0.00  0.00    +0.000 C 
ATOM     20  C   UNL     1      13.228  38.442  12.798  0.00  0.00    +0.000 A 
ATOM     21  C   UNL     1      12.320  38.014  11.832  0.00  0.00    +0.000 A 
ATOM     22  C   UNL     1      12.824  40.721  12.197  0.00  0.00    +0.000 A 
ATOM     23  C   UNL     1      13.475  39.789  13.004  0.00  0.00    +0.000 A 
ENDROOT
BRANCH  10  24
ATOM     24  O   UNL     1       9.107  45.853   8.563  0.00  0.00    +0.000 OA
ATOM     25  H   UNL     1       8.393  45.486   9.121  0.00  0.00    +0.000 HD
ENDBRANCH  10  24
BRANCH  10  26
ATOM     26  C   UNL     1      10.162  45.649   6.389  0.00  0.00    +0.000 C 
ATOM     27  C   UNL     1      10.753  47.016   6.726  0.00  0.00    +0.000 C 
ENDBRANCH  10  26
BRANCH  13  28
ATOM     28  C   UNL     1      10.363  37.143   9.688  0.00  0.00    +0.000 C 
ATOM     29  C   UNL     1      11.306  36.522   8.667  0.00  0.00    +0.000 C 
ENDBRANCH  13  28
BRANCH  20  30
ATOM     30  O   UNL     1      13.839  37.497  13.623  0.00  0.00    +0.000 OA
BRANCH  30  38
ATOM     31  O   UNL     1      15.812  37.049  12.495  0.00  0.00    +0.000 OA
ATOM     32  N   UNL     1      14.292  35.360  12.870  0.00  0.00    +0.000 N 
ATOM     33  C   UNL     1      13.041  32.954  11.770  0.00  0.00    +0.000 C 
ATOM     34  C   UNL     1      12.233  34.094  12.439  0.00  0.00    +0.000 C 
ATOM     35  C   UNL     1      14.356  33.554  11.210  0.00  0.00    +0.000 C 
ATOM     36  C   UNL     1      13.055  34.877  13.459  0.00  0.00    +0.000 C 
ATOM     37  C   UNL     1      15.130  34.347  12.258  0.00  0.00    +0.000 C 
ATOM     38  C   UNL     1      14.740  36.669  12.960  0.00  0.00    +0.000 C 
BRANCH  33  39
ATOM     39  N   UNL     1      12.252  32.253  10.709  0.00  0.00    +0.000 NA
ATOM     40  C   UNL     1      11.130  33.079  10.214  0.00  0.00    +0.000 C 
ATOM     41  C   UNL     1      13.098  31.824   9.575  0.00  0.00    +0.000 C 
ATOM     42  C   UNL     1      10.292  32.367   9.149  0.00  0.00    +0.000 C 
ATOM     43  C   UNL     1      12.310  31.081   8.493  0.00  0.00    +0.000 C 
ATOM     44  C   UNL     1      11.149  31.913   7.980  0.00  0.00    +0.000 C 
ENDBRANCH  33  39
ENDBRANCH  30  38
ENDBRANCH  20  30
TORSDOF 6
ENDMDL
MODEL 6
REMARK VINA RESULT:      -6.6      4.903      6.991
REMARK  Name = 
REMARK  8 active torsions:
REMARK  status: ('A' for Active; 'I' for Inactive)
REMARK    1  A    between atoms: O_1  and  C_21
REMARK    2  A    between atoms: O_1  and  C_38
REMARK    3  A    between atoms: O_4  and  C_26
REMARK    4  A    between atoms: N_7  and  C_11
REMARK    5  A    between atoms: C_26  and  C_33
REMARK    6  A    between atoms: C_29  and  C_37
REMARK    7  A    between atoms: C_33  and  C_42
REMARK    8  A    between atoms: C_37  and  C_43
REMARK                            x       y       z     vdW  Elec       q    Type
REMARK                         _______ _______ _______ _____ _____    ______ ____
ROOT
ATOM      1  O   UNL     1     -23.260  47.869  28.365  0.00  0.00    +0.000 OA
ATOM      2  O   UNL     1     -21.527  49.627  24.951  0.00  0.00    +0.000 OA
ATOM      3  O   UNL     1     -22.809  46.322  29.931  0.00  0.00    +0.000 OA
ATOM      4  N   UNL     1     -19.403  49.288  25.751  0.00  0.00    +0.000 N 
ATOM      5  N   UNL     1     -16.074  48.814  27.000  0.00  0.00    +0.000 NA
ATOM      6  C   UNL     1     -18.551  48.890  26.761  0.00  0.00    +0.000 A 
ATOM      7  C   UNL     1     -17.229  49.586  25.007  0.00  0.00    +0.000 A 
ATOM      8  C   UNL     1     -18.658  49.752  24.578  0.00  0.00    +0.000 C 
ATOM      9  C   UNL     1     -20.463  48.345  28.122  0.00  0.00    +0.000 A 
ATOM     10  C   UNL     1     -21.017  47.872  29.442  0.00  0.00    +0.000 C 
ATOM     11  C   UNL     1     -17.180  49.077  26.299  0.00  0.00    +0.000 A 
ATOM     12  C   UNL     1     -21.302  48.733  27.141  0.00  0.00    +0.000 A 
ATOM     13  C   UNL     1     -16.042  49.858  24.340  0.00  0.00    +0.000 A 
ATOM     14  C   UNL     1     -19.020  48.429  27.924  0.00  0.00    +0.000 A 
ATOM     15  C   UNL     1     -20.770  49.255  25.841  0.00  0.00    +0.000 A 
ATOM     16  C   UNL     1     -14.832  49.610  25.050  0.00  0.00    +0.000 A 
ATOM     17  C   UNL     1     -22.783  48.689  27.278  0.00  0.00    +0.000 C 
ATOM     18  C   UNL     1     -14.916  49.083  26.379  0.00  0.00    +0.000 A 
ATOM     19  C   UNL     1     -22.430  47.275  29.248  0.00  0.00    +0.000 C 
ATOM     20  C   UNL     1     -12.404  49.605  25.261  0.00  0.00    +0.000 A 
ATOM     21  C   UNL     1     -13.551  49.858  24.510  0.00  0.00    +0.000 A 
ATOM     22  C   UNL     1     -13.745  48.826  27.082  0.00  0.00    +0.000 A 
ATOM     23  C   UNL     1     -12.485  49.073  26.537  0.00  0.00    +0.000 A 
ENDROOT
BRANCH  10  24
ATOM     24  O   UNL     1     -20.160  46.845  29.960  0.00  0.00    +0.000 OA
ATOM     25  H   UNL     1     -20.499  46.631  30.853  0.00  0.00    +0.000 HD
ENDBRANCH  10  24
BRANCH  10  26
ATOM     26  C   UNL     1     -21.072  49.037  30.454  0.00  0.00    +0.000 C 
ATOM     27  C   UNL     1     -20.011  48.975  31.549  0.00  0.00    +0.000 C 
ENDBRANCH  10  26
BRANCH  13  28
ATOM     28  C   UNL     1     -16.081  50.424  22.941  0.00  0.00    +0.000 C 
ATOM     29  C   UNL     1     -16.233  51.938  22.938  0.00  0.00    +0.000 C 
ENDBRANCH  13  28
BRANCH  20  30
ATOM     30  O   UNL     1     -11.152  49.819  24.684  0.00  0.00    +0.000 OA
BRANCH  30  38
ATOM     31  O   UNL     1     -11.131  47.681  23.794  0.00  0.00    +0.000 OA
ATOM     32  N   UNL     1      -9.151  48.712  24.360  0.00  0.00    +0.000 N 
ATOM     33  C   UNL     1      -6.475  48.340  25.485  0.00  0.00    +0.000 C 
ATOM     34  C   UNL     1      -7.421  49.487  25.922  0.00  0.00    +0.000 C 
ATOM     35  C   UNL     1      -7.341  47.166  24.962  0.00  0.00    +0.000 C 
ATOM     36  C   UNL     1      -8.417  49.874  24.831  0.00  0.00    +0.000 C 
ATOM     37  C   UNL     1      -8.336  47.606  23.893  0.00  0.00    +0.000 C 
ATOM     38  C   UNL     1     -10.531  48.656  24.239  0.00  0.00    +0.000 C 
BRANCH  33  39
ATOM     39  N   UNL     1      -5.565  47.910  26.593  0.00  0.00    +0.000 NA
ATOM     40  C   UNL     1      -6.300  47.242  27.688  0.00  0.00    +0.000 C 
ATOM     41  C   UNL     1      -4.475  47.036  26.113  0.00  0.00    +0.000 C 
ATOM     42  C   UNL     1      -5.391  46.821  28.845  0.00  0.00    +0.000 C 
ATOM     43  C   UNL     1      -3.519  46.608  27.230  0.00  0.00    +0.000 C 
ATOM     44  C   UNL     1      -4.260  45.927  28.367  0.00  0.00    +0.000 C 
ENDBRANCH  33  39
ENDBRANCH  30  38
ENDBRANCH  20  30
TORSDOF 6
ENDMDL
MODEL 7
REMARK VINA RESULT:      -6.4     17.382     21.775
REMARK  Name = 
REMARK  8 active torsions:
REMARK  status: ('A' for Active; 'I' for Inactive)
REMARK    1  A    between atoms: O_1  and  C_21
REMARK    2  A    between atoms: O_1  and  C_38
REMARK    3  A    between atoms: O_4  and  C_26
REMARK    4  A    between atoms: N_7  and  C_11
REMARK    5  A    between atoms: C_26  and  C_33
REMARK    6  A    between atoms: C_29  and  C_37
REMARK    7  A    between atoms: C_33  and  C_42
REMARK    8  A    between atoms: C_37  and  C_43
REMARK                            x       y       z     vdW  Elec       q    Type
REMARK                         _______ _______ _______ _____ _____    ______ ____
ROOT
ATOM      1  O   UNL     1     -25.766  45.093  21.918  0.00  0.00    +0.000 OA
ATOM      2  O   UNL     1     -28.154  41.872  23.211  0.00  0.00    +0.000 OA
ATOM      3  O   UNL     1     -23.675  45.522  21.216  0.00  0.00    +0.000 OA
ATOM      4  N   UNL     1     -26.960  40.371  21.950  0.00  0.00    +0.000 N 
ATOM      5  N   UNL     1     -25.143  38.013  19.950  0.00  0.00    +0.000 NA
ATOM      6  C   UNL     1     -25.984  40.100  21.012  0.00  0.00    +0.000 A 
ATOM      7  C   UNL     1     -26.911  38.078  21.615  0.00  0.00    +0.000 A 
ATOM      8  C   UNL     1     -27.616  39.143  22.405  0.00  0.00    +0.000 C 
ATOM      9  C   UNL     1     -25.507  42.458  20.870  0.00  0.00    +0.000 A 
ATOM     10  C   UNL     1     -24.734  43.584  20.230  0.00  0.00    +0.000 C 
ATOM     11  C   UNL     1     -25.950  38.658  20.795  0.00  0.00    +0.000 A 
ATOM     12  C   UNL     1     -26.459  42.730  21.785  0.00  0.00    +0.000 A 
ATOM     13  C   UNL     1     -27.080  36.701  21.591  0.00  0.00    +0.000 A 
ATOM     14  C   UNL     1     -25.259  41.079  20.462  0.00  0.00    +0.000 A 
ATOM     15  C   UNL     1     -27.274  41.630  22.392  0.00  0.00    +0.000 A 
ATOM     16  C   UNL     1     -26.253  35.965  20.694  0.00  0.00    +0.000 A 
ATOM     17  C   UNL     1     -26.776  44.112  22.235  0.00  0.00    +0.000 C 
ATOM     18  C   UNL     1     -25.299  36.681  19.901  0.00  0.00    +0.000 A 
ATOM     19  C   UNL     1     -24.673  44.800  21.182  0.00  0.00    +0.000 C 
ATOM     20  C   UNL     1     -25.498  33.902  19.639  0.00  0.00    +0.000 A 
ATOM     21  C   UNL     1     -26.326  34.563  20.544  0.00  0.00    +0.000 A 
ATOM     22  C   UNL     1     -24.479  35.978  19.028  0.00  0.00    +0.000 A 
ATOM     23  C   UNL     1     -24.559  34.592  18.890  0.00  0.00    +0.000 A 
ENDROOT
BRANCH  10  24
ATOM     24  O   UNL     1     -23.393  43.138  19.980  0.00  0.00    +0.000 OA
ATOM     25  H   UNL     1     -23.405  42.165  20.088  0.00  0.00    +0.000 HD
ENDBRANCH  10  24
BRANCH  10  26
ATOM     26  C   UNL     1     -25.383  43.994  18.891  0.00  0.00    +0.000 C 
ATOM     27  C   UNL     1     -24.402  44.149  17.733  0.00  0.00    +0.000 C 
ENDBRANCH  10  26
BRANCH  13  28
ATOM     28  C   UNL     1     -28.129  36.059  22.467  0.00  0.00    +0.000 C 
ATOM     29  C   UNL     1     -27.573  35.650  23.822  0.00  0.00    +0.000 C 
ENDBRANCH  13  28
BRANCH  20  30
ATOM     30  O   UNL     1     -25.564  32.512  19.546  0.00  0.00    +0.000 OA
BRANCH  30  38
ATOM     31  O   UNL     1     -27.766  32.060  18.988  0.00  0.00    +0.000 OA
ATOM     32  N   UNL     1     -26.937  31.390  21.029  0.00  0.00    +0.000 N 
ATOM     33  C   UNL     1     -27.523  31.052  23.876  0.00  0.00    +0.000 C 
ATOM     34  C   UNL     1     -26.231  31.731  23.356  0.00  0.00    +0.000 C 
ATOM     35  C   UNL     1     -28.627  31.218  22.801  0.00  0.00    +0.000 C 
ATOM     36  C   UNL     1     -25.834  31.249  21.963  0.00  0.00    +0.000 C 
ATOM     37  C   UNL     1     -28.175  30.746  21.423  0.00  0.00    +0.000 C 
ATOM     38  C   UNL     1     -26.834  31.992  19.783  0.00  0.00    +0.000 C 
BRANCH  33  39
ATOM     39  N   UNL     1     -27.951  31.599  25.202  0.00  0.00    +0.000 NA
ATOM     40  C   UNL     1     -26.940  32.510  25.779  0.00  0.00    +0.000 C 
ATOM     41  C   UNL     1     -29.259  32.282  25.129  0.00  0.00    +0.000 C 
ATOM     42  C   UNL     1     -27.345  33.056  27.150  0.00  0.00    +0.000 C 
ATOM     43  C   UNL     1     -29.723  32.824  26.483  0.00  0.00    +0.000 C 
ATOM     44  C   UNL     1     -28.692  33.756  27.094  0.00  0.00    +0.000 C 
ENDBRANCH  33  39
ENDBRANCH  30  38
ENDBRANCH  20  30
TORSDOF 6
ENDMDL
MODEL 8
REMARK VINA RESULT:      -6.3     25.306     27.619
REMARK  Name = 
REMARK  8 active torsions:
REMARK  status: ('A' for Active; 'I' for Inactive)
REMARK    1  A    between atoms: O_1  and  C_21
REMARK    2  A    between atoms: O_1  and  C_38
REMARK    3  A    between atoms: O_4  and  C_26
REMARK    4  A    between atoms: N_7  and  C_11
REMARK    5  A    between atoms: C_26  and  C_33
REMARK    6  A    between atoms: C_29  and  C_37
REMARK    7  A    between atoms: C_33  and  C_42
REMARK    8  A    between atoms: C_37  and  C_43
REMARK                            x       y       z     vdW  Elec       q    Type
REMARK                         _______ _______ _______ _____ _____    ______ ____
ROOT
ATOM      1  O   UNL     1     -24.141  26.829  11.935  0.00  0.00    +0.000 OA
ATOM      2  O   UNL     1     -25.630  30.064   9.684  0.00  0.00    +0.000 OA
ATOM      3  O   UNL     1     -22.301  25.552  12.118  0.00  0.00    +0.000 OA
ATOM      4  N   UNL     1     -23.523  30.909   9.349  0.00  0.00    +0.000 N 
ATOM      5  N   UNL     1     -20.245  32.279   8.850  0.00  0.00    +0.000 NA
ATOM      6  C   UNL     1     -22.165  30.879   9.593  0.00  0.00    +0.000 A 
ATOM      7  C   UNL     1     -22.548  32.651   8.170  0.00  0.00    +0.000 A 
ATOM      8  C   UNL     1     -23.876  32.008   8.445  0.00  0.00    +0.000 C 
ATOM      9  C   UNL     1     -22.492  28.959  11.012  0.00  0.00    +0.000 A 
ATOM     10  C   UNL     1     -21.911  27.934  11.953  0.00  0.00    +0.000 C 
ATOM     11  C   UNL     1     -21.546  31.975   8.856  0.00  0.00    +0.000 A 
ATOM     12  C   UNL     1     -23.819  28.982  10.777  0.00  0.00    +0.000 A 
ATOM     13  C   UNL     1     -22.214  33.749   7.390  0.00  0.00    +0.000 A 
ATOM     14  C   UNL     1     -21.624  29.955  10.392  0.00  0.00    +0.000 A 
ATOM     15  C   UNL     1     -24.421  30.025   9.887  0.00  0.00    +0.000 A 
ATOM     16  C   UNL     1     -20.840  34.125   7.361  0.00  0.00    +0.000 A 
ATOM     17  C   UNL     1     -24.765  28.008  11.387  0.00  0.00    +0.000 C 
ATOM     18  C   UNL     1     -19.901  33.345   8.112  0.00  0.00    +0.000 A 
ATOM     19  C   UNL     1     -22.801  26.670  11.984  0.00  0.00    +0.000 C 
ATOM     20  C   UNL     1     -18.998  35.554   6.652  0.00  0.00    +0.000 A 
ATOM     21  C   UNL     1     -20.353  35.231   6.629  0.00  0.00    +0.000 A 
ATOM     22  C   UNL     1     -18.557  33.693   8.087  0.00  0.00    +0.000 A 
ATOM     23  C   UNL     1     -18.088  34.786   7.359  0.00  0.00    +0.000 A 
ENDROOT
BRANCH  10  24
ATOM     24  O   UNL     1     -20.610  27.559  11.480  0.00  0.00    +0.000 OA
ATOM     25  H   UNL     1     -20.149  28.393  11.260  0.00  0.00    +0.000 HD
ENDBRANCH  10  24
BRANCH  10  26
ATOM     26  C   UNL     1     -21.779  28.520  13.375  0.00  0.00    +0.000 C 
ATOM     27  C   UNL     1     -20.397  28.354  14.002  0.00  0.00    +0.000 C 
ENDBRANCH  10  26
BRANCH  13  28
ATOM     28  C   UNL     1     -23.294  34.500   6.650  0.00  0.00    +0.000 C 
ATOM     29  C   UNL     1     -23.789  35.709   7.430  0.00  0.00    +0.000 C 
ENDBRANCH  13  28
BRANCH  20  30
ATOM     30  O   UNL     1     -18.542  36.627   5.884  0.00  0.00    +0.000 OA
BRANCH  30  38
ATOM     31  O   UNL     1     -18.711  38.102   7.662  0.00  0.00    +0.000 OA
ATOM     32  N   UNL     1     -17.047  38.376   6.095  0.00  0.00    +0.000 N 
ATOM     33  C   UNL     1     -15.478  40.309   4.557  0.00  0.00    +0.000 C 
ATOM     34  C   UNL     1     -16.142  39.063   3.918  0.00  0.00    +0.000 C 
ATOM     35  C   UNL     1     -16.282  40.692   5.826  0.00  0.00    +0.000 C 
ATOM     36  C   UNL     1     -16.331  37.923   4.914  0.00  0.00    +0.000 C 
ATOM     37  C   UNL     1     -16.466  39.515   6.778  0.00  0.00    +0.000 C 
ATOM     38  C   UNL     1     -18.148  37.730   6.636  0.00  0.00    +0.000 C 
BRANCH  33  39
ATOM     39  N   UNL     1     -15.381  41.451   3.594  0.00  0.00    +0.000 NA
ATOM     40  C   UNL     1     -16.137  41.193   2.350  0.00  0.00    +0.000 C 
ATOM     41  C   UNL     1     -15.820  42.728   4.194  0.00  0.00    +0.000 C 
ATOM     42  C   UNL     1     -16.024  42.337   1.338  0.00  0.00    +0.000 C 
ATOM     43  C   UNL     1     -15.701  43.910   3.229  0.00  0.00    +0.000 C 
ATOM     44  C   UNL     1     -16.466  43.659   1.942  0.00  0.00    +0.000 C 
ENDBRANCH  33  39
ENDBRANCH  30  38
ENDBRANCH  20  30
TORSDOF 6
ENDMDL
MODEL 9
REMARK VINA RESULT:      -6.2     30.026     32.600
REMARK  Name = 
REMARK  8 active torsions:
REMARK  status: ('A' for Active; 'I' for Inactive)
REMARK    1  A    between atoms: O_1  and  C_21
REMARK    2  A    between atoms: O_1  and  C_38
REMARK    3  A    between atoms: O_4  and  C_26
REMARK    4  A    between atoms: N_7  and  C_11
REMARK    5  A    between atoms: C_26  and  C_33
REMARK    6  A    between atoms: C_29  and  C_37
REMARK    7  A    between atoms: C_33  and  C_42
REMARK    8  A    between atoms: C_37  and  C_43
REMARK                            x       y       z     vdW  Elec       q    Type
REMARK                         _______ _______ _______ _____ _____    ______ ____
ROOT
ATOM      1  O   UNL     1       7.487  48.648   7.004  0.00  0.00    +0.000 OA
ATOM      2  O   UNL     1       7.248  44.664   5.652  0.00  0.00    +0.000 OA
ATOM      3  O   UNL     1       7.782  49.815   8.901  0.00  0.00    +0.000 OA
ATOM      4  N   UNL     1       8.617  43.922   7.338  0.00  0.00    +0.000 N 
ATOM      5  N   UNL     1      10.793  42.742   9.934  0.00  0.00    +0.000 NA
ATOM      6  C   UNL     1       9.444  44.178   8.412  0.00  0.00    +0.000 A 
ATOM      7  C   UNL     1       9.416  41.892   8.121  0.00  0.00    +0.000 A 
ATOM      8  C   UNL     1       8.527  42.485   7.066  0.00  0.00    +0.000 C 
ATOM      9  C   UNL     1       9.019  46.534   8.141  0.00  0.00    +0.000 A 
ATOM     10  C   UNL     1       9.292  47.954   8.569  0.00  0.00    +0.000 C 
ATOM     11  C   UNL     1       9.953  42.904   8.909  0.00  0.00    +0.000 A 
ATOM     12  C   UNL     1       8.210  46.292   7.091  0.00  0.00    +0.000 A 
ATOM     13  C   UNL     1       9.753  40.573   8.390  0.00  0.00    +0.000 A 
ATOM     14  C   UNL     1       9.668  45.426   8.834  0.00  0.00    +0.000 A 
ATOM     15  C   UNL     1       7.969  44.891   6.618  0.00  0.00    +0.000 A 
ATOM     16  C   UNL     1      10.660  40.346   9.465  0.00  0.00    +0.000 A 
ATOM     17  C   UNL     1       7.528  47.373   6.329  0.00  0.00    +0.000 C 
ATOM     18  C   UNL     1      11.143  41.475  10.203  0.00  0.00    +0.000 A 
ATOM     19  C   UNL     1       8.107  48.868   8.182  0.00  0.00    +0.000 C 
ATOM     20  C   UNL     1      12.008  38.906  10.897  0.00  0.00    +0.000 A 
ATOM     21  C   UNL     1      11.110  39.061   9.843  0.00  0.00    +0.000 A 
ATOM     22  C   UNL     1      12.020  41.270  11.260  0.00  0.00    +0.000 A 
ATOM     23  C   UNL     1      12.456  39.996  11.625  0.00  0.00    +0.000 A 
ENDROOT
BRANCH  10  24
ATOM     24  O   UNL     1       9.440  47.985   9.996  0.00  0.00    +0.000 OA
ATOM     25  H   UNL     1       9.806  47.115  10.251  0.00  0.00    +0.000 HD
ENDBRANCH  10  24
BRANCH  10  26
ATOM     26  C   UNL     1      10.592  48.474   7.920  0.00  0.00    +0.000 C 
ATOM     27  C   UNL     1      11.782  48.565   8.871  0.00  0.00    +0.000 C 
ENDBRANCH  10  26
BRANCH  13  28
ATOM     28  C   UNL     1       9.189  39.465   7.534  0.00  0.00    +0.000 C 
ATOM     29  C   UNL     1      10.077  39.153   6.340  0.00  0.00    +0.000 C 
ENDBRANCH  13  28
BRANCH  20  30
ATOM     30  O   UNL     1      12.400  37.621  11.273  0.00  0.00    +0.000 OA
BRANCH  30  38
ATOM     31  O   UNL     1      14.343  37.398  10.032  0.00  0.00    +0.000 OA
ATOM     32  N   UNL     1      12.652  35.852   9.808  0.00  0.00    +0.000 N 
ATOM     33  C   UNL     1      11.190  34.131   7.947  0.00  0.00    +0.000 C 
ATOM     34  C   UNL     1      10.485  35.038   8.986  0.00  0.00    +0.000 C 
ATOM     35  C   UNL     1      12.571  34.751   7.616  0.00  0.00    +0.000 C 
ATOM     36  C   UNL     1      11.358  35.322  10.205  0.00  0.00    +0.000 C 
ATOM     37  C   UNL     1      13.396  35.039   8.866  0.00  0.00    +0.000 C 
ATOM     38  C   UNL     1      13.228  36.992  10.347  0.00  0.00    +0.000 C 
BRANCH  33  39
ATOM     39  N   UNL     1      10.359  33.934   6.717  0.00  0.00    +0.000 NA
ATOM     40  C   UNL     1       9.207  33.041   6.963  0.00  0.00    +0.000 C 
ATOM     41  C   UNL     1       9.890  35.215   6.149  0.00  0.00    +0.000 C 
ATOM     42  C   UNL     1       8.361  32.802   5.709  0.00  0.00    +0.000 C 
ATOM     43  C   UNL     1       9.060  35.032   4.875  0.00  0.00    +0.000 C 
ATOM     44  C   UNL     1       7.876  34.111   5.109  0.00  0.00    +0.000 C 
ENDBRANCH  33  39
ENDBRANCH  30  38
ENDBRANCH  20  30
TORSDOF 6
ENDMDL
