MODEL 1
REMARK VINA RESULT:      -7.0      0.000      0.000
REMARK  Name = 
REMARK  8 active torsions:
REMARK  status: ('A' for Active; 'I' for Inactive)
REMARK    1  A    between atoms: O_1  and  C_21
REMARK    2  A    between atoms: O_1  and  C_38
REMARK    3  A    between atoms: O_4  and  C_26
REMARK    4  A    between atoms: N_7  and  C_11
REMARK    5  A    between atoms: C_26  and  C_33
REMARK    6  A    between atoms: C_29  and  C_37
REMARK    7  A    between atoms: C_33  and  C_42
REMARK    8  A    between atoms: C_37  and  C_43
REMARK                            x       y       z     vdW  Elec       q    Type
REMARK                         _______ _______ _______ _____ _____    ______ ____
ROOT
ATOM      1  O   UNL     1     -14.851  38.114  37.317  0.00  0.00    +0.000 OA
ATOM      2  O   UNL     1     -17.586  41.244  36.622  0.00  0.00    +0.000 OA
ATOM      3  O   UNL     1     -12.995  37.211  36.428  0.00  0.00    +0.000 OA
ATOM      4  N   UNL     1     -15.988  42.520  35.580  0.00  0.00    +0.000 N 
ATOM      5  N   UNL     1     -13.500  44.557  33.991  0.00  0.00    +0.000 NA
ATOM      6  C   UNL     1     -14.678  42.728  35.200  0.00  0.00    +0.000 A 
ATOM      7  C   UNL     1     -15.883  44.550  34.466  0.00  0.00    +0.000 A 
ATOM      8  C   UNL     1     -16.847  43.630  35.157  0.00  0.00    +0.000 C 
ATOM      9  C   UNL     1     -14.082  40.623  36.210  0.00  0.00    +0.000 A 
ATOM     10  C   UNL     1     -13.015  39.625  36.584  0.00  0.00    +0.000 C 
ATOM     11  C   UNL     1     -14.604  44.006  34.500  0.00  0.00    +0.000 A 
ATOM     12  C   UNL     1     -15.359  40.414  36.585  0.00  0.00    +0.000 A 
ATOM     13  C   UNL     1     -16.080  45.778  33.851  0.00  0.00    +0.000 A 
ATOM     14  C   UNL     1     -13.723  41.838  35.486  0.00  0.00    +0.000 A 
ATOM     15  C   UNL     1     -16.424  41.419  36.269  0.00  0.00    +0.000 A 
ATOM     16  C   UNL     1     -14.930  46.418  33.304  0.00  0.00    +0.000 A 
ATOM     17  C   UNL     1     -15.794  39.206  37.338  0.00  0.00    +0.000 C 
ATOM     18  C   UNL     1     -13.665  45.752  33.403  0.00  0.00    +0.000 A 
ATOM     19  C   UNL     1     -13.631  38.217  36.748  0.00  0.00    +0.000 C 
ATOM     20  C   UNL     1     -13.808  48.256  32.164  0.00  0.00    +0.000 A 
ATOM     21  C   UNL     1     -14.971  47.678  32.668  0.00  0.00    +0.000 A 
ATOM     22  C   UNL     1     -12.536  46.357  32.867  0.00  0.00    +0.000 A 
ATOM     23  C   UNL     1     -12.590  47.602  32.240  0.00  0.00    +0.000 A 
ENDROOT
BRANCH  10  24
ATOM     24  O   UNL     1     -12.043  39.574  35.530  0.00  0.00    +0.000 OA
ATOM     25  H   UNL     1     -12.457  40.006  34.756  0.00  0.00    +0.000 HD
ENDBRANCH  10  24
BRANCH  10  26
ATOM     26  C   UNL     1     -12.313  40.049  37.892  0.00  0.00    +0.000 C 
ATOM     27  C   UNL     1     -10.789  39.987  37.842  0.00  0.00    +0.000 C 
ENDBRANCH  10  26
BRANCH  13  28
ATOM     28  C   UNL     1     -17.461  46.387  33.818  0.00  0.00    +0.000 C 
ATOM     29  C   UNL     1     -17.762  47.194  35.072  0.00  0.00    +0.000 C 
ENDBRANCH  13  28
BRANCH  20  30
ATOM     30  O   UNL     1     -13.890  49.483  31.503  0.00  0.00    +0.000 OA
BRANCH  30  38
ATOM     31  O   UNL     1     -15.518  49.182  29.884  0.00  0.00    +0.000 OA
ATOM     32  N   UNL     1     -13.329  49.536  29.262  0.00  0.00    +0.000 N 
ATOM     33  C   UNL     1     -11.218  48.831  27.362  0.00  0.00    +0.000 C 
ATOM     34  C   UNL     1     -10.993  48.874  28.895  0.00  0.00    +0.000 C 
ATOM     35  C   UNL     1     -12.719  48.552  27.098  0.00  0.00    +0.000 C 
ATOM     36  C   UNL     1     -11.948  49.832  29.602  0.00  0.00    +0.000 C 
ATOM     37  C   UNL     1     -13.633  49.518  27.844  0.00  0.00    +0.000 C 
ATOM     38  C   UNL     1     -14.347  49.385  30.192  0.00  0.00    +0.000 C 
BRANCH  33  39
ATOM     39  N   UNL     1     -10.338  47.822  26.693  0.00  0.00    +0.000 NA
ATOM     40  C   UNL     1     -10.388  47.933  25.219  0.00  0.00    +0.000 C 
ATOM     41  C   UNL     1      -8.937  47.907  27.156  0.00  0.00    +0.000 C 
ATOM     42  C   UNL     1      -9.518  46.890  24.515  0.00  0.00    +0.000 C 
ATOM     43  C   UNL     1      -8.030  46.864  26.499  0.00  0.00    +0.000 C 
ATOM     44  C   UNL     1      -8.075  46.959  24.985  0.00  0.00    +0.000 C 
ENDBRANCH  33  39
ENDBRANCH  30  38
ENDBRANCH  20  30
TORSDOF 6
ENDMDL
MODEL 2
REMARK VINA RESULT:      -6.8     20.687     24.878
REMARK  Name = 
REMARK  8 active torsions:
REMARK  status: ('A' for Active; 'I' for Inactive)
REMARK    1  A    between atoms: O_1  and  C_21
REMARK    2  A    between atoms: O_1  and  C_38
REMARK    3  A    between atoms: O_4  and  C_26
REMARK    4  A    between atoms: N_7  and  C_11
REMARK    5  A    between atoms: C_26  and  C_33
REMARK    6  A    between atoms: C_29  and  C_37
REMARK    7  A    between atoms: C_33  and  C_42
REMARK    8  A    between atoms: C_37  and  C_43
REMARK                            x       y       z     vdW  Elec       q    Type
REMARK                         _______ _______ _______ _____ _____    ______ ____
ROOT
ATOM      1  O   UNL     1     -26.302  44.037   5.944  0.00  0.00    +0.000 OA
ATOM      2  O   UNL     1     -26.238  46.905   9.029  0.00  0.00    +0.000 OA
ATOM      3  O   UNL     1     -25.717  41.902   5.556  0.00  0.00    +0.000 OA
ATOM      4  N   UNL     1     -26.385  45.287  10.650  0.00  0.00    +0.000 N 
ATOM      5  N   UNL     1     -26.664  42.783  13.203  0.00  0.00    +0.000 NA
ATOM      6  C   UNL     1     -26.547  43.967  11.017  0.00  0.00    +0.000 A 
ATOM      7  C   UNL     1     -26.345  45.180  12.966  0.00  0.00    +0.000 A 
ATOM      8  C   UNL     1     -26.245  46.152  11.826  0.00  0.00    +0.000 C 
ATOM      9  C   UNL     1     -26.677  43.367   8.687  0.00  0.00    +0.000 A 
ATOM     10  C   UNL     1     -26.886  42.306   7.635  0.00  0.00    +0.000 C 
ATOM     11  C   UNL     1     -26.525  43.893  12.474  0.00  0.00    +0.000 A 
ATOM     12  C   UNL     1     -26.519  44.654   8.322  0.00  0.00    +0.000 A 
ATOM     13  C   UNL     1     -26.294  45.380  14.338  0.00  0.00    +0.000 A 
ATOM     14  C   UNL     1     -26.694  43.006  10.100  0.00  0.00    +0.000 A 
ATOM     15  C   UNL     1     -26.363  45.729   9.353  0.00  0.00    +0.000 A 
ATOM     16  C   UNL     1     -26.452  44.229  15.164  0.00  0.00    +0.000 A 
ATOM     17  C   UNL     1     -26.508  45.097   6.901  0.00  0.00    +0.000 C 
ATOM     18  C   UNL     1     -26.630  42.955  14.533  0.00  0.00    +0.000 A 
ATOM     19  C   UNL     1     -26.231  42.737   6.302  0.00  0.00    +0.000 C 
ATOM     20  C   UNL     1     -26.615  43.119  17.327  0.00  0.00    +0.000 A 
ATOM     21  C   UNL     1     -26.442  44.279  16.575  0.00  0.00    +0.000 A 
ATOM     22  C   UNL     1     -26.776  41.822  15.324  0.00  0.00    +0.000 A 
ATOM     23  C   UNL     1     -26.764  41.884  16.717  0.00  0.00    +0.000 A 
ENDROOT
BRANCH  10  24
ATOM     24  O   UNL     1     -26.261  41.092   8.074  0.00  0.00    +0.000 OA
ATOM     25  H   UNL     1     -26.232  41.138   9.051  0.00  0.00    +0.000 HD
ENDBRANCH  10  24
BRANCH  10  26
ATOM     26  C   UNL     1     -28.392  42.046   7.422  0.00  0.00    +0.000 C 
ATOM     27  C   UNL     1     -28.872  40.679   7.903  0.00  0.00    +0.000 C 
ENDBRANCH  10  26
BRANCH  13  28
ATOM     28  C   UNL     1     -26.112  46.774  14.887  0.00  0.00    +0.000 C 
ATOM     29  C   UNL     1     -27.437  47.502  15.055  0.00  0.00    +0.000 C 
ENDBRANCH  13  28
BRANCH  20  30
ATOM     30  O   UNL     1     -26.557  43.196  18.719  0.00  0.00    +0.000 OA
BRANCH  30  38
ATOM     31  O   UNL     1     -24.288  43.533  19.038  0.00  0.00    +0.000 OA
ATOM     32  N   UNL     1     -25.337  41.745  20.040  0.00  0.00    +0.000 N 
ATOM     33  C   UNL     1     -25.094  38.935  20.820  0.00  0.00    +0.000 C 
ATOM     34  C   UNL     1     -26.336  39.502  20.088  0.00  0.00    +0.000 C 
ATOM     35  C   UNL     1     -23.873  39.822  20.466  0.00  0.00    +0.000 C 
ATOM     36  C   UNL     1     -26.541  40.992  20.348  0.00  0.00    +0.000 C 
ATOM     37  C   UNL     1     -24.134  41.303  20.719  0.00  0.00    +0.000 C 
ATOM     38  C   UNL     1     -25.309  42.883  19.248  0.00  0.00    +0.000 C 
BRANCH  33  39
ATOM     39  N   UNL     1     -24.853  37.496  20.486  0.00  0.00    +0.000 NA
ATOM     40  C   UNL     1     -26.110  36.776  20.192  0.00  0.00    +0.000 C 
ATOM     41  C   UNL     1     -23.907  37.334  19.363  0.00  0.00    +0.000 C 
ATOM     42  C   UNL     1     -25.888  35.295  19.878  0.00  0.00    +0.000 C 
ATOM     43  C   UNL     1     -23.629  35.867  19.026  0.00  0.00    +0.000 C 
ATOM     44  C   UNL     1     -24.912  35.111  18.729  0.00  0.00    +0.000 C 
ENDBRANCH  33  39
ENDBRANCH  30  38
ENDBRANCH  20  30
TORSDOF 6
ENDMDL
MODEL 3
REMARK VINA RESULT:      -6.8     31.411     34.406
REMARK  Name = 
REMARK  8 active torsions:
REMARK  status: ('A' for Active; 'I' for Inactive)
REMARK    1  A    between atoms: O_1  and  C_21
REMARK    2  A    between atoms: O_1  and  C_38
REMARK    3  A    between atoms: O_4  and  C_26
REMARK    4  A    between atoms: N_7  and  C_11
REMARK    5  A    between atoms: C_26  and  C_33
REMARK    6  A    between atoms: C_29  and  C_37
REMARK    7  A    between atoms: C_33  and  C_42
REMARK    8  A    between atoms: C_37  and  C_43
REMARK                            x       y       z     vdW  Elec       q    Type
REMARK                         _______ _______ _______ _____ _____    ______ ____
ROOT
ATOM      1  O   UNL     1       7.435  39.315   3.751  0.00  0.00    +0.000 OA
ATOM      2  O   UNL     1       4.533  36.264   3.607  0.00  0.00    +0.000 OA
ATOM      3  O   UNL     1       7.829  41.366   2.923  0.00  0.00    +0.000 OA
ATOM      4  N   UNL     1       2.844  37.773   3.236  0.00  0.00    +0.000 N 
ATOM      5  N   UNL     1       0.178  40.113   2.705  0.00  0.00    +0.000 NA
ATOM      6  C   UNL     1       2.400  39.075   3.134  0.00  0.00    +0.000 A 
ATOM      7  C   UNL     1       0.569  37.717   2.796  0.00  0.00    +0.000 A 
ATOM      8  C   UNL     1       1.750  36.820   3.034  0.00  0.00    +0.000 C 
ATOM      9  C   UNL     1       4.644  39.844   3.558  0.00  0.00    +0.000 A 
ATOM     10  C   UNL     1       5.597  40.992   3.777  0.00  0.00    +0.000 C 
ATOM     11  C   UNL     1       0.967  39.047   2.859  0.00  0.00    +0.000 A 
ATOM     12  C   UNL     1       5.085  38.575   3.659  0.00  0.00    +0.000 A 
ATOM     13  C   UNL     1      -0.763  37.419   2.547  0.00  0.00    +0.000 A 
ATOM     14  C   UNL     1       3.235  40.107   3.284  0.00  0.00    +0.000 A 
ATOM     15  C   UNL     1       4.143  37.421   3.498  0.00  0.00    +0.000 A 
ATOM     16  C   UNL     1      -1.652  38.522   2.390  0.00  0.00    +0.000 A 
ATOM     17  C   UNL     1       6.503  38.232   3.952  0.00  0.00    +0.000 C 
ATOM     18  C   UNL     1      -1.117  39.848   2.476  0.00  0.00    +0.000 A 
ATOM     19  C   UNL     1       7.040  40.565   3.426  0.00  0.00    +0.000 C 
ATOM     20  C   UNL     1      -3.855  39.495   2.021  0.00  0.00    +0.000 A 
ATOM     21  C   UNL     1      -3.036  38.376   2.153  0.00  0.00    +0.000 A 
ATOM     22  C   UNL     1      -1.968  40.935   2.316  0.00  0.00    +0.000 A 
ATOM     23  C   UNL     1      -3.334  40.777   2.081  0.00  0.00    +0.000 A 
ENDROOT
BRANCH  10  24
ATOM     24  O   UNL     1       5.223  42.073   2.911  0.00  0.00    +0.000 OA
ATOM     25  H   UNL     1       5.235  41.711   2.002  0.00  0.00    +0.000 HD
ENDBRANCH  10  24
BRANCH  10  26
ATOM     26  C   UNL     1       5.532  41.477   5.241  0.00  0.00    +0.000 C 
ATOM     27  C   UNL     1       6.234  42.807   5.498  0.00  0.00    +0.000 C 
ENDBRANCH  10  26
BRANCH  13  28
ATOM     28  C   UNL     1      -1.212  35.979   2.489  0.00  0.00    +0.000 C 
ATOM     29  C   UNL     1      -1.051  35.383   1.098  0.00  0.00    +0.000 C 
ENDBRANCH  13  28
BRANCH  20  30
ATOM     30  O   UNL     1      -5.211  39.317   1.745  0.00  0.00    +0.000 OA
BRANCH  30  38
ATOM     31  O   UNL     1      -5.259  38.415  -0.388  0.00  0.00    +0.000 OA
ATOM     32  N   UNL     1      -5.999  37.172   1.404  0.00  0.00    +0.000 N 
ATOM     33  C   UNL     1      -7.982  35.233   2.338  0.00  0.00    +0.000 C 
ATOM     34  C   UNL     1      -7.618  36.515   3.129  0.00  0.00    +0.000 C 
ATOM     35  C   UNL     1      -7.694  35.489   0.837  0.00  0.00    +0.000 C 
ATOM     36  C   UNL     1      -6.204  37.007   2.832  0.00  0.00    +0.000 C 
ATOM     37  C   UNL     1      -6.278  36.002   0.593  0.00  0.00    +0.000 C 
ATOM     38  C   UNL     1      -5.469  38.312   0.817  0.00  0.00    +0.000 C 
BRANCH  33  39
ATOM     39  N   UNL     1      -9.400  34.814   2.569  0.00  0.00    +0.000 NA
ATOM     40  C   UNL     1      -9.768  34.863   4.000  0.00  0.00    +0.000 C 
ATOM     41  C   UNL     1     -10.356  35.615   1.777  0.00  0.00    +0.000 C 
ATOM     42  C   UNL     1     -11.206  34.407   4.261  0.00  0.00    +0.000 C 
ATOM     43  C   UNL     1     -11.810  35.180   1.982  0.00  0.00    +0.000 C 
ATOM     44  C   UNL     1     -12.201  35.217   3.448  0.00  0.00    +0.000 C 
ENDBRANCH  33  39
ENDBRANCH  30  38
ENDBRANCH  20  30
TORSDOF 6
ENDMDL
MODEL 4
REMARK VINA RESULT:      -6.7      9.849     13.345
REMARK  Name = 
REMARK  8 active torsions:
REMARK  status: ('A' for Active; 'I' for Inactive)
REMARK    1  A    between atoms: O_1  and  C_21
REMARK    2  A    between atoms: O_1  and  C_38
REMARK    3  A    between atoms: O_4  and  C_26
REMARK    4  A    between atoms: N_7  and  C_11
REMARK    5  A    between atoms: C_26  and  C_33
REMARK    6  A    between atoms: C_29  and  C_37
REMARK    7  A    between atoms: C_33  and  C_42
REMARK    8  A    between atoms: C_37  and  C_43
REMARK                            x       y       z     vdW  Elec       q    Type
REMARK                         _______ _______ _______ _____ _____    ______ ____
ROOT
ATOM      1  O   UNL     1      -0.361  38.638  36.986  0.00  0.00    +0.000 OA
ATOM      2  O   UNL     1       2.573  41.453  35.885  0.00  0.00    +0.000 OA
ATOM      3  O   UNL     1      -2.594  38.392  37.022  0.00  0.00    +0.000 OA
ATOM      4  N   UNL     1       1.223  42.351  34.262  0.00  0.00    +0.000 N 
ATOM      5  N   UNL     1      -0.848  43.741  31.684  0.00  0.00    +0.000 NA
ATOM      6  C   UNL     1       0.057  42.330  33.523  0.00  0.00    +0.000 A 
ATOM      7  C   UNL     1       1.294  44.120  32.766  0.00  0.00    +0.000 A 
ATOM      8  C   UNL     1       2.088  43.463  33.857  0.00  0.00    +0.000 C 
ATOM      9  C   UNL     1      -0.654  40.386  34.757  0.00  0.00    +0.000 A 
ATOM     10  C   UNL     1      -1.673  39.295  34.976  0.00  0.00    +0.000 C 
ATOM     11  C   UNL     1       0.097  43.440  32.578  0.00  0.00    +0.000 A 
ATOM     12  C   UNL     1       0.482  40.401  35.482  0.00  0.00    +0.000 A 
ATOM     13  C   UNL     1       1.576  45.227  31.977  0.00  0.00    +0.000 A 
ATOM     14  C   UNL     1      -0.877  41.396  33.728  0.00  0.00    +0.000 A 
ATOM     15  C   UNL     1       1.529  41.445  35.243  0.00  0.00    +0.000 A 
ATOM     16  C   UNL     1       0.606  45.583  30.995  0.00  0.00    +0.000 A 
ATOM     17  C   UNL     1       0.782  39.394  36.536  0.00  0.00    +0.000 C 
ATOM     18  C   UNL     1      -0.590  44.800  30.901  0.00  0.00    +0.000 A 
ATOM     19  C   UNL     1      -1.582  38.760  36.423  0.00  0.00    +0.000 C 
ATOM     20  C   UNL     1      -0.217  46.958  29.159  0.00  0.00    +0.000 A 
ATOM     21  C   UNL     1       0.763  46.669  30.107  0.00  0.00    +0.000 A 
ATOM     22  C   UNL     1      -1.550  45.139  29.955  0.00  0.00    +0.000 A 
ATOM     23  C   UNL     1      -1.384  46.216  29.085  0.00  0.00    +0.000 A 
ENDROOT
BRANCH  10  24
ATOM     24  O   UNL     1      -2.984  39.843  34.777  0.00  0.00    +0.000 OA
ATOM     25  H   UNL     1      -2.887  40.545  34.103  0.00  0.00    +0.000 HD
ENDBRANCH  10  24
BRANCH  10  26
ATOM     26  C   UNL     1      -1.454  38.142  33.973  0.00  0.00    +0.000 C 
ATOM     27  C   UNL     1      -2.569  37.100  33.954  0.00  0.00    +0.000 C 
ENDBRANCH  10  26
BRANCH  13  28
ATOM     28  C   UNL     1       2.878  45.967  32.161  0.00  0.00    +0.000 C 
ATOM     29  C   UNL     1       3.953  45.487  31.198  0.00  0.00    +0.000 C 
ENDBRANCH  13  28
BRANCH  20  30
ATOM     30  O   UNL     1      -0.052  48.064  28.325  0.00  0.00    +0.000 OA
BRANCH  30  38
ATOM     31  O   UNL     1      -0.679  49.832  29.685  0.00  0.00    +0.000 OA
ATOM     32  N   UNL     1      -1.853  49.393  27.753  0.00  0.00    +0.000 N 
ATOM     33  C   UNL     1      -4.496  49.335  26.498  0.00  0.00    +0.000 C 
ATOM     34  C   UNL     1      -3.478  48.173  26.374  0.00  0.00    +0.000 C 
ATOM     35  C   UNL     1      -4.202  50.101  27.813  0.00  0.00    +0.000 C 
ATOM     36  C   UNL     1      -2.033  48.640  26.523  0.00  0.00    +0.000 C 
ATOM     37  C   UNL     1      -2.742  50.526  27.927  0.00  0.00    +0.000 C 
ATOM     38  C   UNL     1      -0.844  49.154  28.674  0.00  0.00    +0.000 C 
BRANCH  33  39
ATOM     39  N   UNL     1      -5.912  48.851  26.440  0.00  0.00    +0.000 NA
ATOM     40  C   UNL     1      -6.108  47.834  25.385  0.00  0.00    +0.000 C 
ATOM     41  C   UNL     1      -6.375  48.323  27.740  0.00  0.00    +0.000 C 
ATOM     42  C   UNL     1      -7.556  47.349  25.290  0.00  0.00    +0.000 C 
ATOM     43  C   UNL     1      -7.830  47.849  27.704  0.00  0.00    +0.000 C 
ATOM     44  C   UNL     1      -8.051  46.808  26.621  0.00  0.00    +0.000 C 
ENDBRANCH  33  39
ENDBRANCH  30  38
ENDBRANCH  20  30
TORSDOF 6
ENDMDL
MODEL 5
REMARK VINA RESULT:      -6.6     27.661     30.918
REMARK  Name = 
REMARK  8 active torsions:
REMARK  status: ('A' for Active; 'I' for Inactive)
REMARK    1  A    between atoms: O_1  and  C_21
REMARK    2  A    between atoms: O_1  and  C_38
REMARK    3  A    between atoms: O_4  and  C_26
REMARK    4  A    between atoms: N_7  and  C_11
REMARK    5  A    between atoms: C_26  and  C_33
REMARK    6  A    between atoms: C_29  and  C_37
REMARK    7  A    between atoms: C_33  and  C_42
REMARK    8  A    between atoms: C_37  and  C_43
REMARK                            x       y       z     vdW  Elec       q    Type
REMARK                         _______ _______ _______ _____ _____    ______ ____
ROOT
ATOM      1  O   UNL     1     -24.637  48.452   2.581  0.00  0.00    +0.000 OA
ATOM      2  O   UNL     1     -24.697  44.407   3.758  0.00  0.00    +0.000 OA
ATOM      3  O   UNL     1     -23.338  50.279   2.736  0.00  0.00    +0.000 OA
ATOM      4  N   UNL     1     -22.405  44.279   3.730  0.00  0.00    +0.000 N 
ATOM      5  N   UNL     1     -18.828  44.035   3.647  0.00  0.00    +0.000 NA
ATOM      6  C   UNL     1     -21.175  44.840   3.456  0.00  0.00    +0.000 A 
ATOM      7  C   UNL     1     -20.775  42.719   4.264  0.00  0.00    +0.000 A 
ATOM      8  C   UNL     1     -22.263  42.918   4.256  0.00  0.00    +0.000 C 
ATOM      9  C   UNL     1     -22.288  46.848   2.725  0.00  0.00    +0.000 A 
ATOM     10  C   UNL     1     -22.199  48.232   2.131  0.00  0.00    +0.000 C 
ATOM     11  C   UNL     1     -20.144  43.862   3.787  0.00  0.00    +0.000 A 
ATOM     12  C   UNL     1     -23.493  46.306   2.991  0.00  0.00    +0.000 A 
ATOM     13  C   UNL     1     -20.005  41.630   4.648  0.00  0.00    +0.000 A 
ATOM     14  C   UNL     1     -21.072  46.080   2.967  0.00  0.00    +0.000 A 
ATOM     15  C   UNL     1     -23.603  44.914   3.531  0.00  0.00    +0.000 A 
ATOM     16  C   UNL     1     -18.593  41.757   4.504  0.00  0.00    +0.000 A 
ATOM     17  C   UNL     1     -24.774  47.026   2.755  0.00  0.00    +0.000 C 
ATOM     18  C   UNL     1     -18.065  42.989   4.000  0.00  0.00    +0.000 A 
ATOM     19  C   UNL     1     -23.436  49.068   2.532  0.00  0.00    +0.000 C 
ATOM     20  C   UNL     1     -16.314  40.908   4.657  0.00  0.00    +0.000 A 
ATOM     21  C   UNL     1     -17.684  40.727   4.832  0.00  0.00    +0.000 A 
ATOM     22  C   UNL     1     -16.690  43.132   3.862  0.00  0.00    +0.000 A 
ATOM     23  C   UNL     1     -15.802  42.108   4.192  0.00  0.00    +0.000 A 
ENDROOT
BRANCH  10  24
ATOM     24  O   UNL     1     -21.029  48.881   2.647  0.00  0.00    +0.000 OA
ATOM     25  H   UNL     1     -21.262  49.191   3.545  0.00  0.00    +0.000 HD
ENDBRANCH  10  24
BRANCH  10  26
ATOM     26  C   UNL     1     -22.093  48.154   0.593  0.00  0.00    +0.000 C 
ATOM     27  C   UNL     1     -20.921  48.932  -0.000  0.00  0.00    +0.000 C 
ENDBRANCH  10  26
BRANCH  13  28
ATOM     28  C   UNL     1     -20.677  40.378   5.155  0.00  0.00    +0.000 C 
ATOM     29  C   UNL     1     -20.769  40.350   6.673  0.00  0.00    +0.000 C 
ENDBRANCH  13  28
BRANCH  20  30
ATOM     30  O   UNL     1     -15.440  39.887   5.031  0.00  0.00    +0.000 OA
BRANCH  30  38
ATOM     31  O   UNL     1     -15.577  38.431   3.235  0.00  0.00    +0.000 OA
ATOM     32  N   UNL     1     -16.180  37.720   5.341  0.00  0.00    +0.000 N 
ATOM     33  C   UNL     1     -18.048  36.086   6.891  0.00  0.00    +0.000 C 
ATOM     34  C   UNL     1     -17.681  37.541   7.276  0.00  0.00    +0.000 C 
ATOM     35  C   UNL     1     -17.851  35.922   5.362  0.00  0.00    +0.000 C 
ATOM     36  C   UNL     1     -16.301  37.952   6.770  0.00  0.00    +0.000 C 
ATOM     37  C   UNL     1     -16.467  36.368   4.901  0.00  0.00    +0.000 C 
ATOM     38  C   UNL     1     -15.717  38.661   4.433  0.00  0.00    +0.000 C 
BRANCH  33  39
ATOM     39  N   UNL     1     -19.439  35.726   7.314  0.00  0.00    +0.000 NA
ATOM     40  C   UNL     1     -20.432  36.723   6.862  0.00  0.00    +0.000 C 
ATOM     41  C   UNL     1     -19.832  34.379   6.852  0.00  0.00    +0.000 C 
ATOM     42  C   UNL     1     -21.857  36.389   7.311  0.00  0.00    +0.000 C 
ATOM     43  C   UNL     1     -21.242  33.986   7.300  0.00  0.00    +0.000 C 
ATOM     44  C   UNL     1     -22.275  35.004   6.850  0.00  0.00    +0.000 C 
ENDBRANCH  33  39
ENDBRANCH  30  38
ENDBRANCH  20  30
TORSDOF 6
ENDMDL
MODEL 6
REMARK VINA RESULT:      -6.5     32.916     34.464
REMARK  Name = 
REMARK  8 active torsions:
REMARK  status: ('A' for Active; 'I' for Inactive)
REMARK    1  A    between atoms: O_1  and  C_21
REMARK    2  A    between atoms: O_1  and  C_38
REMARK    3  A    between atoms: O_4  and  C_26
REMARK    4  A    between atoms: N_7  and  C_11
REMARK    5  A    between atoms: C_26  and  C_33
REMARK    6  A    between atoms: C_29  and  C_37
REMARK    7  A    between atoms: C_33  and  C_42
REMARK    8  A    between atoms: C_37  and  C_43
REMARK                            x       y       z     vdW  Elec       q    Type
REMARK                         _______ _______ _______ _____ _____    ______ ____
ROOT
ATOM      1  O   UNL     1      13.956  35.065  14.673  0.00  0.00    +0.000 OA
ATOM      2  O   UNL     1      13.619  39.040  13.317  0.00  0.00    +0.000 OA
ATOM      3  O   UNL     1      12.815  33.130  14.655  0.00  0.00    +0.000 OA
ATOM      4  N   UNL     1      12.318  38.410  11.534  0.00  0.00    +0.000 N 
ATOM      5  N   UNL     1      10.323  37.447   8.713  0.00  0.00    +0.000 NA
ATOM      6  C   UNL     1      11.738  37.425  10.760  0.00  0.00    +0.000 A 
ATOM      7  C   UNL     1      11.156  39.445   9.817  0.00  0.00    +0.000 A 
ATOM      8  C   UNL     1      12.006  39.745  11.017  0.00  0.00    +0.000 C 
ATOM      9  C   UNL     1      12.691  35.759  12.218  0.00  0.00    +0.000 A 
ATOM     10  C   UNL     1      12.919  34.305  12.543  0.00  0.00    +0.000 C 
ATOM     11  C   UNL     1      11.007  38.071   9.676  0.00  0.00    +0.000 A 
ATOM     12  C   UNL     1      13.260  36.716  12.978  0.00  0.00    +0.000 A 
ATOM     13  C   UNL     1      10.552  40.290   8.896  0.00  0.00    +0.000 A 
ATOM     14  C   UNL     1      11.894  36.131  11.054  0.00  0.00    +0.000 A 
ATOM     15  C   UNL     1      13.089  38.165  12.640  0.00  0.00    +0.000 A 
ATOM     16  C   UNL     1       9.822  39.675   7.838  0.00  0.00    +0.000 A 
ATOM     17  C   UNL     1      14.098  36.410  14.169  0.00  0.00    +0.000 C 
ATOM     18  C   UNL     1       9.742  38.245   7.804  0.00  0.00    +0.000 A 
ATOM     19  C   UNL     1      13.206  34.131  14.051  0.00  0.00    +0.000 C 
ATOM     20  C   UNL     1       8.484  39.742   5.802  0.00  0.00    +0.000 A 
ATOM     21  C   UNL     1       9.172  40.403   6.818  0.00  0.00    +0.000 A 
ATOM     22  C   UNL     1       9.026  37.630   6.785  0.00  0.00    +0.000 A 
ATOM     23  C   UNL     1       8.387  38.361   5.783  0.00  0.00    +0.000 A 
ENDROOT
BRANCH  10  24
ATOM     24  O   UNL     1      11.730  33.569  12.221  0.00  0.00    +0.000 OA
ATOM     25  H   UNL     1      11.954  32.624  12.339  0.00  0.00    +0.000 HD
ENDBRANCH  10  24
BRANCH  10  26
ATOM     26  C   UNL     1      14.095  33.744  11.715  0.00  0.00    +0.000 C 
ATOM     27  C   UNL     1      14.514  32.325  12.091  0.00  0.00    +0.000 C 
ENDBRANCH  10  26
BRANCH  13  28
ATOM     28  C   UNL     1      10.717  41.785   9.029  0.00  0.00    +0.000 C 
ATOM     29  C   UNL     1       9.606  42.413   9.857  0.00  0.00    +0.000 C 
ENDBRANCH  13  28
BRANCH  20  30
ATOM     30  O   UNL     1       7.817  40.491   4.833  0.00  0.00    +0.000 OA
BRANCH  30  38
ATOM     31  O   UNL     1       9.607  41.057   3.476  0.00  0.00    +0.000 OA
ATOM     32  N   UNL     1       8.240  42.705   4.325  0.00  0.00    +0.000 N 
ATOM     33  C   UNL     1       8.126  45.418   5.416  0.00  0.00    +0.000 C 
ATOM     34  C   UNL     1       7.408  44.213   6.076  0.00  0.00    +0.000 C 
ATOM     35  C   UNL     1       9.337  44.882   4.611  0.00  0.00    +0.000 C 
ATOM     36  C   UNL     1       7.064  43.115   5.074  0.00  0.00    +0.000 C 
ATOM     37  C   UNL     1       8.948  43.771   3.642  0.00  0.00    +0.000 C 
ATOM     38  C   UNL     1       8.636  41.387   4.152  0.00  0.00    +0.000 C 
BRANCH  33  39
ATOM     39  N   UNL     1       8.538  46.446   6.423  0.00  0.00    +0.000 NA
ATOM     40  C   UNL     1       7.378  47.020   7.138  0.00  0.00    +0.000 C 
ATOM     41  C   UNL     1       9.515  45.916   7.397  0.00  0.00    +0.000 C 
ATOM     42  C   UNL     1       7.776  48.097   8.150  0.00  0.00    +0.000 C 
ATOM     43  C   UNL     1       9.967  46.963   8.417  0.00  0.00    +0.000 C 
ATOM     44  C   UNL     1       8.786  47.569   9.155  0.00  0.00    +0.000 C 
ENDBRANCH  33  39
ENDBRANCH  30  38
ENDBRANCH  20  30
TORSDOF 6
ENDMDL
MODEL 7
REMARK VINA RESULT:      -6.3     27.535     32.123
REMARK  Name = 
REMARK  8 active torsions:
REMARK  status: ('A' for Active; 'I' for Inactive)
REMARK    1  A    between atoms: O_1  and  C_21
REMARK    2  A    between atoms: O_1  and  C_38
REMARK    3  A    between atoms: O_4  and  C_26
REMARK    4  A    between atoms: N_7  and  C_11
REMARK    5  A    between atoms: C_26  and  C_33
REMARK    6  A    between atoms: C_29  and  C_37
REMARK    7  A    between atoms: C_33  and  C_42
REMARK    8  A    between atoms: C_37  and  C_43
REMARK                            x       y       z     vdW  Elec       q    Type
REMARK                         _______ _______ _______ _____ _____    ______ ____
ROOT
ATOM      1  O   UNL     1      11.545  34.490  25.913  0.00  0.00    +0.000 OA
ATOM      2  O   UNL     1      11.406  30.927  23.668  0.00  0.00    +0.000 OA
ATOM      3  O   UNL     1      12.459  36.541  25.846  0.00  0.00    +0.000 OA
ATOM      4  N   UNL     1      11.714  32.059  21.696  0.00  0.00    +0.000 N 
ATOM      5  N   UNL     1      12.144  33.808  18.594  0.00  0.00    +0.000 NA
ATOM      6  C   UNL     1      11.827  33.244  20.997  0.00  0.00    +0.000 A 
ATOM      7  C   UNL     1      12.004  31.541  19.456  0.00  0.00    +0.000 A 
ATOM      8  C   UNL     1      11.815  30.903  20.802  0.00  0.00    +0.000 C 
ATOM      9  C   UNL     1      11.573  34.454  23.066  0.00  0.00    +0.000 A 
ATOM     10  C   UNL     1      11.452  35.774  23.784  0.00  0.00    +0.000 C 
ATOM     11  C   UNL     1      12.008  32.924  19.586  0.00  0.00    +0.000 A 
ATOM     12  C   UNL     1      11.461  33.301  23.754  0.00  0.00    +0.000 A 
ATOM     13  C   UNL     1      12.157  30.978  18.196  0.00  0.00    +0.000 A 
ATOM     14  C   UNL     1      11.763  34.425  21.620  0.00  0.00    +0.000 A 
ATOM     15  C   UNL     1      11.526  31.980  23.051  0.00  0.00    +0.000 A 
ATOM     16  C   UNL     1      12.291  31.878  17.100  0.00  0.00    +0.000 A 
ATOM     17  C   UNL     1      11.251  33.255  25.227  0.00  0.00    +0.000 C 
ATOM     18  C   UNL     1      12.280  33.286  17.366  0.00  0.00    +0.000 A 
ATOM     19  C   UNL     1      11.882  35.623  25.261  0.00  0.00    +0.000 C 
ATOM     20  C   UNL     1      12.547  32.386  14.730  0.00  0.00    +0.000 A 
ATOM     21  C   UNL     1      12.433  31.454  15.760  0.00  0.00    +0.000 A 
ATOM     22  C   UNL     1      12.419  34.177  16.309  0.00  0.00    +0.000 A 
ATOM     23  C   UNL     1      12.560  33.746  14.990  0.00  0.00    +0.000 A 
ENDROOT
BRANCH  10  24
ATOM     24  O   UNL     1      12.325  36.723  23.155  0.00  0.00    +0.000 OA
ATOM     25  H   UNL     1      11.838  37.070  22.381  0.00  0.00    +0.000 HD
ENDBRANCH  10  24
BRANCH  10  26
ATOM     26  C   UNL     1      10.003  36.300  23.709  0.00  0.00    +0.000 C 
ATOM     27  C   UNL     1       9.822  37.534  22.828  0.00  0.00    +0.000 C 
ENDBRANCH  10  26
BRANCH  13  28
ATOM     28  C   UNL     1      12.141  29.477  18.039  0.00  0.00    +0.000 C 
ATOM     29  C   UNL     1      10.731  28.932  17.873  0.00  0.00    +0.000 C 
ENDBRANCH  13  28
BRANCH  20  30
ATOM     30  O   UNL     1      12.729  31.934  13.422  0.00  0.00    +0.000 OA
BRANCH  30  38
ATOM     31  O   UNL     1      14.805  32.891  13.049  0.00  0.00    +0.000 OA
ATOM     32  N   UNL     1      13.114  33.176  11.512  0.00  0.00    +0.000 N 
ATOM     33  C   UNL     1      11.850  35.031   9.634  0.00  0.00    +0.000 C 
ATOM     34  C   UNL     1      11.046  34.182  10.651  0.00  0.00    +0.000 C 
ATOM     35  C   UNL     1      13.278  35.243  10.199  0.00  0.00    +0.000 C 
ATOM     36  C   UNL     1      11.768  32.896  11.044  0.00  0.00    +0.000 C 
ATOM     37  C   UNL     1      13.949  33.933  10.599  0.00  0.00    +0.000 C 
ATOM     38  C   UNL     1      13.649  32.682  12.693  0.00  0.00    +0.000 C 
BRANCH  33  39
ATOM     39  N   UNL     1      11.174  36.331   9.328  0.00  0.00    +0.000 NA
ATOM     40  C   UNL     1      10.137  36.184   8.285  0.00  0.00    +0.000 C 
ATOM     41  C   UNL     1      10.591  36.955  10.533  0.00  0.00    +0.000 C 
ATOM     42  C   UNL     1       9.455  37.509   7.934  0.00  0.00    +0.000 C 
ATOM     43  C   UNL     1       9.919  38.299  10.240  0.00  0.00    +0.000 C 
ATOM     44  C   UNL     1       8.855  38.168   9.165  0.00  0.00    +0.000 C 
ENDBRANCH  33  39
ENDBRANCH  30  38
ENDBRANCH  20  30
TORSDOF 6
ENDMDL
MODEL 8
REMARK VINA RESULT:      -6.3     19.761     24.401
REMARK  Name = 
REMARK  8 active torsions:
REMARK  status: ('A' for Active; 'I' for Inactive)
REMARK    1  A    between atoms: O_1  and  C_21
REMARK    2  A    between atoms: O_1  and  C_38
REMARK    3  A    between atoms: O_4  and  C_26
REMARK    4  A    between atoms: N_7  and  C_11
REMARK    5  A    between atoms: C_26  and  C_33
REMARK    6  A    between atoms: C_29  and  C_37
REMARK    7  A    between atoms: C_33  and  C_42
REMARK    8  A    between atoms: C_37  and  C_43
REMARK                            x       y       z     vdW  Elec       q    Type
REMARK                         _______ _______ _______ _____ _____    ______ ____
ROOT
ATOM      1  O   UNL     1     -25.994  47.276   6.884  0.00  0.00    +0.000 OA
ATOM      2  O   UNL     1     -27.466  43.944   9.001  0.00  0.00    +0.000 OA
ATOM      3  O   UNL     1     -25.488  49.442   7.204  0.00  0.00    +0.000 OA
ATOM      4  N   UNL     1     -26.595  44.712  10.981  0.00  0.00    +0.000 N 
ATOM      5  N   UNL     1     -25.203  45.864  14.079  0.00  0.00    +0.000 NA
ATOM      6  C   UNL     1     -25.831  45.622  11.683  0.00  0.00    +0.000 A 
ATOM      7  C   UNL     1     -26.618  44.089  13.213  0.00  0.00    +0.000 A 
ATOM      8  C   UNL     1     -27.149  43.686  11.868  0.00  0.00    +0.000 C 
ATOM      9  C   UNL     1     -25.393  46.798   9.626  0.00  0.00    +0.000 A 
ATOM     10  C   UNL     1     -24.687  47.917   8.902  0.00  0.00    +0.000 C 
ATOM     11  C   UNL     1     -25.840  45.234  13.089  0.00  0.00    +0.000 A 
ATOM     12  C   UNL     1     -26.137  45.913   8.934  0.00  0.00    +0.000 A 
ATOM     13  C   UNL     1     -26.782  43.513  14.465  0.00  0.00    +0.000 A 
ATOM     14  C   UNL     1     -25.230  46.645  11.068  0.00  0.00    +0.000 A 
ATOM     15  C   UNL     1     -26.802  44.764   9.627  0.00  0.00    +0.000 A 
ATOM     16  C   UNL     1     -26.110  44.138  15.555  0.00  0.00    +0.000 A 
ATOM     17  C   UNL     1     -26.334  45.998   7.461  0.00  0.00    +0.000 C 
ATOM     18  C   UNL     1     -25.337  45.317  15.297  0.00  0.00    +0.000 A 
ATOM     19  C   UNL     1     -25.445  48.278   7.604  0.00  0.00    +0.000 C 
ATOM     20  C   UNL     1     -25.475  44.306  17.902  0.00  0.00    +0.000 A 
ATOM     21  C   UNL     1     -26.166  43.656  16.881  0.00  0.00    +0.000 A 
ATOM     22  C   UNL     1     -24.683  45.944  16.350  0.00  0.00    +0.000 A 
ATOM     23  C   UNL     1     -24.747  45.458  17.656  0.00  0.00    +0.000 A 
ENDROOT
BRANCH  10  24
ATOM     24  O   UNL     1     -24.668  49.074   9.750  0.00  0.00    +0.000 OA
ATOM     25  H   UNL     1     -25.526  49.082  10.220  0.00  0.00    +0.000 HD
ENDBRANCH  10  24
BRANCH  10  26
ATOM     26  C   UNL     1     -23.234  47.515   8.570  0.00  0.00    +0.000 C 
ATOM     27  C   UNL     1     -22.375  48.648   8.016  0.00  0.00    +0.000 C 
ENDBRANCH  10  26
BRANCH  13  28
ATOM     28  C   UNL     1     -27.613  42.262  14.613  0.00  0.00    +0.000 C 
ATOM     29  C   UNL     1     -26.755  41.010  14.702  0.00  0.00    +0.000 C 
ENDBRANCH  13  28
BRANCH  20  30
ATOM     30  O   UNL     1     -25.585  43.829  19.209  0.00  0.00    +0.000 OA
BRANCH  30  38
ATOM     31  O   UNL     1     -23.318  43.422  19.446  0.00  0.00    +0.000 OA
ATOM     32  N   UNL     1     -24.850  41.922  20.287  0.00  0.00    +0.000 N 
ATOM     33  C   UNL     1     -25.467  39.095  20.721  0.00  0.00    +0.000 C 
ATOM     34  C   UNL     1     -26.486  40.099  20.125  0.00  0.00    +0.000 C 
ATOM     35  C   UNL     1     -24.039  39.608  20.409  0.00  0.00    +0.000 C 
ATOM     36  C   UNL     1     -26.222  41.536  20.567  0.00  0.00    +0.000 C 
ATOM     37  C   UNL     1     -23.830  41.055  20.846  0.00  0.00    +0.000 C 
ATOM     38  C   UNL     1     -24.485  43.089  19.633  0.00  0.00    +0.000 C 
BRANCH  33  39
ATOM     39  N   UNL     1     -25.683  37.705  20.209  0.00  0.00    +0.000 NA
ATOM     40  C   UNL     1     -26.738  37.652  19.174  0.00  0.00    +0.000 C 
ATOM     41  C   UNL     1     -24.438  37.101  19.689  0.00  0.00    +0.000 C 
ATOM     42  C   UNL     1     -26.995  36.233  18.660  0.00  0.00    +0.000 C 
ATOM     43  C   UNL     1     -24.637  35.669  19.186  0.00  0.00    +0.000 C 
ATOM     44  C   UNL     1     -25.723  35.595  18.128  0.00  0.00    +0.000 C 
ENDBRANCH  33  39
ENDBRANCH  30  38
ENDBRANCH  20  30
TORSDOF 6
ENDMDL
MODEL 9
REMARK VINA RESULT:      -6.2     23.034     26.776
REMARK  Name = 
REMARK  8 active torsions:
REMARK  status: ('A' for Active; 'I' for Inactive)
REMARK    1  A    between atoms: O_1  and  C_21
REMARK    2  A    between atoms: O_1  and  C_38
REMARK    3  A    between atoms: O_4  and  C_26
REMARK    4  A    between atoms: N_7  and  C_11
REMARK    5  A    between atoms: C_26  and  C_33
REMARK    6  A    between atoms: C_29  and  C_37
REMARK    7  A    between atoms: C_33  and  C_42
REMARK    8  A    between atoms: C_37  and  C_43
REMARK                            x       y       z     vdW  Elec       q    Type
REMARK                         _______ _______ _______ _____ _____    ______ ____
ROOT
ATOM      1  O   UNL     1     -21.813  48.046   4.309  0.00  0.00    +0.000 OA
ATOM      2  O   UNL     1     -19.958  51.821   4.069  0.00  0.00    +0.000 OA
ATOM      3  O   UNL     1     -21.678  46.124   5.464  0.00  0.00    +0.000 OA
ATOM      4  N   UNL     1     -19.382  51.772   6.290  0.00  0.00    +0.000 N 
ATOM      5  N   UNL     1     -18.513  51.745   9.770  0.00  0.00    +0.000 NA
ATOM      6  C   UNL     1     -19.437  51.172   7.531  0.00  0.00    +0.000 A 
ATOM      7  C   UNL     1     -18.174  53.084   7.771  0.00  0.00    +0.000 A 
ATOM      8  C   UNL     1     -18.594  53.007   6.332  0.00  0.00    +0.000 C 
ATOM      9  C   UNL     1     -20.786  49.412   6.587  0.00  0.00    +0.000 A 
ATOM     10  C   UNL     1     -21.585  48.148   6.785  0.00  0.00    +0.000 C 
ATOM     11  C   UNL     1     -18.680  51.993   8.469  0.00  0.00    +0.000 A 
ATOM     12  C   UNL     1     -20.736  49.993   5.372  0.00  0.00    +0.000 A 
ATOM     13  C   UNL     1     -17.412  54.027   8.447  0.00  0.00    +0.000 A 
ATOM     14  C   UNL     1     -20.106  50.030   7.720  0.00  0.00    +0.000 A 
ATOM     15  C   UNL     1     -19.992  51.277   5.167  0.00  0.00    +0.000 A 
ATOM     16  C   UNL     1     -17.216  53.817   9.843  0.00  0.00    +0.000 A 
ATOM     17  C   UNL     1     -21.418  49.428   4.176  0.00  0.00    +0.000 C 
ATOM     18  C   UNL     1     -17.791  52.651  10.446  0.00  0.00    +0.000 A 
ATOM     19  C   UNL     1     -21.671  47.356   5.461  0.00  0.00    +0.000 C 
ATOM     20  C   UNL     1     -16.338  54.445  12.027  0.00  0.00    +0.000 A 
ATOM     21  C   UNL     1     -16.483  54.700  10.665  0.00  0.00    +0.000 A 
ATOM     22  C   UNL     1     -17.601  52.426  11.804  0.00  0.00    +0.000 A 
ATOM     23  C   UNL     1     -16.873  53.306  12.605  0.00  0.00    +0.000 A 
ENDROOT
BRANCH  10  24
ATOM     24  O   UNL     1     -20.920  47.331   7.758  0.00  0.00    +0.000 OA
ATOM     25  H   UNL     1     -21.472  46.530   7.865  0.00  0.00    +0.000 HD
ENDBRANCH  10  24
BRANCH  10  26
ATOM     26  C   UNL     1     -23.004  48.480   7.294  0.00  0.00    +0.000 C 
ATOM     27  C   UNL     1     -23.461  47.642   8.485  0.00  0.00    +0.000 C 
ENDBRANCH  10  26
BRANCH  13  28
ATOM     28  C   UNL     1     -16.868  55.223   7.705  0.00  0.00    +0.000 C 
ATOM     29  C   UNL     1     -15.496  54.951   7.106  0.00  0.00    +0.000 C 
ENDBRANCH  13  28
BRANCH  20  30
ATOM     30  O   UNL     1     -15.571  55.315  12.804  0.00  0.00    +0.000 OA
BRANCH  30  38
ATOM     31  O   UNL     1     -17.198  56.910  13.220  0.00  0.00    +0.000 OA
ATOM     32  N   UNL     1     -15.139  57.550  12.413  0.00  0.00    +0.000 N 
ATOM     33  C   UNL     1     -13.711  59.378  10.629  0.00  0.00    +0.000 C 
ATOM     34  C   UNL     1     -13.437  57.854  10.669  0.00  0.00    +0.000 C 
ATOM     35  C   UNL     1     -15.166  59.624  11.100  0.00  0.00    +0.000 C 
ATOM     36  C   UNL     1     -13.777  57.231  12.020  0.00  0.00    +0.000 C 
ATOM     37  C   UNL     1     -15.465  58.963  12.442  0.00  0.00    +0.000 C 
ATOM     38  C   UNL     1     -16.066  56.615  12.847  0.00  0.00    +0.000 C 
BRANCH  33  39
ATOM     39  N   UNL     1     -13.459  59.960   9.273  0.00  0.00    +0.000 NA
ATOM     40  C   UNL     1     -12.149  59.545   8.725  0.00  0.00    +0.000 C 
ATOM     41  C   UNL     1     -14.533  59.627   8.314  0.00  0.00    +0.000 C 
ATOM     42  C   UNL     1     -11.860  60.155   7.352  0.00  0.00    +0.000 C 
ATOM     43  C   UNL     1     -14.303  60.237   6.929  0.00  0.00    +0.000 C 
ATOM     44  C   UNL     1     -12.958  59.827   6.355  0.00  0.00    +0.000 C 
ENDBRANCH  33  39
ENDBRANCH  30  38
ENDBRANCH  20  30
TORSDOF 6
ENDMDL
