MODEL 1
REMARK VINA RESULT:      -6.3      0.000      0.000
REMARK  Name = 
REMARK  4 active torsions:
REMARK  status: ('A' for Active; 'I' for Inactive)
REMARK    1  A    between atoms: C_1  and  C_6
REMARK    2  A    between atoms: C_1  and  C_7
REMARK    3  A    between atoms: C_9  and  C_14
REMARK    4  A    between atoms: C_11  and  C_15
REMARK                            x       y       z     vdW  Elec       q    Type
REMARK                         _______ _______ _______ _____ _____    ______ ____
ROOT
ATOM      1  C   UNL     1      -4.541  45.082  26.238  0.00  0.00    +0.000 C 
ATOM      2  C   UNL     1      -4.338  46.420  25.533  0.00  0.00    +0.000 C 
ATOM      3  C   UNL     1      -3.182  45.763  26.244  0.00  0.00    +0.000 C 
ATOM      4  C   UNL     1      -4.996  47.623  26.038  0.00  0.00    +0.000 C 
ATOM      5  C   UNL     1      -2.551  46.394  27.446  0.00  0.00    +0.000 C 
ATOM      6  C   UNL     1      -5.344  44.986  27.514  0.00  0.00    +0.000 C 
ATOM      7  C   UNL     1      -4.690  43.862  25.362  0.00  0.00    +0.000 C 
ATOM      8  C   UNL     1      -4.522  48.643  26.779  0.00  0.00    +0.000 C 
ATOM      9  C   UNL     1      -6.462  47.825  25.709  0.00  0.00    +0.000 C 
ATOM     10  C   UNL     1      -2.074  47.807  27.114  0.00  0.00    +0.000 C 
ATOM     11  C   UNL     1      -3.145  48.891  27.350  0.00  0.00    +0.000 C 
ATOM     12  C   UNL     1      -5.615  49.637  27.080  0.00  0.00    +0.000 C 
ATOM     13  C   UNL     1      -6.886  48.866  26.745  0.00  0.00    +0.000 C 
ATOM     14  C   UNL     1      -6.671  48.316  24.278  0.00  0.00    +0.000 C 
ATOM     15  C   UNL     1      -2.589  50.237  26.862  0.00  0.00    +0.000 C 
ENDROOT
TORSDOF 0
ENDMDL
MODEL 2
REMARK VINA RESULT:      -5.7      1.209      4.515
REMARK  Name = 
REMARK  4 active torsions:
REMARK  status: ('A' for Active; 'I' for Inactive)
REMARK    1  A    between atoms: C_1  and  C_6
REMARK    2  A    between atoms: C_1  and  C_7
REMARK    3  A    between atoms: C_9  and  C_14
REMARK    4  A    between atoms: C_11  and  C_15
REMARK                            x       y       z     vdW  Elec       q    Type
REMARK                         _______ _______ _______ _____ _____    ______ ____
ROOT
ATOM      1  C   UNL     1      -6.442  49.286  27.548  0.00  0.00    +0.000 C 
ATOM      2  C   UNL     1      -5.443  48.879  26.469  0.00  0.00    +0.000 C 
ATOM      3  C   UNL     1      -6.826  48.278  26.478  0.00  0.00    +0.000 C 
ATOM      4  C   UNL     1      -4.248  48.117  26.825  0.00  0.00    +0.000 C 
ATOM      5  C   UNL     1      -7.035  46.816  26.720  0.00  0.00    +0.000 C 
ATOM      6  C   UNL     1      -6.269  48.838  28.981  0.00  0.00    +0.000 C 
ATOM      7  C   UNL     1      -7.047  50.665  27.437  0.00  0.00    +0.000 C 
ATOM      8  C   UNL     1      -3.970  46.804  26.707  0.00  0.00    +0.000 C 
ATOM      9  C   UNL     1      -3.080  48.868  27.433  0.00  0.00    +0.000 C 
ATOM     10  C   UNL     1      -6.239  45.992  25.709  0.00  0.00    +0.000 C 
ATOM     11  C   UNL     1      -4.805  45.664  26.171  0.00  0.00    +0.000 C 
ATOM     12  C   UNL     1      -2.602  46.497  27.260  0.00  0.00    +0.000 C 
ATOM     13  C   UNL     1      -2.269  47.741  28.074  0.00  0.00    +0.000 C 
ATOM     14  C   UNL     1      -2.275  49.633  26.385  0.00  0.00    +0.000 C 
ATOM     15  C   UNL     1      -4.077  44.950  25.023  0.00  0.00    +0.000 C 
ENDROOT
TORSDOF 0
ENDMDL
MODEL 3
REMARK VINA RESULT:      -5.5     23.865     25.805
REMARK  Name = 
REMARK  4 active torsions:
REMARK  status: ('A' for Active; 'I' for Inactive)
REMARK    1  A    between atoms: C_1  and  C_6
REMARK    2  A    between atoms: C_1  and  C_7
REMARK    3  A    between atoms: C_9  and  C_14
REMARK    4  A    between atoms: C_11  and  C_15
REMARK                            x       y       z     vdW  Elec       q    Type
REMARK                         _______ _______ _______ _____ _____    ______ ____
ROOT
ATOM      1  C   UNL     1     -15.708  37.858   5.677  0.00  0.00    +0.000 C 
ATOM      2  C   UNL     1     -16.379  38.964   6.484  0.00  0.00    +0.000 C 
ATOM      3  C   UNL     1     -16.893  37.550   6.576  0.00  0.00    +0.000 C 
ATOM      4  C   UNL     1     -17.113  40.029   5.803  0.00  0.00    +0.000 C 
ATOM      5  C   UNL     1     -18.261  37.188   6.089  0.00  0.00    +0.000 C 
ATOM      6  C   UNL     1     -15.860  37.785   4.175  0.00  0.00    +0.000 C 
ATOM      7  C   UNL     1     -14.351  37.391   6.149  0.00  0.00    +0.000 C 
ATOM      8  C   UNL     1     -18.434  40.211   5.617  0.00  0.00    +0.000 C 
ATOM      9  C   UNL     1     -16.314  41.156   5.177  0.00  0.00    +0.000 C 
ATOM     10  C   UNL     1     -19.316  38.049   6.781  0.00  0.00    +0.000 C 
ATOM     11  C   UNL     1     -19.616  39.370   6.045  0.00  0.00    +0.000 C 
ATOM     12  C   UNL     1     -18.692  41.455   4.806  0.00  0.00    +0.000 C 
ATOM     13  C   UNL     1     -17.326  41.769   4.209  0.00  0.00    +0.000 C 
ATOM     14  C   UNL     1     -15.825  42.163   6.214  0.00  0.00    +0.000 C 
ATOM     15  C   UNL     1     -20.587  40.194   6.901  0.00  0.00    +0.000 C 
ENDROOT
TORSDOF 0
ENDMDL
MODEL 4
REMARK VINA RESULT:      -5.2     24.212     26.066
REMARK  Name = 
REMARK  4 active torsions:
REMARK  status: ('A' for Active; 'I' for Inactive)
REMARK    1  A    between atoms: C_1  and  C_6
REMARK    2  A    between atoms: C_1  and  C_7
REMARK    3  A    between atoms: C_9  and  C_14
REMARK    4  A    between atoms: C_11  and  C_15
REMARK                            x       y       z     vdW  Elec       q    Type
REMARK                         _______ _______ _______ _____ _____    ______ ____
ROOT
ATOM      1  C   UNL     1     -20.297  39.378   5.739  0.00  0.00    +0.000 C 
ATOM      2  C   UNL     1     -18.992  39.249   4.959  0.00  0.00    +0.000 C 
ATOM      3  C   UNL     1     -19.470  38.105   5.818  0.00  0.00    +0.000 C 
ATOM      4  C   UNL     1     -17.840  40.075   5.314  0.00  0.00    +0.000 C 
ATOM      5  C   UNL     1     -18.700  37.664   7.022  0.00  0.00    +0.000 C 
ATOM      6  C   UNL     1     -20.402  40.287   6.941  0.00  0.00    +0.000 C 
ATOM      7  C   UNL     1     -21.579  39.312   4.943  0.00  0.00    +0.000 C 
ATOM      8  C   UNL     1     -16.730  39.786   6.019  0.00  0.00    +0.000 C 
ATOM      9  C   UNL     1     -17.824  41.516   4.840  0.00  0.00    +0.000 C 
ATOM     10  C   UNL     1     -17.265  37.308   6.633  0.00  0.00    +0.000 C 
ATOM     11  C   UNL     1     -16.294  38.504   6.692  0.00  0.00    +0.000 C 
ATOM     12  C   UNL     1     -15.847  41.001   6.147  0.00  0.00    +0.000 C 
ATOM     13  C   UNL     1     -16.774  42.145   5.755  0.00  0.00    +0.000 C 
ATOM     14  C   UNL     1     -17.449  41.634   3.365  0.00  0.00    +0.000 C 
ATOM     15  C   UNL     1     -14.928  38.048   6.159  0.00  0.00    +0.000 C 
ENDROOT
TORSDOF 0
ENDMDL
MODEL 5
REMARK VINA RESULT:      -5.2     13.627     15.775
REMARK  Name = 
REMARK  4 active torsions:
REMARK  status: ('A' for Active; 'I' for Inactive)
REMARK    1  A    between atoms: C_1  and  C_6
REMARK    2  A    between atoms: C_1  and  C_7
REMARK    3  A    between atoms: C_9  and  C_14
REMARK    4  A    between atoms: C_11  and  C_15
REMARK                            x       y       z     vdW  Elec       q    Type
REMARK                         _______ _______ _______ _____ _____    ______ ____
ROOT
ATOM      1  C   UNL     1       4.269  56.276  18.602  0.00  0.00    +0.000 C 
ATOM      2  C   UNL     1       4.880  55.664  17.345  0.00  0.00    +0.000 C 
ATOM      3  C   UNL     1       4.575  57.139  17.389  0.00  0.00    +0.000 C 
ATOM      4  C   UNL     1       4.109  54.721  16.538  0.00  0.00    +0.000 C 
ATOM      5  C   UNL     1       3.541  57.745  16.492  0.00  0.00    +0.000 C 
ATOM      6  C   UNL     1       2.835  55.997  18.988  0.00  0.00    +0.000 C 
ATOM      7  C   UNL     1       5.176  56.432  19.799  0.00  0.00    +0.000 C 
ATOM      8  C   UNL     1       3.438  54.891  15.382  0.00  0.00    +0.000 C 
ATOM      9  C   UNL     1       4.004  53.288  17.023  0.00  0.00    +0.000 C 
ATOM     10  C   UNL     1       3.863  57.440  15.030  0.00  0.00    +0.000 C 
ATOM     11  C   UNL     1       3.247  56.120  14.524  0.00  0.00    +0.000 C 
ATOM     12  C   UNL     1       2.761  53.610  14.965  0.00  0.00    +0.000 C 
ATOM     13  C   UNL     1       2.802  52.767  16.233  0.00  0.00    +0.000 C 
ATOM     14  C   UNL     1       5.272  52.487  16.737  0.00  0.00    +0.000 C 
ATOM     15  C   UNL     1       3.747  55.868  13.094  0.00  0.00    +0.000 C 
ENDROOT
TORSDOF 0
ENDMDL
MODEL 6
REMARK VINA RESULT:      -4.9     20.310     21.679
REMARK  Name = 
REMARK  4 active torsions:
REMARK  status: ('A' for Active; 'I' for Inactive)
REMARK    1  A    between atoms: C_1  and  C_6
REMARK    2  A    between atoms: C_1  and  C_7
REMARK    3  A    between atoms: C_9  and  C_14
REMARK    4  A    between atoms: C_11  and  C_15
REMARK                            x       y       z     vdW  Elec       q    Type
REMARK                         _______ _______ _______ _____ _____    ______ ____
ROOT
ATOM      1  C   UNL     1      -3.460  26.550  18.707  0.00  0.00    +0.000 C 
ATOM      2  C   UNL     1      -2.690  27.695  19.358  0.00  0.00    +0.000 C 
ATOM      3  C   UNL     1      -2.979  27.729  17.878  0.00  0.00    +0.000 C 
ATOM      4  C   UNL     1      -1.351  27.467  19.896  0.00  0.00    +0.000 C 
ATOM      5  C   UNL     1      -1.875  27.667  16.871  0.00  0.00    +0.000 C 
ATOM      6  C   UNL     1      -2.829  25.190  18.524  0.00  0.00    +0.000 C 
ATOM      7  C   UNL     1      -4.941  26.472  18.991  0.00  0.00    +0.000 C 
ATOM      8  C   UNL     1      -0.135  27.755  19.392  0.00  0.00    +0.000 C 
ATOM      9  C   UNL     1      -1.233  26.796  21.251  0.00  0.00    +0.000 C 
ATOM     10  C   UNL     1      -0.870  28.793  17.114  0.00  0.00    +0.000 C 
ATOM     11  C   UNL     1       0.262  28.410  18.089  0.00  0.00    +0.000 C 
ATOM     12  C   UNL     1       0.954  27.278  20.318  0.00  0.00    +0.000 C 
ATOM     13  C   UNL     1       0.221  26.322  21.252  0.00  0.00    +0.000 C 
ATOM     14  C   UNL     1      -1.525  27.760  22.399  0.00  0.00    +0.000 C 
ATOM     15  C   UNL     1       1.122  29.655  18.347  0.00  0.00    +0.000 C 
ENDROOT
TORSDOF 0
ENDMDL
MODEL 7
REMARK VINA RESULT:      -4.8     24.097     26.031
REMARK  Name = 
REMARK  4 active torsions:
REMARK  status: ('A' for Active; 'I' for Inactive)
REMARK    1  A    between atoms: C_1  and  C_6
REMARK    2  A    between atoms: C_1  and  C_7
REMARK    3  A    between atoms: C_9  and  C_14
REMARK    4  A    between atoms: C_11  and  C_15
REMARK                            x       y       z     vdW  Elec       q    Type
REMARK                         _______ _______ _______ _____ _____    ______ ____
ROOT
ATOM      1  C   UNL     1     -16.544  38.473   5.914  0.00  0.00    +0.000 C 
ATOM      2  C   UNL     1     -17.296  39.630   5.265  0.00  0.00    +0.000 C 
ATOM      3  C   UNL     1     -17.076  38.351   4.496  0.00  0.00    +0.000 C 
ATOM      4  C   UNL     1     -16.597  40.873   4.947  0.00  0.00    +0.000 C 
ATOM      5  C   UNL     1     -16.225  38.322   3.266  0.00  0.00    +0.000 C 
ATOM      6  C   UNL     1     -15.054  38.549   6.158  0.00  0.00    +0.000 C 
ATOM      7  C   UNL     1     -17.272  37.698   6.987  0.00  0.00    +0.000 C 
ATOM      8  C   UNL     1     -16.116  41.341   3.779  0.00  0.00    +0.000 C 
ATOM      9  C   UNL     1     -16.337  41.853   6.075  0.00  0.00    +0.000 C 
ATOM     10  C   UNL     1     -16.741  39.330   2.240  0.00  0.00    +0.000 C 
ATOM     11  C   UNL     1     -16.128  40.737   2.394  0.00  0.00    +0.000 C 
ATOM     12  C   UNL     1     -15.433  42.670   3.978  0.00  0.00    +0.000 C 
ATOM     13  C   UNL     1     -15.236  42.737   5.487  0.00  0.00    +0.000 C 
ATOM     14  C   UNL     1     -17.583  42.653   6.444  0.00  0.00    +0.000 C 
ATOM     15  C   UNL     1     -16.817  41.678   1.396  0.00  0.00    +0.000 C 
ENDROOT
TORSDOF 0
ENDMDL
MODEL 8
REMARK VINA RESULT:      -4.7     24.701     26.409
REMARK  Name = 
REMARK  4 active torsions:
REMARK  status: ('A' for Active; 'I' for Inactive)
REMARK    1  A    between atoms: C_1  and  C_6
REMARK    2  A    between atoms: C_1  and  C_7
REMARK    3  A    between atoms: C_9  and  C_14
REMARK    4  A    between atoms: C_11  and  C_15
REMARK                            x       y       z     vdW  Elec       q    Type
REMARK                         _______ _______ _______ _____ _____    ______ ____
ROOT
ATOM      1  C   UNL     1     -18.715  41.720   5.102  0.00  0.00    +0.000 C 
ATOM      2  C   UNL     1     -18.730  40.233   4.760  0.00  0.00    +0.000 C 
ATOM      3  C   UNL     1     -19.938  40.868   5.401  0.00  0.00    +0.000 C 
ATOM      4  C   UNL     1     -17.853  39.307   5.473  0.00  0.00    +0.000 C 
ATOM      5  C   UNL     1     -20.386  40.474   6.773  0.00  0.00    +0.000 C 
ATOM      6  C   UNL     1     -17.869  42.251   6.235  0.00  0.00    +0.000 C 
ATOM      7  C   UNL     1     -18.822  42.689   3.949  0.00  0.00    +0.000 C 
ATOM      8  C   UNL     1     -18.106  38.447   6.478  0.00  0.00    +0.000 C 
ATOM      9  C   UNL     1     -16.394  39.249   5.062  0.00  0.00    +0.000 C 
ATOM     10  C   UNL     1     -20.637  38.968   6.837  0.00  0.00    +0.000 C 
ATOM     11  C   UNL     1     -19.389  38.149   7.221  0.00  0.00    +0.000 C 
ATOM     12  C   UNL     1     -16.847  37.735   6.902  0.00  0.00    +0.000 C 
ATOM     13  C   UNL     1     -15.745  38.576   6.271  0.00  0.00    +0.000 C 
ATOM     14  C   UNL     1     -16.187  38.450   3.778  0.00  0.00    +0.000 C 
ATOM     15  C   UNL     1     -19.738  36.657   7.125  0.00  0.00    +0.000 C 
ENDROOT
TORSDOF 0
ENDMDL
MODEL 9
REMARK VINA RESULT:      -4.6     20.298     22.031
REMARK  Name = 
REMARK  4 active torsions:
REMARK  status: ('A' for Active; 'I' for Inactive)
REMARK    1  A    between atoms: C_1  and  C_6
REMARK    2  A    between atoms: C_1  and  C_7
REMARK    3  A    between atoms: C_9  and  C_14
REMARK    4  A    between atoms: C_11  and  C_15
REMARK                            x       y       z     vdW  Elec       q    Type
REMARK                         _______ _______ _______ _____ _____    ______ ____
ROOT
ATOM      1  C   UNL     1      -1.386  27.286  16.812  0.00  0.00    +0.000 C 
ATOM      2  C   UNL     1      -1.438  26.421  18.068  0.00  0.00    +0.000 C 
ATOM      3  C   UNL     1      -2.673  26.588  17.219  0.00  0.00    +0.000 C 
ATOM      4  C   UNL     1      -1.297  27.034  19.387  0.00  0.00    +0.000 C 
ATOM      5  C   UNL     1      -3.889  27.283  17.746  0.00  0.00    +0.000 C 
ATOM      6  C   UNL     1      -1.281  28.790  16.904  0.00  0.00    +0.000 C 
ATOM      7  C   UNL     1      -0.648  26.721  15.621  0.00  0.00    +0.000 C 
ATOM      8  C   UNL     1      -2.220  27.353  20.315  0.00  0.00    +0.000 C 
ATOM      9  C   UNL     1       0.097  27.398  19.859  0.00  0.00    +0.000 C 
ATOM     10  C   UNL     1      -4.367  26.612  19.033  0.00  0.00    +0.000 C 
ATOM     11  C   UNL     1      -3.723  27.192  20.308  0.00  0.00    +0.000 C 
ATOM     12  C   UNL     1      -1.573  28.010  21.507  0.00  0.00    +0.000 C 
ATOM     13  C   UNL     1      -0.191  28.388  20.987  0.00  0.00    +0.000 C 
ATOM     14  C   UNL     1       0.878  26.179  20.345  0.00  0.00    +0.000 C 
ATOM     15  C   UNL     1      -4.186  26.354  21.509  0.00  0.00    +0.000 C 
ENDROOT
TORSDOF 0
ENDMDL
