MODEL 1
REMARK VINA RESULT:      -7.5      0.000      0.000
REMARK  Name = JAK3_Inhibitor.pdbqt.pdb
REMARK  1 active torsions:
REMARK  status: ('A' for Active; 'I' for Inactive)
REMARK    1  A    between atoms: C_7  and  C_20
REMARK                            x       y       z     vdW  Elec       q    Type
REMARK                         _______ _______ _______ _____ _____    ______ ____
ROOT
ATOM      1  O   UNL     1      -0.861  45.946  29.302  0.00  0.00    +0.000 OA
ATOM      2  N   UNL     1      -2.883  45.016  28.572  0.00  0.00    +0.000 N 
ATOM      3  C   UNL     1      -3.720  46.752  27.327  0.00  0.00    +0.000 A 
ATOM      4  C   UNL     1      -3.946  45.449  27.779  0.00  0.00    +0.000 A 
ATOM      5  C   UNL     1      -2.434  47.143  27.880  0.00  0.00    +0.000 C 
ATOM      6  C   UNL     1      -4.639  47.395  26.523  0.00  0.00    +0.000 A 
ATOM      7  C   UNL     1      -5.816  46.718  26.158  0.00  0.00    +0.000 A 
ATOM      8  C   UNL     1      -1.908  46.000  28.686  0.00  0.00    +0.000 C 
ATOM      9  C   UNL     1      -5.083  44.745  27.449  0.00  0.00    +0.000 A 
ATOM     10  C   UNL     1      -1.815  48.271  27.730  0.00  0.00    +0.000 C 
ATOM     11  C   UNL     1      -6.009  45.400  26.634  0.00  0.00    +0.000 A 
ATOM     12  H   UNL     1      -2.808  44.112  29.016  0.00  0.00    +0.000 HD
ATOM     13  N   UNL     1       0.119  49.723  28.180  0.00  0.00    +0.000 N 
ATOM     14  C   UNL     1      -1.098  49.486  27.596  0.00  0.00    +0.000 C 
ATOM     15  C   UNL     1      -1.455  50.612  26.891  0.00  0.00    +0.000 C 
ATOM     16  C   UNL     1       0.541  50.985  27.858  0.00  0.00    +0.000 C 
ATOM     17  C   UNL     1      -0.419  51.560  27.057  0.00  0.00    +0.000 C 
ATOM     18  H   UNL     1       0.625  49.066  28.760  0.00  0.00    +0.000 HD
ENDROOT
BRANCH   7  20
ATOM     19  N   UNL     1      -9.092  47.418  24.422  0.00  0.00    +0.000 NA
ATOM     20  C   UNL     1      -6.820  47.363  25.304  0.00  0.00    +0.000 A 
ATOM     21  C   UNL     1      -6.536  48.506  24.555  0.00  0.00    +0.000 A 
ATOM     22  C   UNL     1      -8.119  46.876  25.188  0.00  0.00    +0.000 A 
ATOM     23  C   UNL     1      -7.501  49.103  23.751  0.00  0.00    +0.000 A 
ATOM     24  C   UNL     1      -8.756  48.522  23.722  0.00  0.00    +0.000 A 
ENDBRANCH   7  20
TORSDOF 1
ENDMDL
MODEL 2
REMARK VINA RESULT:      -7.2      1.720      2.029
REMARK  Name = JAK3_Inhibitor.pdbqt.pdb
REMARK  1 active torsions:
REMARK  status: ('A' for Active; 'I' for Inactive)
REMARK    1  A    between atoms: C_7  and  C_20
REMARK                            x       y       z     vdW  Elec       q    Type
REMARK                         _______ _______ _______ _____ _____    ______ ____
ROOT
ATOM      1  O   UNL     1      -0.324  47.451  28.159  0.00  0.00    +0.000 OA
ATOM      2  N   UNL     1      -1.814  46.121  26.936  0.00  0.00    +0.000 N 
ATOM      3  C   UNL     1      -3.555  47.589  26.653  0.00  0.00    +0.000 A 
ATOM      4  C   UNL     1      -3.086  46.300  26.390  0.00  0.00    +0.000 A 
ATOM      5  C   UNL     1      -2.501  48.244  27.409  0.00  0.00    +0.000 C 
ATOM      6  C   UNL     1      -4.796  47.999  26.210  0.00  0.00    +0.000 A 
ATOM      7  C   UNL     1      -5.592  47.096  25.483  0.00  0.00    +0.000 A 
ATOM      8  C   UNL     1      -1.379  47.272  27.582  0.00  0.00    +0.000 C 
ATOM      9  C   UNL     1      -3.827  45.379  25.683  0.00  0.00    +0.000 A 
ATOM     10  C   UNL     1      -2.491  49.453  27.874  0.00  0.00    +0.000 C 
ATOM     11  C   UNL     1      -5.083  45.798  25.236  0.00  0.00    +0.000 A 
ATOM     12  H   UNL     1      -1.262  45.277  26.882  0.00  0.00    +0.000 HD
ATOM     13  N   UNL     1      -1.363  51.260  29.106  0.00  0.00    +0.000 N 
ATOM     14  C   UNL     1      -2.431  50.767  28.402  0.00  0.00    +0.000 C 
ATOM     15  C   UNL     1      -3.378  51.762  28.320  0.00  0.00    +0.000 C 
ATOM     16  C   UNL     1      -1.619  52.554  29.474  0.00  0.00    +0.000 C 
ATOM     17  C   UNL     1      -2.865  52.891  28.999  0.00  0.00    +0.000 C 
ATOM     18  H   UNL     1      -0.519  50.745  29.320  0.00  0.00    +0.000 HD
ENDROOT
BRANCH   7  20
ATOM     19  N   UNL     1      -8.310  49.059  23.753  0.00  0.00    +0.000 NA
ATOM     20  C   UNL     1      -6.918  47.488  24.993  0.00  0.00    +0.000 A 
ATOM     21  C   UNL     1      -8.061  46.730  25.254  0.00  0.00    +0.000 A 
ATOM     22  C   UNL     1      -7.120  48.639  24.236  0.00  0.00    +0.000 A 
ATOM     23  C   UNL     1      -9.309  47.118  24.779  0.00  0.00    +0.000 A 
ATOM     24  C   UNL     1      -9.377  48.284  24.038  0.00  0.00    +0.000 A 
ENDBRANCH   7  20
TORSDOF 1
ENDMDL
MODEL 3
REMARK VINA RESULT:      -6.3     25.262     28.055
REMARK  Name = JAK3_Inhibitor.pdbqt.pdb
REMARK  1 active torsions:
REMARK  status: ('A' for Active; 'I' for Inactive)
REMARK    1  A    between atoms: C_7  and  C_20
REMARK                            x       y       z     vdW  Elec       q    Type
REMARK                         _______ _______ _______ _____ _____    ______ ____
ROOT
ATOM      1  O   UNL     1     -21.958  36.120   7.360  0.00  0.00    +0.000 OA
ATOM      2  N   UNL     1     -19.634  36.372   7.504  0.00  0.00    +0.000 N 
ATOM      3  C   UNL     1     -19.353  38.343   6.362  0.00  0.00    +0.000 A 
ATOM      4  C   UNL     1     -18.709  37.316   7.057  0.00  0.00    +0.000 A 
ATOM      5  C   UNL     1     -20.766  38.006   6.384  0.00  0.00    +0.000 C 
ATOM      6  C   UNL     1     -18.639  39.394   5.823  0.00  0.00    +0.000 A 
ATOM      7  C   UNL     1     -17.243  39.422   5.984  0.00  0.00    +0.000 A 
ATOM      8  C   UNL     1     -20.927  36.722   7.132  0.00  0.00    +0.000 C 
ATOM      9  C   UNL     1     -17.344  37.299   7.241  0.00  0.00    +0.000 A 
ATOM     10  C   UNL     1     -21.749  38.669   5.862  0.00  0.00    +0.000 C 
ATOM     11  C   UNL     1     -16.625  38.365   6.694  0.00  0.00    +0.000 A 
ATOM     12  H   UNL     1     -19.419  35.538   8.031  0.00  0.00    +0.000 HD
ATOM     13  N   UNL     1     -24.153  38.920   5.405  0.00  0.00    +0.000 N 
ATOM     14  C   UNL     1     -22.858  39.358   5.310  0.00  0.00    +0.000 C 
ATOM     15  C   UNL     1     -22.861  40.539   4.605  0.00  0.00    +0.000 C 
ATOM     16  C   UNL     1     -24.981  39.808   4.769  0.00  0.00    +0.000 C 
ATOM     17  C   UNL     1     -24.204  40.823   4.263  0.00  0.00    +0.000 C 
ATOM     18  H   UNL     1     -24.450  38.074   5.872  0.00  0.00    +0.000 HD
ENDROOT
BRANCH   7  20
ATOM     19  N   UNL     1     -15.295  41.516   3.523  0.00  0.00    +0.000 NA
ATOM     20  C   UNL     1     -16.444  40.520   5.428  0.00  0.00    +0.000 A 
ATOM     21  C   UNL     1     -16.047  41.615   6.199  0.00  0.00    +0.000 A 
ATOM     22  C   UNL     1     -16.031  40.540   4.099  0.00  0.00    +0.000 A 
ATOM     23  C   UNL     1     -15.290  42.646   5.654  0.00  0.00    +0.000 A 
ATOM     24  C   UNL     1     -14.943  42.548   4.319  0.00  0.00    +0.000 A 
ENDBRANCH   7  20
TORSDOF 1
ENDMDL
MODEL 4
REMARK VINA RESULT:      -6.1     25.959     28.046
REMARK  Name = JAK3_Inhibitor.pdbqt.pdb
REMARK  1 active torsions:
REMARK  status: ('A' for Active; 'I' for Inactive)
REMARK    1  A    between atoms: C_7  and  C_20
REMARK                            x       y       z     vdW  Elec       q    Type
REMARK                         _______ _______ _______ _____ _____    ______ ____
ROOT
ATOM      1  O   UNL     1     -20.445  37.724   8.038  0.00  0.00    +0.000 OA
ATOM      2  N   UNL     1     -18.405  38.517   7.202  0.00  0.00    +0.000 N 
ATOM      3  C   UNL     1     -17.415  36.547   6.570  0.00  0.00    +0.000 A 
ATOM      4  C   UNL     1     -17.270  37.934   6.639  0.00  0.00    +0.000 A 
ATOM      5  C   UNL     1     -18.725  36.259   7.128  0.00  0.00    +0.000 C 
ATOM      6  C   UNL     1     -16.414  35.752   6.047  0.00  0.00    +0.000 A 
ATOM      7  C   UNL     1     -15.237  36.360   5.579  0.00  0.00    +0.000 A 
ATOM      8  C   UNL     1     -19.352  37.554   7.533  0.00  0.00    +0.000 C 
ATOM      9  C   UNL     1     -16.136  38.576   6.193  0.00  0.00    +0.000 A 
ATOM     10  C   UNL     1     -19.292  35.104   7.272  0.00  0.00    +0.000 C 
ATOM     11  C   UNL     1     -15.126  37.768   5.664  0.00  0.00    +0.000 A 
ATOM     12  H   UNL     1     -18.546  39.505   7.359  0.00  0.00    +0.000 HD
ATOM     13  N   UNL     1     -21.204  33.736   7.998  0.00  0.00    +0.000 N 
ATOM     14  C   UNL     1     -19.955  33.863   7.449  0.00  0.00    +0.000 C 
ATOM     15  C   UNL     1     -19.505  32.604   7.125  0.00  0.00    +0.000 C 
ATOM     16  C   UNL     1     -21.556  32.413   8.028  0.00  0.00    +0.000 C 
ATOM     17  C   UNL     1     -20.518  31.687   7.492  0.00  0.00    +0.000 C 
ATOM     18  H   UNL     1     -21.776  34.502   8.328  0.00  0.00    +0.000 HD
ENDROOT
BRANCH   7  20
ATOM     19  N   UNL     1     -13.387  33.918   3.376  0.00  0.00    +0.000 NA
ATOM     20  C   UNL     1     -14.148  35.555   5.015  0.00  0.00    +0.000 A 
ATOM     21  C   UNL     1     -12.846  35.608   5.518  0.00  0.00    +0.000 A 
ATOM     22  C   UNL     1     -14.342  34.688   3.944  0.00  0.00    +0.000 A 
ATOM     23  C   UNL     1     -11.827  34.837   4.970  0.00  0.00    +0.000 A 
ATOM     24  C   UNL     1     -12.150  34.014   3.906  0.00  0.00    +0.000 A 
ENDBRANCH   7  20
TORSDOF 1
ENDMDL
MODEL 5
REMARK VINA RESULT:      -6.1     13.999     15.706
REMARK  Name = JAK3_Inhibitor.pdbqt.pdb
REMARK  1 active torsions:
REMARK  status: ('A' for Active; 'I' for Inactive)
REMARK    1  A    between atoms: C_7  and  C_20
REMARK                            x       y       z     vdW  Elec       q    Type
REMARK                         _______ _______ _______ _____ _____    ______ ____
ROOT
ATOM      1  O   UNL     1       8.469  57.577  22.562  0.00  0.00    +0.000 OA
ATOM      2  N   UNL     1       6.237  57.467  21.859  0.00  0.00    +0.000 N 
ATOM      3  C   UNL     1       6.455  56.193  19.963  0.00  0.00    +0.000 A 
ATOM      4  C   UNL     1       5.561  56.875  20.791  0.00  0.00    +0.000 A 
ATOM      5  C   UNL     1       7.766  56.379  20.562  0.00  0.00    +0.000 C 
ATOM      6  C   UNL     1       6.015  55.526  18.837  0.00  0.00    +0.000 A 
ATOM      7  C   UNL     1       4.643  55.540  18.531  0.00  0.00    +0.000 A 
ATOM      8  C   UNL     1       7.602  57.210  21.793  0.00  0.00    +0.000 C 
ATOM      9  C   UNL     1       4.208  56.917  20.534  0.00  0.00    +0.000 A 
ATOM     10  C   UNL     1       8.904  55.926  20.139  0.00  0.00    +0.000 C 
ATOM     11  C   UNL     1       3.768  56.241  19.394  0.00  0.00    +0.000 A 
ATOM     12  H   UNL     1       5.814  58.014  22.595  0.00  0.00    +0.000 HD
ATOM     13  N   UNL     1      11.342  55.708  20.386  0.00  0.00    +0.000 N 
ATOM     14  C   UNL     1      10.172  55.453  19.719  0.00  0.00    +0.000 C 
ATOM     15  C   UNL     1      10.472  54.684  18.619  0.00  0.00    +0.000 C 
ATOM     16  C   UNL     1      12.383  55.113  19.724  0.00  0.00    +0.000 C 
ATOM     17  C   UNL     1      11.870  54.469  18.622  0.00  0.00    +0.000 C 
ATOM     18  H   UNL     1      11.422  56.252  21.235  0.00  0.00    +0.000 HD
ENDROOT
BRANCH   7  20
ATOM     19  N   UNL     1       4.115  54.574  14.922  0.00  0.00    +0.000 NA
ATOM     20  C   UNL     1       4.131  54.845  17.344  0.00  0.00    +0.000 A 
ATOM     21  C   UNL     1       3.195  53.812  17.434  0.00  0.00    +0.000 A 
ATOM     22  C   UNL     1       4.544  55.171  16.056  0.00  0.00    +0.000 A 
ATOM     23  C   UNL     1       2.722  53.165  16.298  0.00  0.00    +0.000 A 
ATOM     24  C   UNL     1       3.212  53.583  15.074  0.00  0.00    +0.000 A 
ENDBRANCH   7  20
TORSDOF 1
ENDMDL
MODEL 6
REMARK VINA RESULT:      -6.0      1.640      2.600
REMARK  Name = JAK3_Inhibitor.pdbqt.pdb
REMARK  1 active torsions:
REMARK  status: ('A' for Active; 'I' for Inactive)
REMARK    1  A    between atoms: C_7  and  C_20
REMARK                            x       y       z     vdW  Elec       q    Type
REMARK                         _______ _______ _______ _____ _____    ______ ____
ROOT
ATOM      1  O   UNL     1       1.565  47.753  29.840  0.00  0.00    +0.000 OA
ATOM      2  N   UNL     1      -0.266  46.315  29.586  0.00  0.00    +0.000 N 
ATOM      3  C   UNL     1      -1.602  47.573  28.208  0.00  0.00    +0.000 A 
ATOM      4  C   UNL     1      -1.480  46.365  28.899  0.00  0.00    +0.000 A 
ATOM      5  C   UNL     1      -0.383  48.313  28.490  0.00  0.00    +0.000 C 
ATOM      6  C   UNL     1      -2.725  47.852  27.455  0.00  0.00    +0.000 A 
ATOM      7  C   UNL     1      -3.753  46.896  27.387  0.00  0.00    +0.000 A 
ATOM      8  C   UNL     1       0.471  47.477  29.387  0.00  0.00    +0.000 C 
ATOM      9  C   UNL     1      -2.460  45.398  28.864  0.00  0.00    +0.000 A 
ATOM     10  C   UNL     1      -0.052  49.490  28.064  0.00  0.00    +0.000 C 
ATOM     11  C   UNL     1      -3.593  45.684  28.099  0.00  0.00    +0.000 A 
ATOM     12  H   UNL     1       0.058  45.548  30.157  0.00  0.00    +0.000 HD
ATOM     13  N   UNL     1       1.547  51.359  27.974  0.00  0.00    +0.000 N 
ATOM     14  C   UNL     1       0.357  50.775  27.625  0.00  0.00    +0.000 C 
ATOM     15  C   UNL     1      -0.318  51.648  26.804  0.00  0.00    +0.000 C 
ATOM     16  C   UNL     1       1.637  52.593  27.386  0.00  0.00    +0.000 C 
ATOM     17  C   UNL     1       0.491  52.798  26.654  0.00  0.00    +0.000 C 
ATOM     18  H   UNL     1       2.247  50.941  28.572  0.00  0.00    +0.000 HD
ENDROOT
BRANCH   7  20
ATOM     19  N   UNL     1      -6.368  48.713  25.362  0.00  0.00    +0.000 NA
ATOM     20  C   UNL     1      -4.964  47.149  26.598  0.00  0.00    +0.000 A 
ATOM     21  C   UNL     1      -5.883  46.140  26.302  0.00  0.00    +0.000 A 
ATOM     22  C   UNL     1      -5.273  48.409  26.094  0.00  0.00    +0.000 A 
ATOM     23  C   UNL     1      -7.025  46.399  25.552  0.00  0.00    +0.000 A 
ATOM     24  C   UNL     1      -7.217  47.695  25.109  0.00  0.00    +0.000 A 
ENDBRANCH   7  20
TORSDOF 1
ENDMDL
MODEL 7
REMARK VINA RESULT:      -5.8     25.527     27.802
REMARK  Name = JAK3_Inhibitor.pdbqt.pdb
REMARK  1 active torsions:
REMARK  status: ('A' for Active; 'I' for Inactive)
REMARK    1  A    between atoms: C_7  and  C_20
REMARK                            x       y       z     vdW  Elec       q    Type
REMARK                         _______ _______ _______ _____ _____    ______ ____
ROOT
ATOM      1  O   UNL     1     -21.978  35.928   6.986  0.00  0.00    +0.000 OA
ATOM      2  N   UNL     1     -21.663  38.248   6.921  0.00  0.00    +0.000 N 
ATOM      3  C   UNL     1     -19.482  38.357   6.214  0.00  0.00    +0.000 A 
ATOM      4  C   UNL     1     -20.605  39.097   6.591  0.00  0.00    +0.000 A 
ATOM      5  C   UNL     1     -19.876  36.962   6.320  0.00  0.00    +0.000 C 
ATOM      6  C   UNL     1     -18.309  38.982   5.845  0.00  0.00    +0.000 A 
ATOM      7  C   UNL     1     -18.256  40.387   5.850  0.00  0.00    +0.000 A 
ATOM      8  C   UNL     1     -21.297  36.914   6.781  0.00  0.00    +0.000 C 
ATOM      9  C   UNL     1     -20.603  40.474   6.612  0.00  0.00    +0.000 A 
ATOM     10  C   UNL     1     -19.159  35.913   6.072  0.00  0.00    +0.000 C 
ATOM     11  C   UNL     1     -19.414  41.103   6.236  0.00  0.00    +0.000 A 
ATOM     12  H   UNL     1     -22.581  38.539   7.223  0.00  0.00    +0.000 HD
ATOM     13  N   UNL     1     -18.918  33.467   5.957  0.00  0.00    +0.000 N 
ATOM     14  C   UNL     1     -18.416  34.734   5.812  0.00  0.00    +0.000 C 
ATOM     15  C   UNL     1     -17.112  34.626   5.385  0.00  0.00    +0.000 C 
ATOM     16  C   UNL     1     -17.951  32.553   5.628  0.00  0.00    +0.000 C 
ATOM     17  C   UNL     1     -16.819  33.247   5.269  0.00  0.00    +0.000 C 
ATOM     18  H   UNL     1     -19.857  33.243   6.259  0.00  0.00    +0.000 HD
ENDROOT
BRANCH   7  20
ATOM     19  N   UNL     1     -14.618  41.064   5.112  0.00  0.00    +0.000 NA
ATOM     20  C   UNL     1     -17.030  41.095   5.463  0.00  0.00    +0.000 A 
ATOM     21  C   UNL     1     -17.037  42.437   5.079  0.00  0.00    +0.000 A 
ATOM     22  C   UNL     1     -15.785  40.474   5.455  0.00  0.00    +0.000 A 
ATOM     23  C   UNL     1     -15.864  43.091   4.716  0.00  0.00    +0.000 A 
ATOM     24  C   UNL     1     -14.689  42.362   4.749  0.00  0.00    +0.000 A 
ENDBRANCH   7  20
TORSDOF 1
ENDMDL
MODEL 8
REMARK VINA RESULT:      -5.7     14.050     15.187
REMARK  Name = JAK3_Inhibitor.pdbqt.pdb
REMARK  1 active torsions:
REMARK  status: ('A' for Active; 'I' for Inactive)
REMARK    1  A    between atoms: C_7  and  C_20
REMARK                            x       y       z     vdW  Elec       q    Type
REMARK                         _______ _______ _______ _____ _____    ______ ____
ROOT
ATOM      1  O   UNL     1       8.359  57.311  22.519  0.00  0.00    +0.000 OA
ATOM      2  N   UNL     1       8.723  55.999  20.613  0.00  0.00    +0.000 N 
ATOM      3  C   UNL     1       6.603  55.927  19.740  0.00  0.00    +0.000 A 
ATOM      4  C   UNL     1       7.926  55.514  19.575  0.00  0.00    +0.000 A 
ATOM      5  C   UNL     1       6.585  56.717  20.959  0.00  0.00    +0.000 C 
ATOM      6  C   UNL     1       5.626  55.567  18.832  0.00  0.00    +0.000 A 
ATOM      7  C   UNL     1       5.983  54.773  17.729  0.00  0.00    +0.000 A 
ATOM      8  C   UNL     1       7.974  56.751  21.511  0.00  0.00    +0.000 C 
ATOM      9  C   UNL     1       8.325  54.736  18.511  0.00  0.00    +0.000 A 
ATOM     10  C   UNL     1       5.572  57.305  21.511  0.00  0.00    +0.000 C 
ATOM     11  C   UNL     1       7.335  54.375  17.594  0.00  0.00    +0.000 A 
ATOM     12  H   UNL     1       9.714  55.839  20.720  0.00  0.00    +0.000 HD
ATOM     13  N   UNL     1       4.622  58.685  23.314  0.00  0.00    +0.000 N 
ATOM     14  C   UNL     1       4.495  57.968  22.152  0.00  0.00    +0.000 C 
ATOM     15  C   UNL     1       3.177  58.024  21.763  0.00  0.00    +0.000 C 
ATOM     16  C   UNL     1       3.402  59.196  23.669  0.00  0.00    +0.000 C 
ATOM     17  C   UNL     1       2.486  58.800  22.722  0.00  0.00    +0.000 C 
ATOM     18  H   UNL     1       5.484  58.814  23.827  0.00  0.00    +0.000 HD
ENDROOT
BRANCH   7  20
ATOM     19  N   UNL     1       4.181  54.395  14.435  0.00  0.00    +0.000 NA
ATOM     20  C   UNL     1       4.979  54.367  16.738  0.00  0.00    +0.000 A 
ATOM     21  C   UNL     1       3.872  53.588  17.079  0.00  0.00    +0.000 A 
ATOM     22  C   UNL     1       5.067  54.733  15.398  0.00  0.00    +0.000 A 
ATOM     23  C   UNL     1       2.931  53.213  16.126  0.00  0.00    +0.000 A 
ATOM     24  C   UNL     1       3.133  53.641  14.826  0.00  0.00    +0.000 A 
ENDBRANCH   7  20
TORSDOF 1
ENDMDL
MODEL 9
REMARK VINA RESULT:      -5.6     12.073     14.586
REMARK  Name = JAK3_Inhibitor.pdbqt.pdb
REMARK  1 active torsions:
REMARK  status: ('A' for Active; 'I' for Inactive)
REMARK    1  A    between atoms: C_7  and  C_20
REMARK                            x       y       z     vdW  Elec       q    Type
REMARK                         _______ _______ _______ _____ _____    ______ ____
ROOT
ATOM      1  O   UNL     1       8.703  55.941  19.550  0.00  0.00    +0.000 OA
ATOM      2  N   UNL     1       7.355  56.944  21.182  0.00  0.00    +0.000 N 
ATOM      3  C   UNL     1       5.269  56.520  20.325  0.00  0.00    +0.000 A 
ATOM      4  C   UNL     1       5.982  57.106  21.373  0.00  0.00    +0.000 A 
ATOM      5  C   UNL     1       6.270  55.961  19.431  0.00  0.00    +0.000 C 
ATOM      6  C   UNL     1       3.889  56.555  20.295  0.00  0.00    +0.000 A 
ATOM      7  C   UNL     1       3.203  57.192  21.343  0.00  0.00    +0.000 A 
ATOM      8  C   UNL     1       7.620  56.248  20.008  0.00  0.00    +0.000 C 
ATOM      9  C   UNL     1       5.355  57.742  22.421  0.00  0.00    +0.000 A 
ATOM     10  C   UNL     1       6.077  55.322  18.322  0.00  0.00    +0.000 C 
ATOM     11  C   UNL     1       3.959  57.774  22.388  0.00  0.00    +0.000 A 
ATOM     12  H   UNL     1       8.080  57.278  21.800  0.00  0.00    +0.000 HD
ATOM     13  N   UNL     1       6.963  54.141  16.354  0.00  0.00    +0.000 N 
ATOM     14  C   UNL     1       5.919  54.615  17.103  0.00  0.00    +0.000 C 
ATOM     15  C   UNL     1       4.750  54.280  16.459  0.00  0.00    +0.000 C 
ATOM     16  C   UNL     1       6.475  53.509  15.241  0.00  0.00    +0.000 C 
ATOM     17  C   UNL     1       5.102  53.581  15.281  0.00  0.00    +0.000 C 
ATOM     18  H   UNL     1       7.942  54.243  16.588  0.00  0.00    +0.000 HD
ENDROOT
BRANCH   7  20
ATOM     19  N   UNL     1      -0.406  56.182  20.896  0.00  0.00    +0.000 NA
ATOM     20  C   UNL     1       1.736  57.252  21.353  0.00  0.00    +0.000 A 
ATOM     21  C   UNL     1       1.042  58.376  21.806  0.00  0.00    +0.000 A 
ATOM     22  C   UNL     1       0.946  56.195  20.914  0.00  0.00    +0.000 A 
ATOM     23  C   UNL     1      -0.348  58.414  21.809  0.00  0.00    +0.000 A 
ATOM     24  C   UNL     1      -1.019  57.297  21.346  0.00  0.00    +0.000 A 
ENDBRANCH   7  20
TORSDOF 1
ENDMDL
