MODEL 1
REMARK VINA RESULT:      -5.8      0.000      0.000
REMARK  Name = Leptomycin.pdbqt.pdb
REMARK  12 active torsions:
REMARK  status: ('A' for Active; 'I' for Inactive)
REMARK    1  A    between atoms: C_2  and  C_4
REMARK    2  A    between atoms: C_5  and  C_6
REMARK    3  A    between atoms: C_6  and  C_7
REMARK    4  A    between atoms: C_10  and  C_11
REMARK    5  A    between atoms: C_10  and  C_21
REMARK    6  A    between atoms: C_12  and  C_13
REMARK    7  A    between atoms: C_23  and  C_25
REMARK    8  A    between atoms: C_25  and  C_27
REMARK    9  A    between atoms: C_27  and  C_29
REMARK   10  A    between atoms: C_29  and  O_30
REMARK   11  A    between atoms: C_29  and  C_32
REMARK   12  A    between atoms: C_38  and  O_40
REMARK                            x       y       z     vdW  Elec       q    Type
REMARK                         _______ _______ _______ _____ _____    ______ ____
ROOT
ATOM      1  C   UNL     1     -23.988  38.069  19.640  0.00  0.00    +0.000 C 
ATOM      2  C   UNL     1     -23.385  37.085  19.057  0.00  0.00    +0.000 C 
ATOM      3  C   UNL     1     -21.888  37.118  18.949  0.00  0.00    +0.000 C 
ATOM      4  C   UNL     1     -24.695  39.097  20.313  0.00  0.00    +0.000 C 
ATOM      5  C   UNL     1     -24.953  40.350  19.491  0.00  0.00    +0.000 C 
ENDROOT
BRANCH   2   6
ATOM      6  C   UNL     1     -24.042  35.831  18.982  0.00  0.00    +0.000 C 
ATOM      7  C   UNL     1     -24.565  34.750  18.970  0.00  0.00    +0.000 C 
BRANCH   7   8
ATOM      8  C   UNL     1     -25.159  33.341  19.054  0.00  0.00    +0.000 C 
BRANCH   8   9
ATOM      9  C   UNL     1     -25.528  31.981  19.202  0.00  0.00    +0.000 C 
ATOM     10  C   UNL     1     -24.827  31.131  20.215  0.00  0.00    +0.000 C 
ATOM     11  C   UNL     1     -26.471  31.378  18.333  0.00  0.00    +0.000 C 
ATOM     12  C   UNL     1     -27.335  30.999  17.442  0.00  0.00    +0.000 C 
BRANCH  12  13
ATOM     13  C   UNL     1     -27.667  31.966  16.457  0.00  0.00    +0.000 C 
ATOM     14  C   UNL     1     -27.922  32.687  15.530  0.00  0.00    +0.000 C 
BRANCH  14  15
ATOM     15  C   UNL     1     -28.202  33.429  14.354  0.00  0.00    +0.000 A 
ATOM     16  O   UNL     1     -29.386  34.281  14.389  0.00  0.00    +0.000 OA
ATOM     17  C   UNL     1     -29.752  35.084  13.312  0.00  0.00    +0.000 A 
ATOM     18  O   UNL     1     -30.712  35.841  13.304  0.00  0.00    +0.000 OA
ATOM     19  C   UNL     1     -28.849  34.938  12.210  0.00  0.00    +0.000 A 
ATOM     20  C   UNL     1     -27.874  34.254  12.130  0.00  0.00    +0.000 A 
ATOM     21  C   UNL     1     -27.377  33.401  13.141  0.00  0.00    +0.000 A 
ATOM     22  C   UNL     1     -26.114  32.624  12.944  0.00  0.00    +0.000 C 
ENDBRANCH  14  15
ENDBRANCH  12  13
BRANCH  12  23
ATOM     23  C   UNL     1     -27.854  29.681  17.498  0.00  0.00    +0.000 C 
ATOM     24  C   UNL     1     -28.417  28.257  17.566  0.00  0.00    +0.000 C 
ENDBRANCH  12  23
ENDBRANCH   8   9
ENDBRANCH   7   8
ENDBRANCH   2   6
BRANCH   4  25
ATOM     25  C   UNL     1     -25.578  38.735  21.466  0.00  0.00    +0.000 C 
ATOM     26  O   UNL     1     -25.401  39.191  22.601  0.00  0.00    +0.000 OA
BRANCH  25  27
ATOM     27  C   UNL     1     -26.663  37.742  21.205  0.00  0.00    +0.000 C 
ATOM     28  C   UNL     1     -26.653  36.404  21.942  0.00  0.00    +0.000 C 
BRANCH  27  29
ATOM     29  C   UNL     1     -27.531  37.944  20.049  0.00  0.00    +0.000 C 
BRANCH  29  30
ATOM     30  C   UNL     1     -27.465  37.308  18.746  0.00  0.00    +0.000 C 
ATOM     31  C   UNL     1     -28.083  35.943  18.528  0.00  0.00    +0.000 C 
ATOM     32  C   UNL     1     -27.003  37.958  17.578  0.00  0.00    +0.000 C 
ATOM     33  C   UNL     1     -26.540  38.546  16.382  0.00  0.00    +0.000 C 
ATOM     34  C   UNL     1     -25.310  39.400  16.427  0.00  0.00    +0.000 C 
ATOM     35  C   UNL     1     -27.229  38.445  15.298  0.00  0.00    +0.000 C 
ATOM     36  C   UNL     1     -28.013  38.335  14.117  0.00  0.00    +0.000 C 
ATOM     37  O   UNL     1     -29.152  38.756  14.039  0.00  0.00    +0.000 OA
BRANCH  36  38
ATOM     38  O   UNL     1     -27.395  37.708  13.105  0.00  0.00    +0.000 OA
ATOM     39  H   UNL     1     -27.351  36.771  13.387  0.00  0.00    +0.000 HD
ENDBRANCH  36  38
ENDBRANCH  29  30
BRANCH  29  40
ATOM     40  O   UNL     1     -28.587  38.839  20.235  0.00  0.00    +0.000 OA
ATOM     41  H   UNL     1     -29.458  38.406  20.123  0.00  0.00    +0.000 HD
ENDBRANCH  29  40
ENDBRANCH  27  29
ENDBRANCH  25  27
ENDBRANCH   4  25
TORSDOF 12
ENDMDL
MODEL 2
REMARK VINA RESULT:      -5.6     13.751     17.465
REMARK  Name = Leptomycin.pdbqt.pdb
REMARK  12 active torsions:
REMARK  status: ('A' for Active; 'I' for Inactive)
REMARK    1  A    between atoms: C_2  and  C_4
REMARK    2  A    between atoms: C_5  and  C_6
REMARK    3  A    between atoms: C_6  and  C_7
REMARK    4  A    between atoms: C_10  and  C_11
REMARK    5  A    between atoms: C_10  and  C_21
REMARK    6  A    between atoms: C_12  and  C_13
REMARK    7  A    between atoms: C_23  and  C_25
REMARK    8  A    between atoms: C_25  and  C_27
REMARK    9  A    between atoms: C_27  and  C_29
REMARK   10  A    between atoms: C_29  and  O_30
REMARK   11  A    between atoms: C_29  and  C_32
REMARK   12  A    between atoms: C_38  and  O_40
REMARK                            x       y       z     vdW  Elec       q    Type
REMARK                         _______ _______ _______ _____ _____    ______ ____
ROOT
ATOM      1  C   UNL     1     -12.879  32.968   4.608  0.00  0.00    +0.000 C 
ATOM      2  C   UNL     1     -13.944  32.653   3.944  0.00  0.00    +0.000 C 
ATOM      3  C   UNL     1     -13.811  32.314   2.487  0.00  0.00    +0.000 C 
ATOM      4  C   UNL     1     -11.740  33.271   5.395  0.00  0.00    +0.000 C 
ATOM      5  C   UNL     1     -11.240  34.703   5.283  0.00  0.00    +0.000 C 
ENDROOT
BRANCH   2   6
ATOM      6  C   UNL     1     -15.070  32.166   4.652  0.00  0.00    +0.000 C 
ATOM      7  C   UNL     1     -15.999  31.693   5.250  0.00  0.00    +0.000 C 
BRANCH   7   8
ATOM      8  C   UNL     1     -17.126  30.979   6.001  0.00  0.00    +0.000 C 
BRANCH   8   9
ATOM      9  C   UNL     1     -18.294  30.422   6.577  0.00  0.00    +0.000 C 
ATOM     10  C   UNL     1     -18.666  29.005   6.268  0.00  0.00    +0.000 C 
ATOM     11  C   UNL     1     -19.179  31.211   7.352  0.00  0.00    +0.000 C 
ATOM     12  C   UNL     1     -19.872  32.085   8.016  0.00  0.00    +0.000 C 
BRANCH  12  13
ATOM     13  C   UNL     1     -19.389  33.421   7.962  0.00  0.00    +0.000 C 
ATOM     14  C   UNL     1     -19.027  34.552   7.787  0.00  0.00    +0.000 C 
BRANCH  14  15
ATOM     15  C   UNL     1     -18.656  35.881   7.454  0.00  0.00    +0.000 A 
ATOM     16  O   UNL     1     -17.240  36.114   7.189  0.00  0.00    +0.000 OA
ATOM     17  C   UNL     1     -16.752  37.365   6.820  0.00  0.00    +0.000 A 
ATOM     18  O   UNL     1     -15.585  37.604   6.553  0.00  0.00    +0.000 OA
ATOM     19  C   UNL     1     -17.795  38.346   6.766  0.00  0.00    +0.000 A 
ATOM     20  C   UNL     1     -18.961  38.208   6.979  0.00  0.00    +0.000 A 
ATOM     21  C   UNL     1     -19.598  37.001   7.348  0.00  0.00    +0.000 A 
ATOM     22  C   UNL     1     -21.079  36.938   7.543  0.00  0.00    +0.000 C 
ENDBRANCH  14  15
ENDBRANCH  12  13
BRANCH  12  23
ATOM     23  C   UNL     1     -21.035  31.667   8.708  0.00  0.00    +0.000 C 
ATOM     24  C   UNL     1     -22.297  31.211   9.450  0.00  0.00    +0.000 C 
ENDBRANCH  12  23
ENDBRANCH   8   9
ENDBRANCH   7   8
ENDBRANCH   2   6
BRANCH   4  25
ATOM     25  C   UNL     1     -11.459  32.448   6.612  0.00  0.00    +0.000 C 
ATOM     26  O   UNL     1     -11.305  32.952   7.729  0.00  0.00    +0.000 OA
BRANCH  25  27
ATOM     27  C   UNL     1     -11.310  30.974   6.416  0.00  0.00    +0.000 C 
ATOM     28  C   UNL     1     -10.355  30.449   5.346  0.00  0.00    +0.000 C 
BRANCH  27  29
ATOM     29  C   UNL     1     -12.287  30.085   7.037  0.00  0.00    +0.000 C 
BRANCH  29  30
ATOM     30  C   UNL     1     -13.267  29.228   6.395  0.00  0.00    +0.000 C 
ATOM     31  C   UNL     1     -14.424  28.660   7.189  0.00  0.00    +0.000 C 
ATOM     32  C   UNL     1     -13.326  29.010   4.999  0.00  0.00    +0.000 C 
ATOM     33  C   UNL     1     -13.427  28.742   3.617  0.00  0.00    +0.000 C 
ATOM     34  C   UNL     1     -12.172  28.501   2.836  0.00  0.00    +0.000 C 
ATOM     35  C   UNL     1     -14.566  28.821   3.021  0.00  0.00    +0.000 C 
ATOM     36  C   UNL     1     -15.831  28.930   2.380  0.00  0.00    +0.000 C 
ATOM     37  O   UNL     1     -16.476  29.961   2.361  0.00  0.00    +0.000 OA
BRANCH  36  38
ATOM     38  O   UNL     1     -16.258  27.790   1.815  0.00  0.00    +0.000 OA
ATOM     39  H   UNL     1     -16.172  27.118   2.523  0.00  0.00    +0.000 HD
ENDBRANCH  36  38
ENDBRANCH  29  30
BRANCH  29  40
ATOM     40  O   UNL     1     -12.249  30.024   8.431  0.00  0.00    +0.000 OA
ATOM     41  H   UNL     1     -12.837  29.324   8.784  0.00  0.00    +0.000 HD
ENDBRANCH  29  40
ENDBRANCH  27  29
ENDBRANCH  25  27
ENDBRANCH   4  25
TORSDOF 12
ENDMDL
MODEL 3
REMARK VINA RESULT:      -5.6     14.084     17.614
REMARK  Name = Leptomycin.pdbqt.pdb
REMARK  12 active torsions:
REMARK  status: ('A' for Active; 'I' for Inactive)
REMARK    1  A    between atoms: C_2  and  C_4
REMARK    2  A    between atoms: C_5  and  C_6
REMARK    3  A    between atoms: C_6  and  C_7
REMARK    4  A    between atoms: C_10  and  C_11
REMARK    5  A    between atoms: C_10  and  C_21
REMARK    6  A    between atoms: C_12  and  C_13
REMARK    7  A    between atoms: C_23  and  C_25
REMARK    8  A    between atoms: C_25  and  C_27
REMARK    9  A    between atoms: C_27  and  C_29
REMARK   10  A    between atoms: C_29  and  O_30
REMARK   11  A    between atoms: C_29  and  C_32
REMARK   12  A    between atoms: C_38  and  O_40
REMARK                            x       y       z     vdW  Elec       q    Type
REMARK                         _______ _______ _______ _____ _____    ______ ____
ROOT
ATOM      1  C   UNL     1     -16.388  41.947   2.104  0.00  0.00    +0.000 C 
ATOM      2  C   UNL     1     -16.855  40.847   1.608  0.00  0.00    +0.000 C 
ATOM      3  C   UNL     1     -15.892  39.751   1.252  0.00  0.00    +0.000 C 
ATOM      4  C   UNL     1     -15.936  43.152   2.698  0.00  0.00    +0.000 C 
ATOM      5  C   UNL     1     -15.386  44.184   1.726  0.00  0.00    +0.000 C 
ENDROOT
BRANCH   2   6
ATOM      6  C   UNL     1     -18.207  40.506   1.858  0.00  0.00    +0.000 C 
ATOM      7  C   UNL     1     -19.340  40.217   2.133  0.00  0.00    +0.000 C 
BRANCH   7   8
ATOM      8  C   UNL     1     -20.750  39.848   2.605  0.00  0.00    +0.000 C 
BRANCH   8   9
ATOM      9  C   UNL     1     -21.965  39.449   3.214  0.00  0.00    +0.000 C 
ATOM     10  C   UNL     1     -22.376  38.010   3.168  0.00  0.00    +0.000 C 
ATOM     11  C   UNL     1     -22.854  40.400   3.769  0.00  0.00    +0.000 C 
ATOM     12  C   UNL     1     -23.544  41.408   4.209  0.00  0.00    +0.000 C 
BRANCH  12  13
ATOM     13  C   UNL     1     -23.009  42.692   3.921  0.00  0.00    +0.000 C 
ATOM     14  C   UNL     1     -22.625  43.822   3.788  0.00  0.00    +0.000 C 
BRANCH  14  15
ATOM     15  C   UNL     1     -22.238  45.187   3.748  0.00  0.00    +0.000 A 
ATOM     16  O   UNL     1     -22.100  45.861   5.035  0.00  0.00    +0.000 OA
ATOM     17  C   UNL     1     -21.694  47.190   5.135  0.00  0.00    +0.000 A 
ATOM     18  O   UNL     1     -21.529  47.789   6.186  0.00  0.00    +0.000 OA
ATOM     19  C   UNL     1     -21.468  47.774   3.846  0.00  0.00    +0.000 A 
ATOM     20  C   UNL     1     -21.572  47.268   2.769  0.00  0.00    +0.000 A 
ATOM     21  C   UNL     1     -21.960  45.933   2.516  0.00  0.00    +0.000 A 
ATOM     22  C   UNL     1     -22.010  45.395   1.121  0.00  0.00    +0.000 C 
ENDBRANCH  14  15
ENDBRANCH  12  13
BRANCH  12  23
ATOM     23  C   UNL     1     -24.755  41.168   4.905  0.00  0.00    +0.000 C 
ATOM     24  C   UNL     1     -26.067  40.915   5.657  0.00  0.00    +0.000 C 
ENDBRANCH  12  23
ENDBRANCH   8   9
ENDBRANCH   7   8
ENDBRANCH   2   6
BRANCH   4  25
ATOM     25  C   UNL     1     -16.494  43.561   4.024  0.00  0.00    +0.000 C 
ATOM     26  O   UNL     1     -15.776  43.956   4.949  0.00  0.00    +0.000 OA
BRANCH  25  27
ATOM     27  C   UNL     1     -17.969  43.417   4.214  0.00  0.00    +0.000 C 
ATOM     28  C   UNL     1     -18.925  44.180   3.300  0.00  0.00    +0.000 C 
BRANCH  27  29
ATOM     29  C   UNL     1     -18.457  42.793   5.440  0.00  0.00    +0.000 C 
BRANCH  29  30
ATOM     30  C   UNL     1     -18.662  41.383   5.718  0.00  0.00    +0.000 C 
ATOM     31  C   UNL     1     -20.027  40.876   6.133  0.00  0.00    +0.000 C 
ATOM     32  C   UNL     1     -17.697  40.383   5.459  0.00  0.00    +0.000 C 
ATOM     33  C   UNL     1     -16.770  39.342   5.236  0.00  0.00    +0.000 C 
ATOM     34  C   UNL     1     -15.331  39.572   5.583  0.00  0.00    +0.000 C 
ATOM     35  C   UNL     1     -17.137  38.262   4.637  0.00  0.00    +0.000 C 
ATOM     36  C   UNL     1     -17.559  37.085   3.960  0.00  0.00    +0.000 C 
ATOM     37  O   UNL     1     -18.015  37.099   2.832  0.00  0.00    +0.000 OA
BRANCH  36  38
ATOM     38  O   UNL     1     -17.429  35.961   4.682  0.00  0.00    +0.000 OA
ATOM     39  H   UNL     1     -16.510  35.667   4.515  0.00  0.00    +0.000 HD
ENDBRANCH  36  38
ENDBRANCH  29  30
BRANCH  29  40
ATOM     40  O   UNL     1     -18.727  43.665   6.497  0.00  0.00    +0.000 OA
ATOM     41  H   UNL     1     -19.656  43.975   6.489  0.00  0.00    +0.000 HD
ENDBRANCH  29  40
ENDBRANCH  27  29
ENDBRANCH  25  27
ENDBRANCH   4  25
TORSDOF 12
ENDMDL
MODEL 4
REMARK VINA RESULT:      -5.4      9.890     14.926
REMARK  Name = Leptomycin.pdbqt.pdb
REMARK  12 active torsions:
REMARK  status: ('A' for Active; 'I' for Inactive)
REMARK    1  A    between atoms: C_2  and  C_4
REMARK    2  A    between atoms: C_5  and  C_6
REMARK    3  A    between atoms: C_6  and  C_7
REMARK    4  A    between atoms: C_10  and  C_11
REMARK    5  A    between atoms: C_10  and  C_21
REMARK    6  A    between atoms: C_12  and  C_13
REMARK    7  A    between atoms: C_23  and  C_25
REMARK    8  A    between atoms: C_25  and  C_27
REMARK    9  A    between atoms: C_27  and  C_29
REMARK   10  A    between atoms: C_29  and  O_30
REMARK   11  A    between atoms: C_29  and  C_32
REMARK   12  A    between atoms: C_38  and  O_40
REMARK                            x       y       z     vdW  Elec       q    Type
REMARK                         _______ _______ _______ _____ _____    ______ ____
ROOT
ATOM      1  C   UNL     1     -21.267  28.562  17.863  0.00  0.00    +0.000 C 
ATOM      2  C   UNL     1     -20.587  29.240  18.731  0.00  0.00    +0.000 C 
ATOM      3  C   UNL     1     -21.328  30.083  19.727  0.00  0.00    +0.000 C 
ATOM      4  C   UNL     1     -21.962  27.761  16.923  0.00  0.00    +0.000 C 
ATOM      5  C   UNL     1     -22.448  28.495  15.683  0.00  0.00    +0.000 C 
ENDROOT
BRANCH   2   6
ATOM      6  C   UNL     1     -19.271  28.819  19.046  0.00  0.00    +0.000 C 
ATOM      7  C   UNL     1     -18.181  28.405  19.333  0.00  0.00    +0.000 C 
BRANCH   7   8
ATOM      8  C   UNL     1     -16.846  27.772  19.738  0.00  0.00    +0.000 C 
BRANCH   8   9
ATOM      9  C   UNL     1     -15.692  27.012  20.050  0.00  0.00    +0.000 C 
ATOM     10  C   UNL     1     -14.788  26.556  18.947  0.00  0.00    +0.000 C 
ATOM     11  C   UNL     1     -15.434  26.581  21.374  0.00  0.00    +0.000 C 
ATOM     12  C   UNL     1     -15.371  26.265  22.631  0.00  0.00    +0.000 C 
BRANCH  12  13
ATOM     13  C   UNL     1     -16.489  26.651  23.418  0.00  0.00    +0.000 C 
ATOM     14  C   UNL     1     -17.508  26.974  23.967  0.00  0.00    +0.000 C 
BRANCH  14  15
ATOM     15  C   UNL     1     -18.774  27.339  24.492  0.00  0.00    +0.000 A 
ATOM     16  O   UNL     1     -19.033  28.768  24.631  0.00  0.00    +0.000 OA
ATOM     17  C   UNL     1     -20.248  29.259  25.103  0.00  0.00    +0.000 A 
ATOM     18  O   UNL     1     -20.528  30.443  25.204  0.00  0.00    +0.000 OA
ATOM     19  C   UNL     1     -21.153  28.199  25.438  0.00  0.00    +0.000 A 
ATOM     20  C   UNL     1     -20.987  27.021  25.349  0.00  0.00    +0.000 A 
ATOM     21  C   UNL     1     -19.818  26.383  24.878  0.00  0.00    +0.000 A 
ATOM     22  C   UNL     1     -19.742  24.893  24.766  0.00  0.00    +0.000 C 
ENDBRANCH  14  15
ENDBRANCH  12  13
BRANCH  12  23
ATOM     23  C   UNL     1     -14.239  25.562  23.114  0.00  0.00    +0.000 C 
ATOM     24  C   UNL     1     -13.019  24.797  23.641  0.00  0.00    +0.000 C 
ENDBRANCH  12  23
ENDBRANCH   8   9
ENDBRANCH   7   8
ENDBRANCH   2   6
BRANCH   4  25
ATOM     25  C   UNL     1     -21.708  26.287  16.897  0.00  0.00    +0.000 C 
ATOM     26  O   UNL     1     -22.470  25.496  16.332  0.00  0.00    +0.000 OA
BRANCH  25  27
ATOM     27  C   UNL     1     -20.512  25.791  17.642  0.00  0.00    +0.000 C 
ATOM     28  C   UNL     1     -19.168  25.685  16.925  0.00  0.00    +0.000 C 
BRANCH  27  29
ATOM     29  C   UNL     1     -20.713  25.147  18.936  0.00  0.00    +0.000 C 
BRANCH  29  30
ATOM     30  C   UNL     1     -19.920  25.275  20.145  0.00  0.00    +0.000 C 
ATOM     31  C   UNL     1     -20.393  26.158  21.280  0.00  0.00    +0.000 C 
ATOM     32  C   UNL     1     -18.784  24.481  20.427  0.00  0.00    +0.000 C 
ATOM     33  C   UNL     1     -17.637  23.731  20.759  0.00  0.00    +0.000 C 
ATOM     34  C   UNL     1     -16.623  23.453  19.692  0.00  0.00    +0.000 C 
ATOM     35  C   UNL     1     -17.524  23.197  21.926  0.00  0.00    +0.000 C 
ATOM     36  C   UNL     1     -17.427  22.603  23.215  0.00  0.00    +0.000 C 
ATOM     37  O   UNL     1     -18.237  21.797  23.633  0.00  0.00    +0.000 OA
BRANCH  36  38
ATOM     38  O   UNL     1     -16.376  23.024  23.935  0.00  0.00    +0.000 OA
ATOM     39  H   UNL     1     -16.398  24.000  23.852  0.00  0.00    +0.000 HD
ENDBRANCH  36  38
ENDBRANCH  29  30
BRANCH  29  40
ATOM     40  O   UNL     1     -21.840  24.327  19.035  0.00  0.00    +0.000 OA
ATOM     41  H   UNL     1     -22.250  24.160  18.161  0.00  0.00    +0.000 HD
ENDBRANCH  29  40
ENDBRANCH  27  29
ENDBRANCH  25  27
ENDBRANCH   4  25
TORSDOF 12
ENDMDL
MODEL 5
REMARK VINA RESULT:      -5.3     15.464     19.062
REMARK  Name = Leptomycin.pdbqt.pdb
REMARK  12 active torsions:
REMARK  status: ('A' for Active; 'I' for Inactive)
REMARK    1  A    between atoms: C_2  and  C_4
REMARK    2  A    between atoms: C_5  and  C_6
REMARK    3  A    between atoms: C_6  and  C_7
REMARK    4  A    between atoms: C_10  and  C_11
REMARK    5  A    between atoms: C_10  and  C_21
REMARK    6  A    between atoms: C_12  and  C_13
REMARK    7  A    between atoms: C_23  and  C_25
REMARK    8  A    between atoms: C_25  and  C_27
REMARK    9  A    between atoms: C_27  and  C_29
REMARK   10  A    between atoms: C_29  and  O_30
REMARK   11  A    between atoms: C_29  and  C_32
REMARK   12  A    between atoms: C_38  and  O_40
REMARK                            x       y       z     vdW  Elec       q    Type
REMARK                         _______ _______ _______ _____ _____    ______ ____
ROOT
ATOM      1  C   UNL     1     -11.471  34.961   2.931  0.00  0.00    +0.000 C 
ATOM      2  C   UNL     1     -12.553  35.505   2.476  0.00  0.00    +0.000 C 
ATOM      3  C   UNL     1     -12.697  35.691   0.993  0.00  0.00    +0.000 C 
ATOM      4  C   UNL     1     -10.329  34.326   3.481  0.00  0.00    +0.000 C 
ATOM      5  C   UNL     1      -9.110  35.219   3.647  0.00  0.00    +0.000 C 
ENDROOT
BRANCH   2   6
ATOM      6  C   UNL     1     -13.726  35.458   3.270  0.00  0.00    +0.000 C 
ATOM      7  C   UNL     1     -14.753  35.398   3.890  0.00  0.00    +0.000 C 
BRANCH   7   8
ATOM      8  C   UNL     1     -16.118  35.285   4.575  0.00  0.00    +0.000 C 
BRANCH   8   9
ATOM      9  C   UNL     1     -17.298  35.034   5.318  0.00  0.00    +0.000 C 
ATOM     10  C   UNL     1     -17.756  33.623   5.522  0.00  0.00    +0.000 C 
ATOM     11  C   UNL     1     -18.115  36.095   5.779  0.00  0.00    +0.000 C 
ATOM     12  C   UNL     1     -18.739  37.186   6.104  0.00  0.00    +0.000 C 
BRANCH  12  13
ATOM     13  C   UNL     1     -18.186  38.388   5.586  0.00  0.00    +0.000 C 
ATOM     14  C   UNL     1     -17.679  39.431   5.277  0.00  0.00    +0.000 C 
BRANCH  14  15
ATOM     15  C   UNL     1     -17.037  40.675   5.043  0.00  0.00    +0.000 A 
ATOM     16  O   UNL     1     -17.878  41.757   4.541  0.00  0.00    +0.000 OA
ATOM     17  C   UNL     1     -17.378  43.034   4.303  0.00  0.00    +0.000 A 
ATOM     18  O   UNL     1     -18.046  43.982   3.919  0.00  0.00    +0.000 OA
ATOM     19  C   UNL     1     -15.976  43.116   4.588  0.00  0.00    +0.000 A 
ATOM     20  C   UNL     1     -15.246  42.263   4.992  0.00  0.00    +0.000 A 
ATOM     21  C   UNL     1     -15.613  40.931   5.289  0.00  0.00    +0.000 A 
ATOM     22  C   UNL     1     -14.618  39.959   5.837  0.00  0.00    +0.000 C 
ENDBRANCH  14  15
ENDBRANCH  12  13
BRANCH  12  23
ATOM     23  C   UNL     1     -19.903  37.104   6.908  0.00  0.00    +0.000 C 
ATOM     24  C   UNL     1     -21.161  37.008   7.779  0.00  0.00    +0.000 C 
ENDBRANCH  12  23
ENDBRANCH   8   9
ENDBRANCH   7   8
ENDBRANCH   2   6
BRANCH   4  25
ATOM     25  C   UNL     1     -10.514  33.107   4.328  0.00  0.00    +0.000 C 
ATOM     26  O   UNL     1      -9.852  32.078   4.158  0.00  0.00    +0.000 OA
BRANCH  25  27
ATOM     27  C   UNL     1     -11.587  33.159   5.367  0.00  0.00    +0.000 C 
ATOM     28  C   UNL     1     -11.521  34.216   6.467  0.00  0.00    +0.000 C 
BRANCH  27  29
ATOM     29  C   UNL     1     -12.503  32.028   5.481  0.00  0.00    +0.000 C 
BRANCH  29  30
ATOM     30  C   UNL     1     -13.589  31.650   4.594  0.00  0.00    +0.000 C 
ATOM     31  C   UNL     1     -14.912  31.181   5.161  0.00  0.00    +0.000 C 
ATOM     32  C   UNL     1     -13.567  31.853   3.195  0.00  0.00    +0.000 C 
ATOM     33  C   UNL     1     -13.599  32.015   1.794  0.00  0.00    +0.000 C 
ATOM     34  C   UNL     1     -12.365  31.705   1.003  0.00  0.00    +0.000 C 
ATOM     35  C   UNL     1     -14.631  32.532   1.223  0.00  0.00    +0.000 C 
ATOM     36  C   UNL     1     -15.774  33.120   0.614  0.00  0.00    +0.000 C 
ATOM     37  O   UNL     1     -16.165  34.240   0.886  0.00  0.00    +0.000 OA
BRANCH  36  38
ATOM     38  O   UNL     1     -16.395  32.324  -0.269  0.00  0.00    +0.000 OA
ATOM     39  H   UNL     1     -17.298  32.696  -0.342  0.00  0.00    +0.000 HD
ENDBRANCH  36  38
ENDBRANCH  29  30
BRANCH  29  40
ATOM     40  O   UNL     1     -12.281  31.176   6.566  0.00  0.00    +0.000 OA
ATOM     41  H   UNL     1     -12.419  31.631   7.422  0.00  0.00    +0.000 HD
ENDBRANCH  29  40
ENDBRANCH  27  29
ENDBRANCH  25  27
ENDBRANCH   4  25
TORSDOF 12
ENDMDL
MODEL 6
REMARK VINA RESULT:      -5.3     14.020     17.166
REMARK  Name = Leptomycin.pdbqt.pdb
REMARK  12 active torsions:
REMARK  status: ('A' for Active; 'I' for Inactive)
REMARK    1  A    between atoms: C_2  and  C_4
REMARK    2  A    between atoms: C_5  and  C_6
REMARK    3  A    between atoms: C_6  and  C_7
REMARK    4  A    between atoms: C_10  and  C_11
REMARK    5  A    between atoms: C_10  and  C_21
REMARK    6  A    between atoms: C_12  and  C_13
REMARK    7  A    between atoms: C_23  and  C_25
REMARK    8  A    between atoms: C_25  and  C_27
REMARK    9  A    between atoms: C_27  and  C_29
REMARK   10  A    between atoms: C_29  and  O_30
REMARK   11  A    between atoms: C_29  and  C_32
REMARK   12  A    between atoms: C_38  and  O_40
REMARK                            x       y       z     vdW  Elec       q    Type
REMARK                         _______ _______ _______ _____ _____    ______ ____
ROOT
ATOM      1  C   UNL     1     -16.199  41.324   3.659  0.00  0.00    +0.000 C 
ATOM      2  C   UNL     1     -15.949  40.597   4.699  0.00  0.00    +0.000 C 
ATOM      3  C   UNL     1     -14.752  40.931   5.541  0.00  0.00    +0.000 C 
ATOM      4  C   UNL     1     -16.549  42.118   2.538  0.00  0.00    +0.000 C 
ATOM      5  C   UNL     1     -15.780  41.812   1.263  0.00  0.00    +0.000 C 
ENDROOT
BRANCH   2   6
ATOM      6  C   UNL     1     -17.007  39.861   5.288  0.00  0.00    +0.000 C 
ATOM      7  C   UNL     1     -17.864  39.222   5.836  0.00  0.00    +0.000 C 
BRANCH   7   8
ATOM      8  C   UNL     1     -18.872  38.380   6.624  0.00  0.00    +0.000 C 
BRANCH   8   9
ATOM      9  C   UNL     1     -19.705  37.441   7.280  0.00  0.00    +0.000 C 
ATOM     10  C   UNL     1     -20.841  37.926   8.125  0.00  0.00    +0.000 C 
ATOM     11  C   UNL     1     -19.419  36.054   7.243  0.00  0.00    +0.000 C 
ATOM     12  C   UNL     1     -18.994  34.834   7.110  0.00  0.00    +0.000 C 
BRANCH  12  13
ATOM     13  C   UNL     1     -17.755  34.686   6.430  0.00  0.00    +0.000 C 
ATOM     14  C   UNL     1     -16.752  34.659   5.770  0.00  0.00    +0.000 C 
BRANCH  14  15
ATOM     15  C   UNL     1     -15.621  34.732   4.918  0.00  0.00    +0.000 A 
ATOM     16  O   UNL     1     -15.481  33.668   3.928  0.00  0.00    +0.000 OA
ATOM     17  C   UNL     1     -14.434  33.643   3.011  0.00  0.00    +0.000 A 
ATOM     18  O   UNL     1     -14.292  32.797   2.141  0.00  0.00    +0.000 OA
ATOM     19  C   UNL     1     -13.543  34.751   3.192  0.00  0.00    +0.000 A 
ATOM     20  C   UNL     1     -13.610  35.639   3.986  0.00  0.00    +0.000 A 
ATOM     21  C   UNL     1     -14.617  35.802   4.964  0.00  0.00    +0.000 A 
ATOM     22  C   UNL     1     -14.623  36.985   5.878  0.00  0.00    +0.000 C 
ENDBRANCH  14  15
ENDBRANCH  12  13
BRANCH  12  23
ATOM     23  C   UNL     1     -19.757  33.772   7.655  0.00  0.00    +0.000 C 
ATOM     24  C   UNL     1     -20.578  32.621   8.249  0.00  0.00    +0.000 C 
ENDBRANCH  12  23
ENDBRANCH   8   9
ENDBRANCH   7   8
ENDBRANCH   2   6
BRANCH   4  25
ATOM     25  C   UNL     1     -17.907  42.745   2.488  0.00  0.00    +0.000 C 
ATOM     26  O   UNL     1     -18.077  43.928   2.176  0.00  0.00    +0.000 OA
BRANCH  25  27
ATOM     27  C   UNL     1     -19.064  41.891   2.894  0.00  0.00    +0.000 C 
ATOM     28  C   UNL     1     -19.727  42.115   4.251  0.00  0.00    +0.000 C 
BRANCH  27  29
ATOM     29  C   UNL     1     -19.344  40.684   2.123  0.00  0.00    +0.000 C 
BRANCH  29  30
ATOM     30  C   UNL     1     -19.359  39.304   2.576  0.00  0.00    +0.000 C 
ATOM     31  C   UNL     1     -20.606  38.719   3.203  0.00  0.00    +0.000 C 
ATOM     32  C   UNL     1     -18.321  38.381   2.314  0.00  0.00    +0.000 C 
ATOM     33  C   UNL     1     -17.313  37.418   2.098  0.00  0.00    +0.000 C 
ATOM     34  C   UNL     1     -15.880  37.829   2.245  0.00  0.00    +0.000 C 
ATOM     35  C   UNL     1     -17.617  36.242   1.669  0.00  0.00    +0.000 C 
ATOM     36  C   UNL     1     -17.974  34.956   1.178  0.00  0.00    +0.000 C 
ATOM     37  O   UNL     1     -18.546  34.788   0.117  0.00  0.00    +0.000 OA
BRANCH  36  38
ATOM     38  O   UNL     1     -17.644  33.946   1.998  0.00  0.00    +0.000 OA
ATOM     39  H   UNL     1     -16.891  33.505   1.553  0.00  0.00    +0.000 HD
ENDBRANCH  36  38
ENDBRANCH  29  30
BRANCH  29  40
ATOM     40  O   UNL     1     -19.678  40.886   0.782  0.00  0.00    +0.000 OA
ATOM     41  H   UNL     1     -18.948  41.304   0.281  0.00  0.00    +0.000 HD
ENDBRANCH  29  40
ENDBRANCH  27  29
ENDBRANCH  25  27
ENDBRANCH   4  25
TORSDOF 12
ENDMDL
MODEL 7
REMARK VINA RESULT:      -5.1     14.780     18.329
REMARK  Name = Leptomycin.pdbqt.pdb
REMARK  12 active torsions:
REMARK  status: ('A' for Active; 'I' for Inactive)
REMARK    1  A    between atoms: C_2  and  C_4
REMARK    2  A    between atoms: C_5  and  C_6
REMARK    3  A    between atoms: C_6  and  C_7
REMARK    4  A    between atoms: C_10  and  C_11
REMARK    5  A    between atoms: C_10  and  C_21
REMARK    6  A    between atoms: C_12  and  C_13
REMARK    7  A    between atoms: C_23  and  C_25
REMARK    8  A    between atoms: C_25  and  C_27
REMARK    9  A    between atoms: C_27  and  C_29
REMARK   10  A    between atoms: C_29  and  O_30
REMARK   11  A    between atoms: C_29  and  C_32
REMARK   12  A    between atoms: C_38  and  O_40
REMARK                            x       y       z     vdW  Elec       q    Type
REMARK                         _______ _______ _______ _____ _____    ______ ____
ROOT
ATOM      1  C   UNL     1     -16.104  40.444   1.787  0.00  0.00    +0.000 C 
ATOM      2  C   UNL     1     -16.693  39.394   2.260  0.00  0.00    +0.000 C 
ATOM      3  C   UNL     1     -15.857  38.200   2.620  0.00  0.00    +0.000 C 
ATOM      4  C   UNL     1     -15.506  41.638   1.311  0.00  0.00    +0.000 C 
ATOM      5  C   UNL     1     -15.165  41.644  -0.171  0.00  0.00    +0.000 C 
ENDROOT
BRANCH   2   6
ATOM      6  C   UNL     1     -17.962  39.541   2.872  0.00  0.00    +0.000 C 
ATOM      7  C   UNL     1     -19.058  39.701   3.339  0.00  0.00    +0.000 C 
BRANCH   7   8
ATOM      8  C   UNL     1     -20.481  39.976   3.834  0.00  0.00    +0.000 C 
BRANCH   8   9
ATOM      9  C   UNL     1     -21.810  40.031   4.319  0.00  0.00    +0.000 C 
ATOM     10  C   UNL     1     -22.469  38.780   4.812  0.00  0.00    +0.000 C 
ATOM     11  C   UNL     1     -22.570  41.224   4.245  0.00  0.00    +0.000 C 
ATOM     12  C   UNL     1     -23.110  42.393   4.082  0.00  0.00    +0.000 C 
BRANCH  12  13
ATOM     13  C   UNL     1     -22.320  43.343   3.382  0.00  0.00    +0.000 C 
ATOM     14  C   UNL     1     -21.735  44.125   2.683  0.00  0.00    +0.000 C 
BRANCH  14  15
ATOM     15  C   UNL     1     -21.139  45.023   1.760  0.00  0.00    +0.000 A 
ATOM     16  O   UNL     1     -21.021  44.556   0.383  0.00  0.00    +0.000 OA
ATOM     17  C   UNL     1     -20.486  45.353  -0.626  0.00  0.00    +0.000 A 
ATOM     18  O   UNL     1     -20.397  45.024  -1.799  0.00  0.00    +0.000 OA
ATOM     19  C   UNL     1     -20.066  46.629  -0.128  0.00  0.00    +0.000 A 
ATOM     20  C   UNL     1     -20.135  47.054   0.986  0.00  0.00    +0.000 A 
ATOM     21  C   UNL     1     -20.663  46.368   2.102  0.00  0.00    +0.000 A 
ATOM     22  C   UNL     1     -20.742  47.022   3.445  0.00  0.00    +0.000 C 
ENDBRANCH  14  15
ENDBRANCH  12  13
BRANCH  12  23
ATOM     23  C   UNL     1     -24.417  42.627   4.578  0.00  0.00    +0.000 C 
ATOM     24  C   UNL     1     -25.833  42.884   5.108  0.00  0.00    +0.000 C 
ENDBRANCH  12  23
ENDBRANCH   8   9
ENDBRANCH   7   8
ENDBRANCH   2   6
BRANCH   4  25
ATOM     25  C   UNL     1     -15.746  42.915   2.053  0.00  0.00    +0.000 C 
ATOM     26  O   UNL     1     -15.206  43.978   1.729  0.00  0.00    +0.000 OA
BRANCH  25  27
ATOM     27  C   UNL     1     -16.629  42.845   3.257  0.00  0.00    +0.000 C 
ATOM     28  C   UNL     1     -18.068  43.345   3.165  0.00  0.00    +0.000 C 
BRANCH  27  29
ATOM     29  C   UNL     1     -16.018  42.580   4.556  0.00  0.00    +0.000 C 
BRANCH  29  30
ATOM     30  C   UNL     1     -16.573  41.859   5.687  0.00  0.00    +0.000 C 
ATOM     31  C   UNL     1     -17.616  42.508   6.571  0.00  0.00    +0.000 C 
ATOM     32  C   UNL     1     -16.334  40.488   5.937  0.00  0.00    +0.000 C 
ATOM     33  C   UNL     1     -16.123  39.128   6.248  0.00  0.00    +0.000 C 
ATOM     34  C   UNL     1     -14.744  38.561   6.102  0.00  0.00    +0.000 C 
ATOM     35  C   UNL     1     -17.119  38.364   6.538  0.00  0.00    +0.000 C 
ATOM     36  C   UNL     1     -18.235  37.535   6.839  0.00  0.00    +0.000 C 
ATOM     37  O   UNL     1     -19.151  37.351   6.059  0.00  0.00    +0.000 OA
BRANCH  36  38
ATOM     38  O   UNL     1     -18.198  36.992   8.065  0.00  0.00    +0.000 OA
ATOM     39  H   UNL     1     -17.506  37.499   8.538  0.00  0.00    +0.000 HD
ENDBRANCH  36  38
ENDBRANCH  29  30
BRANCH  29  40
ATOM     40  O   UNL     1     -14.713  43.051   4.718  0.00  0.00    +0.000 OA
ATOM     41  H   UNL     1     -14.677  43.834   5.306  0.00  0.00    +0.000 HD
ENDBRANCH  29  40
ENDBRANCH  27  29
ENDBRANCH  25  27
ENDBRANCH   4  25
TORSDOF 12
ENDMDL
MODEL 8
REMARK VINA RESULT:      -5.1     36.368     40.117
REMARK  Name = Leptomycin.pdbqt.pdb
REMARK  12 active torsions:
REMARK  status: ('A' for Active; 'I' for Inactive)
REMARK    1  A    between atoms: C_2  and  C_4
REMARK    2  A    between atoms: C_5  and  C_6
REMARK    3  A    between atoms: C_6  and  C_7
REMARK    4  A    between atoms: C_10  and  C_11
REMARK    5  A    between atoms: C_10  and  C_21
REMARK    6  A    between atoms: C_12  and  C_13
REMARK    7  A    between atoms: C_23  and  C_25
REMARK    8  A    between atoms: C_25  and  C_27
REMARK    9  A    between atoms: C_27  and  C_29
REMARK   10  A    between atoms: C_29  and  O_30
REMARK   11  A    between atoms: C_29  and  C_32
REMARK   12  A    between atoms: C_38  and  O_40
REMARK                            x       y       z     vdW  Elec       q    Type
REMARK                         _______ _______ _______ _____ _____    ______ ____
ROOT
ATOM      1  C   UNL     1      14.707  40.064   7.323  0.00  0.00    +0.000 C 
ATOM      2  C   UNL     1      15.061  41.223   6.872  0.00  0.00    +0.000 C 
ATOM      3  C   UNL     1      15.915  41.287   5.639  0.00  0.00    +0.000 C 
ATOM      4  C   UNL     1      14.249  38.822   7.832  0.00  0.00    +0.000 C 
ATOM      5  C   UNL     1      15.249  38.068   8.693  0.00  0.00    +0.000 C 
ENDROOT
BRANCH   2   6
ATOM      6  C   UNL     1      14.281  42.355   7.214  0.00  0.00    +0.000 C 
ATOM      7  C   UNL     1      13.604  43.286   7.561  0.00  0.00    +0.000 C 
BRANCH   7   8
ATOM      8  C   UNL     1      12.713  44.406   8.106  0.00  0.00    +0.000 C 
BRANCH   8   9
ATOM      9  C   UNL     1      12.060  45.531   8.666  0.00  0.00    +0.000 C 
ATOM     10  C   UNL     1      12.801  46.415   9.620  0.00  0.00    +0.000 C 
ATOM     11  C   UNL     1      10.686  45.776   8.427  0.00  0.00    +0.000 C 
ATOM     12  C   UNL     1       9.428  45.830   8.110  0.00  0.00    +0.000 C 
BRANCH  12  13
ATOM     13  C   UNL     1       8.935  44.728   7.360  0.00  0.00    +0.000 C 
ATOM     14  C   UNL     1       8.566  43.717   6.827  0.00  0.00    +0.000 C 
BRANCH  14  15
ATOM     15  C   UNL     1       8.172  42.456   6.311  0.00  0.00    +0.000 A 
ATOM     16  O   UNL     1       7.987  41.384   7.284  0.00  0.00    +0.000 OA
ATOM     17  C   UNL     1       7.570  40.109   6.911  0.00  0.00    +0.000 A 
ATOM     18  O   UNL     1       7.365  39.189   7.688  0.00  0.00    +0.000 OA
ATOM     19  C   UNL     1       7.383  40.006   5.494  0.00  0.00    +0.000 A 
ATOM     20  C   UNL     1       7.527  40.847   4.659  0.00  0.00    +0.000 A 
ATOM     21  C   UNL     1       7.931  42.181   4.890  0.00  0.00    +0.000 A 
ATOM     22  C   UNL     1       8.032  43.163   3.766  0.00  0.00    +0.000 C 
ENDBRANCH  14  15
ENDBRANCH  12  13
BRANCH  12  23
ATOM     23  C   UNL     1       8.652  46.935   8.539  0.00  0.00    +0.000 C 
ATOM     24  C   UNL     1       7.818  48.133   9.008  0.00  0.00    +0.000 C 
ENDBRANCH  12  23
ENDBRANCH   8   9
ENDBRANCH   7   8
ENDBRANCH   2   6
BRANCH   4  25
ATOM     25  C   UNL     1      12.777  38.598   7.982  0.00  0.00    +0.000 C 
ATOM     26  O   UNL     1      12.122  37.941   7.166  0.00  0.00    +0.000 OA
BRANCH  25  27
ATOM     27  C   UNL     1      12.105  39.258   9.142  0.00  0.00    +0.000 C 
ATOM     28  C   UNL     1      11.878  38.470  10.429  0.00  0.00    +0.000 C 
BRANCH  27  29
ATOM     29  C   UNL     1      11.422  40.530   8.922  0.00  0.00    +0.000 C 
BRANCH  29  30
ATOM     30  C   UNL     1      11.232  41.627   9.853  0.00  0.00    +0.000 C 
ATOM     31  C   UNL     1       9.853  42.212  10.074  0.00  0.00    +0.000 C 
ATOM     32  C   UNL     1      12.238  42.099  10.727  0.00  0.00    +0.000 C 
ATOM     33  C   UNL     1      13.203  42.623  11.613  0.00  0.00    +0.000 C 
ATOM     34  C   UNL     1      14.606  42.807  11.123  0.00  0.00    +0.000 C 
ATOM     35  C   UNL     1      12.908  42.827  12.850  0.00  0.00    +0.000 C 
ATOM     36  C   UNL     1      12.566  43.029  14.216  0.00  0.00    +0.000 C 
ATOM     37  O   UNL     1      12.195  42.128  14.944  0.00  0.00    +0.000 OA
BRANCH  36  38
ATOM     38  O   UNL     1      12.669  44.303  14.623  0.00  0.00    +0.000 OA
ATOM     39  H   UNL     1      12.390  44.832  13.848  0.00  0.00    +0.000 HD
ENDBRANCH  36  38
ENDBRANCH  29  30
BRANCH  29  40
ATOM     40  O   UNL     1      10.919  40.732   7.635  0.00  0.00    +0.000 OA
ATOM     41  H   UNL     1      11.063  41.650   7.325  0.00  0.00    +0.000 HD
ENDBRANCH  29  40
ENDBRANCH  27  29
ENDBRANCH  25  27
ENDBRANCH   4  25
TORSDOF 12
ENDMDL
MODEL 9
REMARK VINA RESULT:      -5.0     13.181     16.320
REMARK  Name = Leptomycin.pdbqt.pdb
REMARK  12 active torsions:
REMARK  status: ('A' for Active; 'I' for Inactive)
REMARK    1  A    between atoms: C_2  and  C_4
REMARK    2  A    between atoms: C_5  and  C_6
REMARK    3  A    between atoms: C_6  and  C_7
REMARK    4  A    between atoms: C_10  and  C_11
REMARK    5  A    between atoms: C_10  and  C_21
REMARK    6  A    between atoms: C_12  and  C_13
REMARK    7  A    between atoms: C_23  and  C_25
REMARK    8  A    between atoms: C_25  and  C_27
REMARK    9  A    between atoms: C_27  and  C_29
REMARK   10  A    between atoms: C_29  and  O_30
REMARK   11  A    between atoms: C_29  and  C_32
REMARK   12  A    between atoms: C_38  and  O_40
REMARK                            x       y       z     vdW  Elec       q    Type
REMARK                         _______ _______ _______ _____ _____    ______ ____
ROOT
ATOM      1  C   UNL     1     -16.194  41.396   3.806  0.00  0.00    +0.000 C 
ATOM      2  C   UNL     1     -15.919  40.566   4.759  0.00  0.00    +0.000 C 
ATOM      3  C   UNL     1     -14.638  40.741   5.522  0.00  0.00    +0.000 C 
ATOM      4  C   UNL     1     -16.568  42.306   2.786  0.00  0.00    +0.000 C 
ATOM      5  C   UNL     1     -15.926  42.058   1.430  0.00  0.00    +0.000 C 
ENDROOT
BRANCH   2   6
ATOM      6  C   UNL     1     -16.981  39.858   5.374  0.00  0.00    +0.000 C 
ATOM      7  C   UNL     1     -17.839  39.231   5.937  0.00  0.00    +0.000 C 
BRANCH   7   8
ATOM      8  C   UNL     1     -18.841  38.385   6.727  0.00  0.00    +0.000 C 
BRANCH   8   9
ATOM      9  C   UNL     1     -19.687  37.444   7.363  0.00  0.00    +0.000 C 
ATOM     10  C   UNL     1     -20.811  37.926   8.227  0.00  0.00    +0.000 C 
ATOM     11  C   UNL     1     -19.426  36.054   7.287  0.00  0.00    +0.000 C 
ATOM     12  C   UNL     1     -19.023  34.831   7.120  0.00  0.00    +0.000 C 
BRANCH  12  13
ATOM     13  C   UNL     1     -17.791  34.678   6.429  0.00  0.00    +0.000 C 
ATOM     14  C   UNL     1     -16.789  34.656   5.767  0.00  0.00    +0.000 C 
BRANCH  14  15
ATOM     15  C   UNL     1     -15.654  34.742   4.921  0.00  0.00    +0.000 A 
ATOM     16  O   UNL     1     -15.500  33.681   3.931  0.00  0.00    +0.000 OA
ATOM     17  C   UNL     1     -14.448  33.667   3.018  0.00  0.00    +0.000 A 
ATOM     18  O   UNL     1     -14.293  32.825   2.148  0.00  0.00    +0.000 OA
ATOM     19  C   UNL     1     -13.568  34.783   3.206  0.00  0.00    +0.000 A 
ATOM     20  C   UNL     1     -13.647  35.669   4.002  0.00  0.00    +0.000 A 
ATOM     21  C   UNL     1     -14.661  35.820   4.975  0.00  0.00    +0.000 A 
ATOM     22  C   UNL     1     -14.682  37.002   5.891  0.00  0.00    +0.000 C 
ENDBRANCH  14  15
ENDBRANCH  12  13
BRANCH  12  23
ATOM     23  C   UNL     1     -19.803  33.768   7.640  0.00  0.00    +0.000 C 
ATOM     24  C   UNL     1     -20.641  32.612   8.199  0.00  0.00    +0.000 C 
ENDBRANCH  12  23
ENDBRANCH   8   9
ENDBRANCH   7   8
ENDBRANCH   2   6
BRANCH   4  25
ATOM     25  C   UNL     1     -17.873  43.029   2.902  0.00  0.00    +0.000 C 
ATOM     26  O   UNL     1     -18.009  44.040   3.598  0.00  0.00    +0.000 OA
BRANCH  25  27
ATOM     27  C   UNL     1     -19.041  42.440   2.179  0.00  0.00    +0.000 C 
ATOM     28  C   UNL     1     -19.875  43.320   1.251  0.00  0.00    +0.000 C 
BRANCH  27  29
ATOM     29  C   UNL     1     -19.534  41.132   2.599  0.00  0.00    +0.000 C 
BRANCH  29  30
ATOM     30  C   UNL     1     -20.253  40.781   3.811  0.00  0.00    +0.000 C 
ATOM     31  C   UNL     1     -20.509  41.824   4.877  0.00  0.00    +0.000 C 
ATOM     32  C   UNL     1     -20.904  39.541   4.006  0.00  0.00    +0.000 C 
ATOM     33  C   UNL     1     -21.560  38.320   4.267  0.00  0.00    +0.000 C 
ATOM     34  C   UNL     1     -20.891  37.042   3.863  0.00  0.00    +0.000 C 
ATOM     35  C   UNL     1     -22.760  38.313   4.734  0.00  0.00    +0.000 C 
ATOM     36  C   UNL     1     -24.091  38.328   5.235  0.00  0.00    +0.000 C 
ATOM     37  O   UNL     1     -25.015  38.850   4.639  0.00  0.00    +0.000 OA
BRANCH  36  38
ATOM     38  O   UNL     1     -24.234  37.736   6.431  0.00  0.00    +0.000 OA
ATOM     39  H   UNL     1     -23.385  37.268   6.575  0.00  0.00    +0.000 HD
ENDBRANCH  36  38
ENDBRANCH  29  30
BRANCH  29  40
ATOM     40  O   UNL     1     -19.318  40.087   1.698  0.00  0.00    +0.000 OA
ATOM     41  H   UNL     1     -19.428  39.210   2.121  0.00  0.00    +0.000 HD
ENDBRANCH  29  40
ENDBRANCH  27  29
ENDBRANCH  25  27
ENDBRANCH   4  25
TORSDOF 12
ENDMDL
