MODEL 1
REMARK VINA RESULT:      -6.7      0.000      0.000
REMARK  Name = Lobelin.pdbqt.pdb
REMARK  3 active torsions:
REMARK  status: ('A' for Active; 'I' for Inactive)
REMARK    1  A    between atoms: C_9  and  O_10
REMARK    2  A    between atoms: C_9  and  C_12
REMARK    3  A    between atoms: C_19  and  C_21
REMARK                            x       y       z     vdW  Elec       q    Type
REMARK                         _______ _______ _______ _____ _____    ______ ____
ROOT
ATOM      1  N   UNL     1      -3.167  48.734  27.200  0.00  0.00    +0.000 N 
ATOM      2  C   UNL     1      -1.731  48.965  27.316  0.00  0.00    +0.000 C 
ATOM      3  C   UNL     1      -3.706  47.385  27.351  0.00  0.00    +0.000 C 
ATOM      4  C   UNL     1      -0.959  47.801  27.617  0.00  0.00    +0.000 C 
ATOM      5  C   UNL     1      -2.734  46.382  27.647  0.00  0.00    +0.000 C 
ATOM      6  C   UNL     1      -1.231  46.325  27.844  0.00  0.00    +0.000 C 
ATOM      7  C   UNL     1      -4.044  49.816  26.813  0.00  0.00    +0.000 C 
ATOM      8  C   UNL     1      -1.146  50.250  27.152  0.00  0.00    +0.000 C 
ATOM      9  C   UNL     1      -0.573  51.541  27.013  0.00  0.00    +0.000 C 
ATOM     10  C   UNL     1      -5.090  47.103  27.222  0.00  0.00    +0.000 C 
ATOM     11  C   UNL     1      -6.498  46.823  27.125  0.00  0.00    +0.000 C 
ATOM     12  O   UNL     1      -7.048  46.213  28.030  0.00  0.00    +0.000 OA
ENDROOT
BRANCH   9  13
ATOM     13  C   UNL     1      -0.862  52.670  27.898  0.00  0.00    +0.000 A 
ATOM     14  C   UNL     1      -2.055  52.722  28.626  0.00  0.00    +0.000 A 
ATOM     15  C   UNL     1      -2.331  53.797  29.469  0.00  0.00    +0.000 A 
ATOM     16  C   UNL     1      -1.412  54.835  29.595  0.00  0.00    +0.000 A 
ATOM     17  C   UNL     1      -0.221  54.798  28.877  0.00  0.00    +0.000 A 
ATOM     18  C   UNL     1       0.049  53.721  28.034  0.00  0.00    +0.000 A 
ENDBRANCH   9  13
BRANCH  11  19
ATOM     19  C   UNL     1      -7.224  47.274  25.925  0.00  0.00    +0.000 A 
ATOM     20  C   UNL     1      -8.507  46.807  25.638  0.00  0.00    +0.000 A 
ATOM     21  C   UNL     1      -9.170  47.258  24.500  0.00  0.00    +0.000 A 
ATOM     22  C   UNL     1      -8.553  48.173  23.650  0.00  0.00    +0.000 A 
ATOM     23  C   UNL     1      -7.273  48.642  23.940  0.00  0.00    +0.000 A 
ATOM     24  C   UNL     1      -6.607  48.193  25.078  0.00  0.00    +0.000 A 
ENDBRANCH  11  19
BRANCH   9  25
ATOM     25  O   UNL     1       0.320  51.766  25.990  0.00  0.00    +0.000 OA
ATOM     26  H   UNL     1       0.322  52.696  25.708  0.00  0.00    +0.000 HD
ENDBRANCH   9  25
TORSDOF 3
ENDMDL
MODEL 2
REMARK VINA RESULT:      -6.7      0.426      7.976
REMARK  Name = Lobelin.pdbqt.pdb
REMARK  3 active torsions:
REMARK  status: ('A' for Active; 'I' for Inactive)
REMARK    1  A    between atoms: C_9  and  O_10
REMARK    2  A    between atoms: C_9  and  C_12
REMARK    3  A    between atoms: C_19  and  C_21
REMARK                            x       y       z     vdW  Elec       q    Type
REMARK                         _______ _______ _______ _____ _____    ______ ____
ROOT
ATOM      1  N   UNL     1      -3.144  49.026  27.221  0.00  0.00    +0.000 N 
ATOM      2  C   UNL     1      -3.750  47.715  27.430  0.00  0.00    +0.000 C 
ATOM      3  C   UNL     1      -1.696  49.187  27.313  0.00  0.00    +0.000 C 
ATOM      4  C   UNL     1      -2.820  46.659  27.678  0.00  0.00    +0.000 C 
ATOM      5  C   UNL     1      -0.975  47.982  27.575  0.00  0.00    +0.000 C 
ATOM      6  C   UNL     1      -1.314  46.522  27.806  0.00  0.00    +0.000 C 
ATOM      7  C   UNL     1      -3.984  50.190  27.046  0.00  0.00    +0.000 C 
ATOM      8  C   UNL     1      -5.154  47.503  27.378  0.00  0.00    +0.000 C 
ATOM      9  C   UNL     1      -6.555  47.295  27.300  0.00  0.00    +0.000 C 
ATOM     10  C   UNL     1      -1.060  50.443  27.145  0.00  0.00    +0.000 C 
ATOM     11  C   UNL     1      -0.413  51.712  26.940  0.00  0.00    +0.000 C 
ATOM     12  O   UNL     1       0.497  51.794  26.128  0.00  0.00    +0.000 OA
ENDROOT
BRANCH   9  13
ATOM     13  C   UNL     1      -7.354  47.511  26.093  0.00  0.00    +0.000 A 
ATOM     14  C   UNL     1      -8.604  46.903  25.943  0.00  0.00    +0.000 A 
ATOM     15  C   UNL     1      -9.365  47.109  24.794  0.00  0.00    +0.000 A 
ATOM     16  C   UNL     1      -8.882  47.928  23.778  0.00  0.00    +0.000 A 
ATOM     17  C   UNL     1      -7.640  48.540  23.911  0.00  0.00    +0.000 A 
ATOM     18  C   UNL     1      -6.882  48.330  25.063  0.00  0.00    +0.000 A 
ENDBRANCH   9  13
BRANCH  11  19
ATOM     19  C   UNL     1      -0.867  52.869  27.731  0.00  0.00    +0.000 A 
ATOM     20  C   UNL     1      -0.352  54.146  27.506  0.00  0.00    +0.000 A 
ATOM     21  C   UNL     1      -0.806  55.221  28.266  0.00  0.00    +0.000 A 
ATOM     22  C   UNL     1      -1.773  55.020  29.248  0.00  0.00    +0.000 A 
ATOM     23  C   UNL     1      -2.290  53.745  29.471  0.00  0.00    +0.000 A 
ATOM     24  C   UNL     1      -1.838  52.668  28.712  0.00  0.00    +0.000 A 
ENDBRANCH  11  19
BRANCH   9  25
ATOM     25  O   UNL     1      -7.226  46.855  28.418  0.00  0.00    +0.000 OA
ATOM     26  H   UNL     1      -7.230  47.522  29.126  0.00  0.00    +0.000 HD
ENDBRANCH   9  25
TORSDOF 3
ENDMDL
MODEL 3
REMARK VINA RESULT:      -6.5      4.981      8.364
REMARK  Name = Lobelin.pdbqt.pdb
REMARK  3 active torsions:
REMARK  status: ('A' for Active; 'I' for Inactive)
REMARK    1  A    between atoms: C_9  and  O_10
REMARK    2  A    between atoms: C_9  and  C_12
REMARK    3  A    between atoms: C_19  and  C_21
REMARK                            x       y       z     vdW  Elec       q    Type
REMARK                         _______ _______ _______ _____ _____    ______ ____
ROOT
ATOM      1  N   UNL     1       0.238  45.390  29.364  0.00  0.00    +0.000 N 
ATOM      2  C   UNL     1       0.238  45.682  27.935  0.00  0.00    +0.000 C 
ATOM      3  C   UNL     1       1.424  44.816  29.994  0.00  0.00    +0.000 C 
ATOM      4  C   UNL     1       1.469  45.402  27.266  0.00  0.00    +0.000 C 
ATOM      5  C   UNL     1       2.534  44.623  29.116  0.00  0.00    +0.000 C 
ATOM      6  C   UNL     1       2.829  44.845  27.645  0.00  0.00    +0.000 C 
ATOM      7  C   UNL     1      -0.975  45.549  30.135  0.00  0.00    +0.000 C 
ATOM      8  C   UNL     1      -0.895  46.215  27.262  0.00  0.00    +0.000 C 
ATOM      9  C   UNL     1      -2.023  46.770  26.603  0.00  0.00    +0.000 C 
ATOM     10  C   UNL     1       1.468  44.490  31.374  0.00  0.00    +0.000 C 
ATOM     11  C   UNL     1       1.522  44.190  32.780  0.00  0.00    +0.000 C 
ATOM     12  O   UNL     1       2.442  44.638  33.450  0.00  0.00    +0.000 OA
ENDROOT
BRANCH   9  13
ATOM     13  C   UNL     1      -2.590  48.084  26.909  0.00  0.00    +0.000 A 
ATOM     14  C   UNL     1      -1.778  49.222  26.952  0.00  0.00    +0.000 A 
ATOM     15  C   UNL     1      -2.317  50.474  27.243  0.00  0.00    +0.000 A 
ATOM     16  C   UNL     1      -3.680  50.602  27.493  0.00  0.00    +0.000 A 
ATOM     17  C   UNL     1      -4.501  49.479  27.455  0.00  0.00    +0.000 A 
ATOM     18  C   UNL     1      -3.956  48.230  27.164  0.00  0.00    +0.000 A 
ENDBRANCH   9  13
BRANCH  11  19
ATOM     19  C   UNL     1       0.468  43.339  33.360  0.00  0.00    +0.000 A 
ATOM     20  C   UNL     1      -0.284  43.765  34.455  0.00  0.00    +0.000 A 
ATOM     21  C   UNL     1      -1.278  42.941  34.976  0.00  0.00    +0.000 A 
ATOM     22  C   UNL     1      -1.521  41.695  34.403  0.00  0.00    +0.000 A 
ATOM     23  C   UNL     1      -0.771  41.271  33.307  0.00  0.00    +0.000 A 
ATOM     24  C   UNL     1       0.223  42.093  32.783  0.00  0.00    +0.000 A 
ENDBRANCH  11  19
BRANCH   9  25
ATOM     25  O   UNL     1      -2.633  46.047  25.605  0.00  0.00    +0.000 OA
ATOM     26  H   UNL     1      -2.680  46.546  24.772  0.00  0.00    +0.000 HD
ENDBRANCH   9  25
TORSDOF 3
ENDMDL
MODEL 4
REMARK VINA RESULT:      -6.5      5.254      8.579
REMARK  Name = Lobelin.pdbqt.pdb
REMARK  3 active torsions:
REMARK  status: ('A' for Active; 'I' for Inactive)
REMARK    1  A    between atoms: C_9  and  O_10
REMARK    2  A    between atoms: C_9  and  C_12
REMARK    3  A    between atoms: C_19  and  C_21
REMARK                            x       y       z     vdW  Elec       q    Type
REMARK                         _______ _______ _______ _____ _____    ______ ____
ROOT
ATOM      1  N   UNL     1       0.052  45.111  29.557  0.00  0.00    +0.000 N 
ATOM      2  C   UNL     1       1.175  44.498  30.259  0.00  0.00    +0.000 C 
ATOM      3  C   UNL     1       0.213  45.575  28.182  0.00  0.00    +0.000 C 
ATOM      4  C   UNL     1       2.368  44.371  29.483  0.00  0.00    +0.000 C 
ATOM      5  C   UNL     1       1.503  45.340  27.618  0.00  0.00    +0.000 C 
ATOM      6  C   UNL     1       2.813  44.727  28.076  0.00  0.00    +0.000 C 
ATOM      7  C   UNL     1      -1.183  45.373  30.261  0.00  0.00    +0.000 C 
ATOM      8  C   UNL     1       1.086  44.052  31.605  0.00  0.00    +0.000 C 
ATOM      9  C   UNL     1       0.981  43.586  32.941  0.00  0.00    +0.000 C 
ATOM     10  C   UNL     1      -0.839  46.200  27.465  0.00  0.00    +0.000 C 
ATOM     11  C   UNL     1      -1.916  46.804  26.727  0.00  0.00    +0.000 C 
ATOM     12  O   UNL     1      -2.211  46.356  25.628  0.00  0.00    +0.000 OA
ENDROOT
BRANCH   9  13
ATOM     13  C   UNL     1       0.082  42.515  33.372  0.00  0.00    +0.000 A 
ATOM     14  C   UNL     1       0.170  41.238  32.811  0.00  0.00    +0.000 A 
ATOM     15  C   UNL     1      -0.686  40.217  33.221  0.00  0.00    +0.000 A 
ATOM     16  C   UNL     1      -1.643  40.464  34.200  0.00  0.00    +0.000 A 
ATOM     17  C   UNL     1      -1.744  41.731  34.768  0.00  0.00    +0.000 A 
ATOM     18  C   UNL     1      -0.886  42.748  34.353  0.00  0.00    +0.000 A 
ENDBRANCH   9  13
BRANCH  11  19
ATOM     19  C   UNL     1      -2.619  47.954  27.322  0.00  0.00    +0.000 A 
ATOM     20  C   UNL     1      -3.347  47.824  28.505  0.00  0.00    +0.000 A 
ATOM     21  C   UNL     1      -3.995  48.931  29.047  0.00  0.00    +0.000 A 
ATOM     22  C   UNL     1      -3.915  50.166  28.407  0.00  0.00    +0.000 A 
ATOM     23  C   UNL     1      -3.186  50.297  27.227  0.00  0.00    +0.000 A 
ATOM     24  C   UNL     1      -2.536  49.191  26.684  0.00  0.00    +0.000 A 
ENDBRANCH  11  19
BRANCH   9  25
ATOM     25  O   UNL     1       1.773  44.160  33.910  0.00  0.00    +0.000 OA
ATOM     26  H   UNL     1       1.733  43.670  34.749  0.00  0.00    +0.000 HD
ENDBRANCH   9  25
TORSDOF 3
ENDMDL
MODEL 5
REMARK VINA RESULT:      -6.4      2.278      4.136
REMARK  Name = Lobelin.pdbqt.pdb
REMARK  3 active torsions:
REMARK  status: ('A' for Active; 'I' for Inactive)
REMARK    1  A    between atoms: C_9  and  O_10
REMARK    2  A    between atoms: C_9  and  C_12
REMARK    3  A    between atoms: C_19  and  C_21
REMARK                            x       y       z     vdW  Elec       q    Type
REMARK                         _______ _______ _______ _____ _____    ______ ____
ROOT
ATOM      1  N   UNL     1      -3.108  50.953  27.639  0.00  0.00    +0.000 N 
ATOM      2  C   UNL     1      -2.532  51.964  28.519  0.00  0.00    +0.000 C 
ATOM      3  C   UNL     1      -4.539  50.668  27.690  0.00  0.00    +0.000 C 
ATOM      4  C   UNL     1      -3.474  52.635  29.358  0.00  0.00    +0.000 C 
ATOM      5  C   UNL     1      -5.277  51.470  28.613  0.00  0.00    +0.000 C 
ATOM      6  C   UNL     1      -4.969  52.573  29.608  0.00  0.00    +0.000 C 
ATOM      7  C   UNL     1      -2.247  50.145  26.804  0.00  0.00    +0.000 C 
ATOM      8  C   UNL     1      -1.143  52.265  28.533  0.00  0.00    +0.000 C 
ATOM      9  C   UNL     1       0.241  52.578  28.523  0.00  0.00    +0.000 C 
ATOM     10  C   UNL     1      -5.145  49.679  26.874  0.00  0.00    +0.000 C 
ATOM     11  C   UNL     1      -5.765  48.698  26.022  0.00  0.00    +0.000 C 
ATOM     12  O   UNL     1      -6.730  49.020  25.346  0.00  0.00    +0.000 OA
ENDROOT
BRANCH   9  13
ATOM     13  C   UNL     1       0.953  53.127  27.368  0.00  0.00    +0.000 A 
ATOM     14  C   UNL     1       2.349  53.175  27.345  0.00  0.00    +0.000 A 
ATOM     15  C   UNL     1       3.028  53.698  26.245  0.00  0.00    +0.000 A 
ATOM     16  C   UNL     1       2.314  54.178  25.152  0.00  0.00    +0.000 A 
ATOM     17  C   UNL     1       0.923  54.138  25.160  0.00  0.00    +0.000 A 
ATOM     18  C   UNL     1       0.250  53.615  26.263  0.00  0.00    +0.000 A 
ENDBRANCH   9  13
BRANCH  11  19
ATOM     19  C   UNL     1      -5.215  47.331  26.008  0.00  0.00    +0.000 A 
ATOM     20  C   UNL     1      -6.044  46.220  25.856  0.00  0.00    +0.000 A 
ATOM     21  C   UNL     1      -5.494  44.941  25.840  0.00  0.00    +0.000 A 
ATOM     22  C   UNL     1      -4.118  44.772  25.974  0.00  0.00    +0.000 A 
ATOM     23  C   UNL     1      -3.290  45.883  26.123  0.00  0.00    +0.000 A 
ATOM     24  C   UNL     1      -3.837  47.164  26.139  0.00  0.00    +0.000 A 
ENDBRANCH  11  19
BRANCH   9  25
ATOM     25  O   UNL     1       0.980  52.365  29.665  0.00  0.00    +0.000 OA
ATOM     26  H   UNL     1       1.904  52.139  29.462  0.00  0.00    +0.000 HD
ENDBRANCH   9  25
TORSDOF 3
ENDMDL
MODEL 6
REMARK VINA RESULT:      -6.4     26.225     28.496
REMARK  Name = Lobelin.pdbqt.pdb
REMARK  3 active torsions:
REMARK  status: ('A' for Active; 'I' for Inactive)
REMARK    1  A    between atoms: C_9  and  O_10
REMARK    2  A    between atoms: C_9  and  C_12
REMARK    3  A    between atoms: C_19  and  C_21
REMARK                            x       y       z     vdW  Elec       q    Type
REMARK                         _______ _______ _______ _____ _____    ______ ____
ROOT
ATOM      1  N   UNL     1     -16.107  37.453   5.593  0.00  0.00    +0.000 N 
ATOM      2  C   UNL     1     -16.486  36.057   5.781  0.00  0.00    +0.000 C 
ATOM      3  C   UNL     1     -16.859  38.513   6.258  0.00  0.00    +0.000 C 
ATOM      4  C   UNL     1     -17.584  35.850   6.672  0.00  0.00    +0.000 C 
ATOM      5  C   UNL     1     -17.919  38.057   7.099  0.00  0.00    +0.000 C 
ATOM      6  C   UNL     1     -18.514  36.720   7.498  0.00  0.00    +0.000 C 
ATOM      7  C   UNL     1     -15.067  37.798   4.649  0.00  0.00    +0.000 C 
ATOM      8  C   UNL     1     -15.809  34.986   5.139  0.00  0.00    +0.000 C 
ATOM      9  C   UNL     1     -15.111  33.920   4.513  0.00  0.00    +0.000 C 
ATOM     10  C   UNL     1     -16.548  39.886   6.087  0.00  0.00    +0.000 C 
ATOM     11  C   UNL     1     -16.210  41.277   5.940  0.00  0.00    +0.000 C 
ATOM     12  O   UNL     1     -16.036  41.958   6.941  0.00  0.00    +0.000 OA
ENDROOT
BRANCH   9  13
ATOM     13  C   UNL     1     -13.701  33.607   4.752  0.00  0.00    +0.000 A 
ATOM     14  C   UNL     1     -13.245  32.286   4.714  0.00  0.00    +0.000 A 
ATOM     15  C   UNL     1     -11.903  31.986   4.941  0.00  0.00    +0.000 A 
ATOM     16  C   UNL     1     -10.999  33.010   5.208  0.00  0.00    +0.000 A 
ATOM     17  C   UNL     1     -11.437  34.330   5.250  0.00  0.00    +0.000 A 
ATOM     18  C   UNL     1     -12.781  34.623   5.023  0.00  0.00    +0.000 A 
ENDBRANCH   9  13
BRANCH  11  19
ATOM     19  C   UNL     1     -16.100  41.835   4.581  0.00  0.00    +0.000 A 
ATOM     20  C   UNL     1     -15.721  43.160   4.371  0.00  0.00    +0.000 A 
ATOM     21  C   UNL     1     -15.619  43.656   3.074  0.00  0.00    +0.000 A 
ATOM     22  C   UNL     1     -15.894  42.828   1.988  0.00  0.00    +0.000 A 
ATOM     23  C   UNL     1     -16.270  41.502   2.198  0.00  0.00    +0.000 A 
ATOM     24  C   UNL     1     -16.372  41.004   3.494  0.00  0.00    +0.000 A 
ENDBRANCH  11  19
BRANCH   9  25
ATOM     25  O   UNL     1     -15.786  33.112   3.627  0.00  0.00    +0.000 OA
ATOM     26  H   UNL     1     -16.058  32.273   4.036  0.00  0.00    +0.000 HD
ENDBRANCH   9  25
TORSDOF 3
ENDMDL
MODEL 7
REMARK VINA RESULT:      -6.2      2.944      4.005
REMARK  Name = Lobelin.pdbqt.pdb
REMARK  3 active torsions:
REMARK  status: ('A' for Active; 'I' for Inactive)
REMARK    1  A    between atoms: C_9  and  O_10
REMARK    2  A    between atoms: C_9  and  C_12
REMARK    3  A    between atoms: C_19  and  C_21
REMARK                            x       y       z     vdW  Elec       q    Type
REMARK                         _______ _______ _______ _____ _____    ______ ____
ROOT
ATOM      1  N   UNL     1      -4.320  50.432  27.734  0.00  0.00    +0.000 N 
ATOM      2  C   UNL     1      -3.494  51.544  28.192  0.00  0.00    +0.000 C 
ATOM      3  C   UNL     1      -3.751  49.406  26.865  0.00  0.00    +0.000 C 
ATOM      4  C   UNL     1      -2.134  51.497  27.757  0.00  0.00    +0.000 C 
ATOM      5  C   UNL     1      -2.366  49.577  26.564  0.00  0.00    +0.000 C 
ATOM      6  C   UNL     1      -1.279  50.581  26.900  0.00  0.00    +0.000 C 
ATOM      7  C   UNL     1      -5.735  50.410  28.035  0.00  0.00    +0.000 C 
ATOM      8  C   UNL     1      -4.000  52.585  29.016  0.00  0.00    +0.000 C 
ATOM      9  C   UNL     1      -4.506  53.608  29.860  0.00  0.00    +0.000 C 
ATOM     10  C   UNL     1      -4.518  48.320  26.371  0.00  0.00    +0.000 C 
ATOM     11  C   UNL     1      -5.287  47.199  25.897  0.00  0.00    +0.000 C 
ATOM     12  O   UNL     1      -4.860  46.067  26.070  0.00  0.00    +0.000 OA
ENDROOT
BRANCH   9  13
ATOM     13  C   UNL     1      -5.015  53.382  31.213  0.00  0.00    +0.000 A 
ATOM     14  C   UNL     1      -5.161  54.444  32.109  0.00  0.00    +0.000 A 
ATOM     15  C   UNL     1      -5.646  54.230  33.399  0.00  0.00    +0.000 A 
ATOM     16  C   UNL     1      -5.993  52.945  33.805  0.00  0.00    +0.000 A 
ATOM     17  C   UNL     1      -5.853  51.877  32.925  0.00  0.00    +0.000 A 
ATOM     18  C   UNL     1      -5.367  52.097  31.638  0.00  0.00    +0.000 A 
ENDBRANCH   9  13
BRANCH  11  19
ATOM     19  C   UNL     1      -6.562  47.463  25.208  0.00  0.00    +0.000 A 
ATOM     20  C   UNL     1      -7.678  46.652  25.416  0.00  0.00    +0.000 A 
ATOM     21  C   UNL     1      -8.871  46.931  24.755  0.00  0.00    +0.000 A 
ATOM     22  C   UNL     1      -8.950  48.019  23.889  0.00  0.00    +0.000 A 
ATOM     23  C   UNL     1      -7.836  48.831  23.684  0.00  0.00    +0.000 A 
ATOM     24  C   UNL     1      -6.641  48.555  24.344  0.00  0.00    +0.000 A 
ENDBRANCH  11  19
BRANCH   9  25
ATOM     25  O   UNL     1      -4.522  54.904  29.398  0.00  0.00    +0.000 OA
ATOM     26  H   UNL     1      -5.369  55.345  29.582  0.00  0.00    +0.000 HD
ENDBRANCH   9  25
TORSDOF 3
ENDMDL
MODEL 8
REMARK VINA RESULT:      -6.2      6.418      9.438
REMARK  Name = Lobelin.pdbqt.pdb
REMARK  3 active torsions:
REMARK  status: ('A' for Active; 'I' for Inactive)
REMARK    1  A    between atoms: C_9  and  O_10
REMARK    2  A    between atoms: C_9  and  C_12
REMARK    3  A    between atoms: C_19  and  C_21
REMARK                            x       y       z     vdW  Elec       q    Type
REMARK                         _______ _______ _______ _____ _____    ______ ____
ROOT
ATOM      1  N   UNL     1       0.705  44.183  31.572  0.00  0.00    +0.000 N 
ATOM      2  C   UNL     1       1.638  44.863  30.681  0.00  0.00    +0.000 C 
ATOM      3  C   UNL     1       1.082  43.905  32.955  0.00  0.00    +0.000 C 
ATOM      4  C   UNL     1       2.874  45.245  31.288  0.00  0.00    +0.000 C 
ATOM      5  C   UNL     1       2.375  44.382  33.330  0.00  0.00    +0.000 C 
ATOM      6  C   UNL     1       3.518  45.117  32.656  0.00  0.00    +0.000 C 
ATOM      7  C   UNL     1      -0.545  43.670  31.055  0.00  0.00    +0.000 C 
ATOM      8  C   UNL     1       1.337  45.136  29.320  0.00  0.00    +0.000 C 
ATOM      9  C   UNL     1       1.018  45.427  27.968  0.00  0.00    +0.000 C 
ATOM     10  C   UNL     1       0.223  43.224  33.854  0.00  0.00    +0.000 C 
ATOM     11  C   UNL     1      -0.664  42.562  34.775  0.00  0.00    +0.000 C 
ATOM     12  O   UNL     1      -0.902  43.087  35.854  0.00  0.00    +0.000 OA
ENDROOT
BRANCH   9  13
ATOM     13  C   UNL     1      -0.076  46.305  27.551  0.00  0.00    +0.000 A 
ATOM     14  C   UNL     1      -0.367  47.473  28.261  0.00  0.00    +0.000 A 
ATOM     15  C   UNL     1      -1.409  48.310  27.864  0.00  0.00    +0.000 A 
ATOM     16  C   UNL     1      -2.173  47.986  26.748  0.00  0.00    +0.000 A 
ATOM     17  C   UNL     1      -1.897  46.826  26.030  0.00  0.00    +0.000 A 
ATOM     18  C   UNL     1      -0.854  45.993  26.432  0.00  0.00    +0.000 A 
ENDBRANCH   9  13
BRANCH  11  19
ATOM     19  C   UNL     1      -1.243  41.265  34.386  0.00  0.00    +0.000 A 
ATOM     20  C   UNL     1      -0.681  40.500  33.363  0.00  0.00    +0.000 A 
ATOM     21  C   UNL     1      -1.248  39.275  33.022  0.00  0.00    +0.000 A 
ATOM     22  C   UNL     1      -2.372  38.814  33.704  0.00  0.00    +0.000 A 
ATOM     23  C   UNL     1      -2.930  39.576  34.728  0.00  0.00    +0.000 A 
ATOM     24  C   UNL     1      -2.366  40.802  35.071  0.00  0.00    +0.000 A 
ENDBRANCH  11  19
BRANCH   9  25
ATOM     25  O   UNL     1       1.778  44.864  26.968  0.00  0.00    +0.000 OA
ATOM     26  H   UNL     1       2.629  44.533  27.302  0.00  0.00    +0.000 HD
ENDBRANCH   9  25
TORSDOF 3
ENDMDL
MODEL 9
REMARK VINA RESULT:      -6.2     26.369     28.233
REMARK  Name = Lobelin.pdbqt.pdb
REMARK  3 active torsions:
REMARK  status: ('A' for Active; 'I' for Inactive)
REMARK    1  A    between atoms: C_9  and  O_10
REMARK    2  A    between atoms: C_9  and  C_12
REMARK    3  A    between atoms: C_19  and  C_21
REMARK                            x       y       z     vdW  Elec       q    Type
REMARK                         _______ _______ _______ _____ _____    ______ ____
ROOT
ATOM      1  N   UNL     1     -16.253  37.408   5.545  0.00  0.00    +0.000 N 
ATOM      2  C   UNL     1     -16.998  38.480   6.197  0.00  0.00    +0.000 C 
ATOM      3  C   UNL     1     -16.623  36.014   5.775  0.00  0.00    +0.000 C 
ATOM      4  C   UNL     1     -18.093  38.043   7.004  0.00  0.00    +0.000 C 
ATOM      5  C   UNL     1     -17.756  35.828   6.625  0.00  0.00    +0.000 C 
ATOM      6  C   UNL     1     -18.712  36.714   7.400  0.00  0.00    +0.000 C 
ATOM      7  C   UNL     1     -15.071  37.716   4.772  0.00  0.00    +0.000 C 
ATOM      8  C   UNL     1     -16.667  39.852   6.033  0.00  0.00    +0.000 C 
ATOM      9  C   UNL     1     -16.346  41.221   5.844  0.00  0.00    +0.000 C 
ATOM     10  C   UNL     1     -15.917  34.935   5.186  0.00  0.00    +0.000 C 
ATOM     11  C   UNL     1     -15.219  33.841   4.562  0.00  0.00    +0.000 C 
ATOM     12  O   UNL     1     -15.857  33.007   3.936  0.00  0.00    +0.000 OA
ENDROOT
BRANCH   9  13
ATOM     13  C   UNL     1     -16.411  41.911   4.555  0.00  0.00    +0.000 A 
ATOM     14  C   UNL     1     -17.219  41.426   3.523  0.00  0.00    +0.000 A 
ATOM     15  C   UNL     1     -17.281  42.083   2.295  0.00  0.00    +0.000 A 
ATOM     16  C   UNL     1     -16.534  43.238   2.086  0.00  0.00    +0.000 A 
ATOM     17  C   UNL     1     -15.724  43.733   3.103  0.00  0.00    +0.000 A 
ATOM     18  C   UNL     1     -15.665  43.072   4.329  0.00  0.00    +0.000 A 
ENDBRANCH   9  13
BRANCH  11  19
ATOM     19  C   UNL     1     -13.756  33.762   4.712  0.00  0.00    +0.000 A 
ATOM     20  C   UNL     1     -12.995  34.898   4.992  0.00  0.00    +0.000 A 
ATOM     21  C   UNL     1     -11.615  34.790   5.135  0.00  0.00    +0.000 A 
ATOM     22  C   UNL     1     -10.995  33.549   5.001  0.00  0.00    +0.000 A 
ATOM     23  C   UNL     1     -11.756  32.415   4.725  0.00  0.00    +0.000 A 
ATOM     24  C   UNL     1     -13.137  32.520   4.581  0.00  0.00    +0.000 A 
ENDBRANCH  11  19
BRANCH   9  25
ATOM     25  O   UNL     1     -15.953  41.969   6.930  0.00  0.00    +0.000 OA
ATOM     26  H   UNL     1     -16.642  42.595   7.209  0.00  0.00    +0.000 HD
ENDBRANCH   9  25
TORSDOF 3
ENDMDL
