MODEL 1
REMARK VINA RESULT:      -5.7      0.000      0.000
REMARK  Name = LUCANTHONE.pdbqt.pdb
REMARK  5 active torsions:
REMARK  status: ('A' for Active; 'I' for Inactive)
REMARK    1  A    between atoms: C_3  and  N_17
REMARK    2  A    between atoms: N_17  and  C_19
REMARK    3  A    between atoms: C_20  and  N_21
REMARK    4  A    between atoms: N_21  and  C_22
REMARK    5  A    between atoms: N_21  and  C_24
REMARK                            x       y       z     vdW  Elec       q    Type
REMARK                         _______ _______ _______ _____ _____    ______ ____
ROOT
ATOM      1  S   UNL     1      -2.834  47.484  26.683  0.00  0.00    +0.000 S 
ATOM      2  O   UNL     1      -5.882  49.969  28.508  0.00  0.00    +0.000 OA
ATOM      3  C   UNL     1      -6.935  47.951  26.883  0.00  0.00    +0.000 A 
ATOM      4  C   UNL     1      -5.537  48.175  27.023  0.00  0.00    +0.000 A 
ATOM      5  C   UNL     1      -4.604  47.264  26.486  0.00  0.00    +0.000 A 
ATOM      6  C   UNL     1      -5.095  46.129  25.798  0.00  0.00    +0.000 A 
ATOM      7  C   UNL     1      -5.090  49.388  27.768  0.00  0.00    +0.000 A 
ATOM      8  C   UNL     1      -7.366  46.826  26.170  0.00  0.00    +0.000 A 
ATOM      9  C   UNL     1      -3.734  49.936  27.627  0.00  0.00    +0.000 A 
ATOM     10  C   UNL     1      -6.462  45.918  25.645  0.00  0.00    +0.000 A 
ATOM     11  C   UNL     1      -2.683  49.180  27.130  0.00  0.00    +0.000 A 
ATOM     12  C   UNL     1      -4.204  45.076  25.176  0.00  0.00    +0.000 C 
ATOM     13  C   UNL     1      -3.524  51.261  28.026  0.00  0.00    +0.000 A 
ATOM     14  C   UNL     1      -1.419  49.765  27.029  0.00  0.00    +0.000 A 
ATOM     15  C   UNL     1      -2.263  51.838  27.915  0.00  0.00    +0.000 A 
ATOM     16  C   UNL     1      -1.206  51.088  27.412  0.00  0.00    +0.000 A 
ENDROOT
BRANCH   3  17
ATOM     17  N   UNL     1      -7.894  48.911  27.301  0.00  0.00    +0.000 N 
ATOM     18  H   UNL     1      -7.580  49.409  28.148  0.00  0.00    +0.000 HD
BRANCH  17  19
ATOM     19  C   UNL     1      -9.309  48.591  27.226  0.00  0.00    +0.000 C 
ATOM     20  C   UNL     1     -10.801  48.251  27.146  0.00  0.00    +0.000 C 
BRANCH  20  21
ATOM     21  N   UNL     1     -12.215  47.927  27.058  0.00  0.00    +0.000 N 
BRANCH  21  22
ATOM     22  C   UNL     1     -12.896  49.105  26.551  0.00  0.00    +0.000 C 
ATOM     23  C   UNL     1     -13.623  50.347  26.028  0.00  0.00    +0.000 C 
ENDBRANCH  21  22
BRANCH  21  24
ATOM     24  C   UNL     1     -12.693  47.729  28.414  0.00  0.00    +0.000 C 
ATOM     25  C   UNL     1     -13.181  47.531  29.852  0.00  0.00    +0.000 C 
ENDBRANCH  21  24
ENDBRANCH  20  21
ENDBRANCH  17  19
ENDBRANCH   3  17
TORSDOF 5
ENDMDL
MODEL 2
REMARK VINA RESULT:      -5.6     24.683     26.673
REMARK  Name = LUCANTHONE.pdbqt.pdb
REMARK  5 active torsions:
REMARK  status: ('A' for Active; 'I' for Inactive)
REMARK    1  A    between atoms: C_3  and  N_17
REMARK    2  A    between atoms: N_17  and  C_19
REMARK    3  A    between atoms: C_20  and  N_21
REMARK    4  A    between atoms: N_21  and  C_22
REMARK    5  A    between atoms: N_21  and  C_24
REMARK                            x       y       z     vdW  Elec       q    Type
REMARK                         _______ _______ _______ _____ _____    ______ ____
ROOT
ATOM      1  S   UNL     1     -19.365  41.353   4.478  0.00  0.00    +0.000 S 
ATOM      2  O   UNL     1     -16.511  38.622   6.264  0.00  0.00    +0.000 OA
ATOM      3  C   UNL     1     -19.159  38.063   6.971  0.00  0.00    +0.000 A 
ATOM      4  C   UNL     1     -18.796  39.182   6.170  0.00  0.00    +0.000 A 
ATOM      5  C   UNL     1     -19.783  39.966   5.536  0.00  0.00    +0.000 A 
ATOM      6  C   UNL     1     -21.141  39.615   5.727  0.00  0.00    +0.000 A 
ATOM      7  C   UNL     1     -17.345  39.488   6.005  0.00  0.00    +0.000 A 
ATOM      8  C   UNL     1     -20.517  37.778   7.148  0.00  0.00    +0.000 A 
ATOM      9  C   UNL     1     -16.869  40.808   5.568  0.00  0.00    +0.000 A 
ATOM     10  C   UNL     1     -21.497  38.532   6.525  0.00  0.00    +0.000 A 
ATOM     11  C   UNL     1     -17.697  41.709   4.914  0.00  0.00    +0.000 A 
ATOM     12  C   UNL     1     -22.295  40.370   5.106  0.00  0.00    +0.000 C 
ATOM     13  C   UNL     1     -15.533  41.134   5.822  0.00  0.00    +0.000 A 
ATOM     14  C   UNL     1     -17.175  42.944   4.522  0.00  0.00    +0.000 A 
ATOM     15  C   UNL     1     -15.024  42.370   5.435  0.00  0.00    +0.000 A 
ATOM     16  C   UNL     1     -15.849  43.280   4.784  0.00  0.00    +0.000 A 
ENDROOT
BRANCH   3  17
ATOM     17  N   UNL     1     -18.198  37.335   7.720  0.00  0.00    +0.000 N 
ATOM     18  H   UNL     1     -17.253  37.731   7.603  0.00  0.00    +0.000 HD
BRANCH  17  19
ATOM     19  C   UNL     1     -18.288  35.886   7.785  0.00  0.00    +0.000 C 
ATOM     20  C   UNL     1     -18.386  34.359   7.855  0.00  0.00    +0.000 C 
BRANCH  20  21
ATOM     21  N   UNL     1     -18.477  32.910   7.934  0.00  0.00    +0.000 N 
BRANCH  21  22
ATOM     22  C   UNL     1     -18.282  32.392   6.592  0.00  0.00    +0.000 C 
ATOM     23  C   UNL     1     -18.089  31.837   5.178  0.00  0.00    +0.000 C 
ENDBRANCH  21  22
BRANCH  21  24
ATOM     24  C   UNL     1     -19.842  32.588   8.304  0.00  0.00    +0.000 C 
ATOM     25  C   UNL     1     -21.283  32.231   8.684  0.00  0.00    +0.000 C 
ENDBRANCH  21  24
ENDBRANCH  20  21
ENDBRANCH  17  19
ENDBRANCH   3  17
TORSDOF 5
ENDMDL
MODEL 3
REMARK VINA RESULT:      -5.3     22.772     25.269
REMARK  Name = LUCANTHONE.pdbqt.pdb
REMARK  5 active torsions:
REMARK  status: ('A' for Active; 'I' for Inactive)
REMARK    1  A    between atoms: C_3  and  N_17
REMARK    2  A    between atoms: N_17  and  C_19
REMARK    3  A    between atoms: C_20  and  N_21
REMARK    4  A    between atoms: N_21  and  C_22
REMARK    5  A    between atoms: N_21  and  C_24
REMARK                            x       y       z     vdW  Elec       q    Type
REMARK                         _______ _______ _______ _____ _____    ______ ____
ROOT
ATOM      1  S   UNL     1      -2.424  26.951  20.547  0.00  0.00    +0.000 S 
ATOM      2  O   UNL     1      -2.939  26.735  16.247  0.00  0.00    +0.000 OA
ATOM      3  C   UNL     1      -0.752  28.300  17.016  0.00  0.00    +0.000 A 
ATOM      4  C   UNL     1      -1.643  27.707  17.955  0.00  0.00    +0.000 A 
ATOM      5  C   UNL     1      -1.354  27.730  19.335  0.00  0.00    +0.000 A 
ATOM      6  C   UNL     1      -0.163  28.365  19.760  0.00  0.00    +0.000 A 
ATOM      7  C   UNL     1      -2.875  27.046  17.436  0.00  0.00    +0.000 A 
ATOM      8  C   UNL     1       0.397  28.939  17.493  0.00  0.00    +0.000 A 
ATOM      9  C   UNL     1      -4.038  26.777  18.293  0.00  0.00    +0.000 A 
ATOM     10  C   UNL     1       0.699  28.961  18.845  0.00  0.00    +0.000 A 
ATOM     11  C   UNL     1      -3.940  26.744  19.676  0.00  0.00    +0.000 A 
ATOM     12  C   UNL     1       0.264  28.460  21.209  0.00  0.00    +0.000 C 
ATOM     13  C   UNL     1      -5.266  26.537  17.666  0.00  0.00    +0.000 A 
ATOM     14  C   UNL     1      -5.087  26.477  20.428  0.00  0.00    +0.000 A 
ATOM     15  C   UNL     1      -6.404  26.278  18.423  0.00  0.00    +0.000 A 
ATOM     16  C   UNL     1      -6.315  26.251  19.810  0.00  0.00    +0.000 A 
ENDROOT
BRANCH   3  17
ATOM     17  N   UNL     1      -1.077  28.403  15.638  0.00  0.00    +0.000 N 
ATOM     18  H   UNL     1      -1.948  27.895  15.419  0.00  0.00    +0.000 HD
BRANCH  17  19
ATOM     19  C   UNL     1      -0.019  28.330  14.645  0.00  0.00    +0.000 C 
ATOM     20  C   UNL     1       1.097  28.255  13.598  0.00  0.00    +0.000 C 
BRANCH  20  21
ATOM     21  N   UNL     1       2.147  28.185  12.595  0.00  0.00    +0.000 N 
BRANCH  21  22
ATOM     22  C   UNL     1       1.519  28.361  11.299  0.00  0.00    +0.000 C 
ATOM     23  C   UNL     1       0.856  28.561   9.933  0.00  0.00    +0.000 C 
ENDBRANCH  21  22
BRANCH  21  24
ATOM     24  C   UNL     1       2.669  26.832  12.618  0.00  0.00    +0.000 C 
ATOM     25  C   UNL     1       3.238  25.410  12.652  0.00  0.00    +0.000 C 
ENDBRANCH  21  24
ENDBRANCH  20  21
ENDBRANCH  17  19
ENDBRANCH   3  17
TORSDOF 5
ENDMDL
MODEL 4
REMARK VINA RESULT:      -5.3     11.169     14.723
REMARK  Name = LUCANTHONE.pdbqt.pdb
REMARK  5 active torsions:
REMARK  status: ('A' for Active; 'I' for Inactive)
REMARK    1  A    between atoms: C_3  and  N_17
REMARK    2  A    between atoms: N_17  and  C_19
REMARK    3  A    between atoms: C_20  and  N_21
REMARK    4  A    between atoms: N_21  and  C_22
REMARK    5  A    between atoms: N_21  and  C_24
REMARK                            x       y       z     vdW  Elec       q    Type
REMARK                         _______ _______ _______ _____ _____    ______ ____
ROOT
ATOM      1  S   UNL     1       6.268  55.490  18.380  0.00  0.00    +0.000 S 
ATOM      2  O   UNL     1       2.053  56.481  18.609  0.00  0.00    +0.000 OA
ATOM      3  C   UNL     1       3.473  57.170  20.919  0.00  0.00    +0.000 A 
ATOM      4  C   UNL     1       4.072  56.491  19.820  0.00  0.00    +0.000 A 
ATOM      5  C   UNL     1       5.468  56.296  19.769  0.00  0.00    +0.000 A 
ATOM      6  C   UNL     1       6.252  56.783  20.842  0.00  0.00    +0.000 A 
ATOM      7  C   UNL     1       3.186  56.012  18.720  0.00  0.00    +0.000 A 
ATOM      8  C   UNL     1       4.293  57.606  21.965  0.00  0.00    +0.000 A 
ATOM      9  C   UNL     1       3.608  54.971  17.773  0.00  0.00    +0.000 A 
ATOM     10  C   UNL     1       5.665  57.430  21.925  0.00  0.00    +0.000 A 
ATOM     11  C   UNL     1       4.943  54.652  17.579  0.00  0.00    +0.000 A 
ATOM     12  C   UNL     1       7.757  56.639  20.911  0.00  0.00    +0.000 C 
ATOM     13  C   UNL     1       2.610  54.307  17.050  0.00  0.00    +0.000 A 
ATOM     14  C   UNL     1       5.272  53.655  16.658  0.00  0.00    +0.000 A 
ATOM     15  C   UNL     1       2.947  53.310  16.140  0.00  0.00    +0.000 A 
ATOM     16  C   UNL     1       4.283  52.980  15.944  0.00  0.00    +0.000 A 
ENDROOT
BRANCH   3  17
ATOM     17  N   UNL     1       2.064  57.270  21.058  0.00  0.00    +0.000 N 
ATOM     18  H   UNL     1       1.732  58.222  20.842  0.00  0.00    +0.000 HD
BRANCH  17  19
ATOM     19  C   UNL     1       1.403  56.589  22.159  0.00  0.00    +0.000 C 
ATOM     20  C   UNL     1       0.707  55.870  23.319  0.00  0.00    +0.000 C 
BRANCH  20  21
ATOM     21  N   UNL     1       0.044  55.179  24.413  0.00  0.00    +0.000 N 
BRANCH  21  22
ATOM     22  C   UNL     1      -0.570  56.190  25.253  0.00  0.00    +0.000 C 
ATOM     23  C   UNL     1      -1.223  57.247  26.149  0.00  0.00    +0.000 C 
ENDBRANCH  21  22
BRANCH  21  24
ATOM     24  C   UNL     1       1.080  54.553  25.213  0.00  0.00    +0.000 C 
ATOM     25  C   UNL     1       2.172  53.876  26.046  0.00  0.00    +0.000 C 
ENDBRANCH  21  24
ENDBRANCH  20  21
ENDBRANCH  17  19
ENDBRANCH   3  17
TORSDOF 5
ENDMDL
MODEL 5
REMARK VINA RESULT:      -5.3     23.151     26.656
REMARK  Name = LUCANTHONE.pdbqt.pdb
REMARK  5 active torsions:
REMARK  status: ('A' for Active; 'I' for Inactive)
REMARK    1  A    between atoms: C_3  and  N_17
REMARK    2  A    between atoms: N_17  and  C_19
REMARK    3  A    between atoms: C_20  and  N_21
REMARK    4  A    between atoms: N_21  and  C_22
REMARK    5  A    between atoms: N_21  and  C_24
REMARK                            x       y       z     vdW  Elec       q    Type
REMARK                         _______ _______ _______ _____ _____    ______ ____
ROOT
ATOM      1  S   UNL     1      -0.869  25.498  17.233  0.00  0.00    +0.000 S 
ATOM      2  O   UNL     1      -0.651  29.201  14.987  0.00  0.00    +0.000 OA
ATOM      3  C   UNL     1      -0.569  26.924  13.365  0.00  0.00    +0.000 A 
ATOM      4  C   UNL     1      -0.599  26.856  14.787  0.00  0.00    +0.000 A 
ATOM      5  C   UNL     1      -0.775  25.621  15.445  0.00  0.00    +0.000 A 
ATOM      6  C   UNL     1      -0.912  24.454  14.656  0.00  0.00    +0.000 A 
ATOM      7  C   UNL     1      -0.458  28.127  15.555  0.00  0.00    +0.000 A 
ATOM      8  C   UNL     1      -0.681  25.736  12.635  0.00  0.00    +0.000 A 
ATOM      9  C   UNL     1      -0.066  28.145  16.971  0.00  0.00    +0.000 A 
ATOM     10  C   UNL     1      -0.864  24.517  13.267  0.00  0.00    +0.000 A 
ATOM     11  C   UNL     1      -0.184  27.025  17.781  0.00  0.00    +0.000 A 
ATOM     12  C   UNL     1      -1.106  23.070  15.235  0.00  0.00    +0.000 C 
ATOM     13  C   UNL     1       0.426  29.345  17.494  0.00  0.00    +0.000 A 
ATOM     14  C   UNL     1       0.204  27.116  19.120  0.00  0.00    +0.000 A 
ATOM     15  C   UNL     1       0.816  29.425  18.827  0.00  0.00    +0.000 A 
ATOM     16  C   UNL     1       0.707  28.305  19.643  0.00  0.00    +0.000 A 
ENDROOT
BRANCH   3  17
ATOM     17  N   UNL     1      -0.268  28.130  12.680  0.00  0.00    +0.000 N 
ATOM     18  H   UNL     1      -1.123  28.667  12.473  0.00  0.00    +0.000 HD
BRANCH  17  19
ATOM     19  C   UNL     1       0.761  28.132  11.654  0.00  0.00    +0.000 C 
ATOM     20  C   UNL     1       1.846  28.137  10.572  0.00  0.00    +0.000 C 
BRANCH  20  21
ATOM     21  N   UNL     1       2.869  28.148   9.538  0.00  0.00    +0.000 N 
BRANCH  21  22
ATOM     22  C   UNL     1       3.986  28.924  10.045  0.00  0.00    +0.000 C 
ATOM     23  C   UNL     1       5.164  29.751  10.567  0.00  0.00    +0.000 C 
ENDBRANCH  21  22
BRANCH  21  24
ATOM     24  C   UNL     1       2.331  28.889   8.413  0.00  0.00    +0.000 C 
ATOM     25  C   UNL     1       1.748  29.679   7.238  0.00  0.00    +0.000 C 
ENDBRANCH  21  24
ENDBRANCH  20  21
ENDBRANCH  17  19
ENDBRANCH   3  17
TORSDOF 5
ENDMDL
MODEL 6
REMARK VINA RESULT:      -5.2     20.680     22.517
REMARK  Name = LUCANTHONE.pdbqt.pdb
REMARK  5 active torsions:
REMARK  status: ('A' for Active; 'I' for Inactive)
REMARK    1  A    between atoms: C_3  and  N_17
REMARK    2  A    between atoms: N_17  and  C_19
REMARK    3  A    between atoms: C_20  and  N_21
REMARK    4  A    between atoms: N_21  and  C_22
REMARK    5  A    between atoms: N_21  and  C_24
REMARK                            x       y       z     vdW  Elec       q    Type
REMARK                         _______ _______ _______ _____ _____    ______ ____
ROOT
ATOM      1  S   UNL     1     -27.043  37.851  21.138  0.00  0.00    +0.000 S 
ATOM      2  O   UNL     1     -23.498  40.342  20.991  0.00  0.00    +0.000 OA
ATOM      3  C   UNL     1     -25.861  41.808  21.287  0.00  0.00    +0.000 A 
ATOM      4  C   UNL     1     -25.848  40.394  21.123  0.00  0.00    +0.000 A 
ATOM      5  C   UNL     1     -27.027  39.639  21.287  0.00  0.00    +0.000 A 
ATOM      6  C   UNL     1     -28.223  40.325  21.609  0.00  0.00    +0.000 A 
ATOM      7  C   UNL     1     -24.550  39.736  20.793  0.00  0.00    +0.000 A 
ATOM      8  C   UNL     1     -27.076  42.438  21.578  0.00  0.00    +0.000 A 
ATOM      9  C   UNL     1     -24.483  38.391  20.206  0.00  0.00    +0.000 A 
ATOM     10  C   UNL     1     -28.240  41.708  21.751  0.00  0.00    +0.000 A 
ATOM     11  C   UNL     1     -25.544  37.501  20.284  0.00  0.00    +0.000 A 
ATOM     12  C   UNL     1     -29.554  39.636  21.812  0.00  0.00    +0.000 C 
ATOM     13  C   UNL     1     -23.295  38.019  19.568  0.00  0.00    +0.000 A 
ATOM     14  C   UNL     1     -25.408  36.236  19.708  0.00  0.00    +0.000 A 
ATOM     15  C   UNL     1     -23.171  36.759  18.991  0.00  0.00    +0.000 A 
ATOM     16  C   UNL     1     -24.232  35.864  19.059  0.00  0.00    +0.000 A 
ENDROOT
BRANCH   3  17
ATOM     17  N   UNL     1     -24.721  42.606  21.005  0.00  0.00    +0.000 N 
ATOM     18  H   UNL     1     -24.340  43.031  21.863  0.00  0.00    +0.000 HD
BRANCH  17  19
ATOM     19  C   UNL     1     -24.703  43.432  19.810  0.00  0.00    +0.000 C 
ATOM     20  C   UNL     1     -24.682  44.302  18.549  0.00  0.00    +0.000 C 
BRANCH  20  21
ATOM     21  N   UNL     1     -24.651  45.129  17.354  0.00  0.00    +0.000 N 
BRANCH  21  22
ATOM     22  C   UNL     1     -25.263  46.401  17.692  0.00  0.00    +0.000 C 
ATOM     23  C   UNL     1     -25.898  47.745  18.060  0.00  0.00    +0.000 C 
ENDBRANCH  21  22
BRANCH  21  24
ATOM     24  C   UNL     1     -25.521  44.501  16.377  0.00  0.00    +0.000 C 
ATOM     25  C   UNL     1     -26.428  43.820  15.348  0.00  0.00    +0.000 C 
ENDBRANCH  21  24
ENDBRANCH  20  21
ENDBRANCH  17  19
ENDBRANCH   3  17
TORSDOF 5
ENDMDL
MODEL 7
REMARK VINA RESULT:      -5.0     24.091     25.641
REMARK  Name = LUCANTHONE.pdbqt.pdb
REMARK  5 active torsions:
REMARK  status: ('A' for Active; 'I' for Inactive)
REMARK    1  A    between atoms: C_3  and  N_17
REMARK    2  A    between atoms: N_17  and  C_19
REMARK    3  A    between atoms: C_20  and  N_21
REMARK    4  A    between atoms: N_21  and  C_22
REMARK    5  A    between atoms: N_21  and  C_24
REMARK                            x       y       z     vdW  Elec       q    Type
REMARK                         _______ _______ _______ _____ _____    ______ ____
ROOT
ATOM      1  S   UNL     1       9.506  41.968   7.394  0.00  0.00    +0.000 S 
ATOM      2  O   UNL     1       7.199  45.226   5.701  0.00  0.00    +0.000 OA
ATOM      3  C   UNL     1       8.812  46.017   7.845  0.00  0.00    +0.000 A 
ATOM      4  C   UNL     1       8.710  44.664   7.416  0.00  0.00    +0.000 A 
ATOM      5  C   UNL     1       9.568  43.675   7.943  0.00  0.00    +0.000 A 
ATOM      6  C   UNL     1      10.523  44.064   8.912  0.00  0.00    +0.000 A 
ATOM      7  C   UNL     1       7.687  44.327   6.385  0.00  0.00    +0.000 A 
ATOM      8  C   UNL     1       9.755  46.341   8.826  0.00  0.00    +0.000 A 
ATOM      9  C   UNL     1       7.213  42.952   6.173  0.00  0.00    +0.000 A 
ATOM     10  C   UNL     1      10.610  45.384   9.344  0.00  0.00    +0.000 A 
ATOM     11  C   UNL     1       7.934  41.851   6.610  0.00  0.00    +0.000 A 
ATOM     12  C   UNL     1      11.501  43.105   9.555  0.00  0.00    +0.000 C 
ATOM     13  C   UNL     1       6.000  42.780   5.497  0.00  0.00    +0.000 A 
ATOM     14  C   UNL     1       7.425  40.572   6.369  0.00  0.00    +0.000 A 
ATOM     15  C   UNL     1       5.498  41.502   5.268  0.00  0.00    +0.000 A 
ATOM     16  C   UNL     1       6.212  40.394   5.708  0.00  0.00    +0.000 A 
ENDROOT
BRANCH   3  17
ATOM     17  N   UNL     1       7.882  47.006   7.428  0.00  0.00    +0.000 N 
ATOM     18  H   UNL     1       7.751  46.990   6.405  0.00  0.00    +0.000 HD
BRANCH  17  19
ATOM     19  C   UNL     1       7.900  48.316   8.057  0.00  0.00    +0.000 C 
ATOM     20  C   UNL     1       7.917  49.698   8.719  0.00  0.00    +0.000 C 
BRANCH  20  21
ATOM     21  N   UNL     1       7.937  51.013   9.337  0.00  0.00    +0.000 N 
BRANCH  21  22
ATOM     22  C   UNL     1       7.627  51.981   8.301  0.00  0.00    +0.000 C 
ATOM     23  C   UNL     1       7.305  52.993   7.198  0.00  0.00    +0.000 C 
ENDBRANCH  21  22
BRANCH  21  24
ATOM     24  C   UNL     1       9.304  51.273   9.746  0.00  0.00    +0.000 C 
ATOM     25  C   UNL     1      10.755  51.543  10.158  0.00  0.00    +0.000 C 
ENDBRANCH  21  24
ENDBRANCH  20  21
ENDBRANCH  17  19
ENDBRANCH   3  17
TORSDOF 5
ENDMDL
MODEL 8
REMARK VINA RESULT:      -4.8     24.935     27.149
REMARK  Name = LUCANTHONE.pdbqt.pdb
REMARK  5 active torsions:
REMARK  status: ('A' for Active; 'I' for Inactive)
REMARK    1  A    between atoms: C_3  and  N_17
REMARK    2  A    between atoms: N_17  and  C_19
REMARK    3  A    between atoms: C_20  and  N_21
REMARK    4  A    between atoms: N_21  and  C_22
REMARK    5  A    between atoms: N_21  and  C_24
REMARK                            x       y       z     vdW  Elec       q    Type
REMARK                         _______ _______ _______ _____ _____    ______ ____
ROOT
ATOM      1  S   UNL     1     -18.985  44.024   2.234  0.00  0.00    +0.000 S 
ATOM      2  O   UNL     1     -18.650  42.465   6.265  0.00  0.00    +0.000 OA
ATOM      3  C   UNL     1     -16.212  42.506   4.895  0.00  0.00    +0.000 A 
ATOM      4  C   UNL     1     -17.442  42.887   4.289  0.00  0.00    +0.000 A 
ATOM      5  C   UNL     1     -17.461  43.484   3.011  0.00  0.00    +0.000 A 
ATOM      6  C   UNL     1     -16.228  43.683   2.346  0.00  0.00    +0.000 A 
ATOM      7  C   UNL     1     -18.704  42.656   5.051  0.00  0.00    +0.000 A 
ATOM      8  C   UNL     1     -15.024  42.701   4.182  0.00  0.00    +0.000 A 
ATOM      9  C   UNL     1     -20.018  42.617   4.395  0.00  0.00    +0.000 A 
ATOM     10  C   UNL     1     -15.027  43.294   2.930  0.00  0.00    +0.000 A 
ATOM     11  C   UNL     1     -20.229  43.169   3.140  0.00  0.00    +0.000 A 
ATOM     12  C   UNL     1     -16.108  44.311   0.975  0.00  0.00    +0.000 C 
ATOM     13  C   UNL     1     -21.072  42.010   5.086  0.00  0.00    +0.000 A 
ATOM     14  C   UNL     1     -21.506  43.101   2.579  0.00  0.00    +0.000 A 
ATOM     15  C   UNL     1     -22.339  41.941   4.516  0.00  0.00    +0.000 A 
ATOM     16  C   UNL     1     -22.557  42.486   3.256  0.00  0.00    +0.000 A 
ENDROOT
BRANCH   3  17
ATOM     17  N   UNL     1     -16.171  41.791   6.121  0.00  0.00    +0.000 N 
ATOM     18  H   UNL     1     -15.670  42.323   6.848  0.00  0.00    +0.000 HD
BRANCH  17  19
ATOM     19  C   UNL     1     -15.954  40.355   6.105  0.00  0.00    +0.000 C 
ATOM     20  C   UNL     1     -15.726  38.840   6.087  0.00  0.00    +0.000 C 
BRANCH  20  21
ATOM     21  N   UNL     1     -15.521  37.401   6.065  0.00  0.00    +0.000 N 
BRANCH  21  22
ATOM     22  C   UNL     1     -15.406  37.002   4.674  0.00  0.00    +0.000 C 
ATOM     23  C   UNL     1     -15.271  36.578   3.209  0.00  0.00    +0.000 C 
ENDBRANCH  21  22
BRANCH  21  24
ATOM     24  C   UNL     1     -16.735  36.788   6.569  0.00  0.00    +0.000 C 
ATOM     25  C   UNL     1     -18.010  36.123   7.097  0.00  0.00    +0.000 C 
ENDBRANCH  21  24
ENDBRANCH  20  21
ENDBRANCH  17  19
ENDBRANCH   3  17
TORSDOF 5
ENDMDL
MODEL 9
REMARK VINA RESULT:      -4.7     20.605     22.599
REMARK  Name = LUCANTHONE.pdbqt.pdb
REMARK  5 active torsions:
REMARK  status: ('A' for Active; 'I' for Inactive)
REMARK    1  A    between atoms: C_3  and  N_17
REMARK    2  A    between atoms: N_17  and  C_19
REMARK    3  A    between atoms: C_20  and  N_21
REMARK    4  A    between atoms: N_21  and  C_22
REMARK    5  A    between atoms: N_21  and  C_24
REMARK                            x       y       z     vdW  Elec       q    Type
REMARK                         _______ _______ _______ _____ _____    ______ ____
ROOT
ATOM      1  S   UNL     1     -27.024  37.304  21.303  0.00  0.00    +0.000 S 
ATOM      2  O   UNL     1     -23.793  40.158  20.843  0.00  0.00    +0.000 OA
ATOM      3  C   UNL     1     -26.281  41.369  21.246  0.00  0.00    +0.000 A 
ATOM      4  C   UNL     1     -26.121  39.960  21.127  0.00  0.00    +0.000 A 
ATOM      5  C   UNL     1     -27.198  39.088  21.392  0.00  0.00    +0.000 A 
ATOM      6  C   UNL     1     -28.440  39.652  21.770  0.00  0.00    +0.000 A 
ATOM      7  C   UNL     1     -24.782  39.434  20.734  0.00  0.00    +0.000 A 
ATOM      8  C   UNL     1     -27.539  41.875  21.596  0.00  0.00    +0.000 A 
ATOM      9  C   UNL     1     -24.602  38.082  20.188  0.00  0.00    +0.000 A 
ATOM     10  C   UNL     1     -28.602  41.030  21.869  0.00  0.00    +0.000 A 
ATOM     11  C   UNL     1     -25.552  37.086  20.363  0.00  0.00    +0.000 A 
ATOM     12  C   UNL     1     -29.672  38.831  22.082  0.00  0.00    +0.000 C 
ATOM     13  C   UNL     1     -23.422  37.817  19.485  0.00  0.00    +0.000 A 
ATOM     14  C   UNL     1     -25.311  35.822  19.821  0.00  0.00    +0.000 A 
ATOM     15  C   UNL     1     -23.195  36.556  18.942  0.00  0.00    +0.000 A 
ATOM     16  C   UNL     1     -24.144  35.554  19.109  0.00  0.00    +0.000 A 
ENDROOT
BRANCH   3  17
ATOM     17  N   UNL     1     -25.256  42.274  20.864  0.00  0.00    +0.000 N 
ATOM     18  H   UNL     1     -24.520  42.332  21.584  0.00  0.00    +0.000 HD
BRANCH  17  19
ATOM     19  C   UNL     1     -25.609  43.517  20.199  0.00  0.00    +0.000 C 
ATOM     20  C   UNL     1     -25.982  44.828  19.499  0.00  0.00    +0.000 C 
BRANCH  20  21
ATOM     21  N   UNL     1     -26.347  46.070  18.838  0.00  0.00    +0.000 N 
BRANCH  21  22
ATOM     22  C   UNL     1     -25.508  46.194  17.660  0.00  0.00    +0.000 C 
ATOM     23  C   UNL     1     -24.616  46.338  16.424  0.00  0.00    +0.000 C 
ENDBRANCH  21  22
BRANCH  21  24
ATOM     24  C   UNL     1     -25.973  47.153  19.726  0.00  0.00    +0.000 C 
ATOM     25  C   UNL     1     -25.586  48.311  20.651  0.00  0.00    +0.000 C 
ENDBRANCH  21  24
ENDBRANCH  20  21
ENDBRANCH  17  19
ENDBRANCH   3  17
TORSDOF 5
ENDMDL
