MODEL 1
REMARK VINA RESULT:      -5.7      0.000      0.000
REMARK  Name = MeIQx.pdbqt.pdb
REMARK  0 active torsions:
REMARK  status: ('A' for Active; 'I' for Inactive)
REMARK                            x       y       z     vdW  Elec       q    Type
REMARK                         _______ _______ _______ _____ _____    ______ ____
ROOT
ATOM      1  N   UNL     1     -17.107  42.475   5.232  0.00  0.00    +0.000 N 
ATOM      2  N   UNL     1     -18.889  41.344   5.904  0.00  0.00    +0.000 NA
ATOM      3  N   UNL     1     -18.789  38.496   6.611  0.00  0.00    +0.000 NA
ATOM      4  N   UNL     1     -16.264  37.200   6.401  0.00  0.00    +0.000 NA
ATOM      5  C   UNL     1     -16.647  41.205   5.458  0.00  0.00    +0.000 A 
ATOM      6  C   UNL     1     -17.781  40.511   5.878  0.00  0.00    +0.000 A 
ATOM      7  C   UNL     1     -17.660  39.137   6.204  0.00  0.00    +0.000 A 
ATOM      8  C   UNL     1     -16.398  38.504   6.095  0.00  0.00    +0.000 A 
ATOM      9  C   UNL     1     -18.465  42.523   5.506  0.00  0.00    +0.000 A 
ATOM     10  C   UNL     1     -15.389  40.609   5.343  0.00  0.00    +0.000 A 
ATOM     11  C   UNL     1     -15.308  39.252   5.671  0.00  0.00    +0.000 A 
ATOM     12  C   UNL     1     -16.295  43.582   4.817  0.00  0.00    +0.000 C 
ATOM     13  C   UNL     1     -18.634  37.191   6.912  0.00  0.00    +0.000 A 
ATOM     14  C   UNL     1     -17.398  36.560   6.808  0.00  0.00    +0.000 A 
ATOM     15  C   UNL     1     -19.834  36.413   7.374  0.00  0.00    +0.000 C 
ATOM     16  N   UNL     1     -19.229  43.631   5.380  0.00  0.00    +0.000 N 
ATOM     17  H   UNL     1     -20.157  43.623   5.792  0.00  0.00    +0.000 HD
ATOM     18  H   UNL     1     -18.803  44.550   5.282  0.00  0.00    +0.000 HD
ENDROOT
TORSDOF 0
ENDMDL
MODEL 2
REMARK VINA RESULT:      -5.7      1.414      4.843
REMARK  Name = MeIQx.pdbqt.pdb
REMARK  0 active torsions:
REMARK  status: ('A' for Active; 'I' for Inactive)
REMARK                            x       y       z     vdW  Elec       q    Type
REMARK                         _______ _______ _______ _____ _____    ______ ____
ROOT
ATOM      1  N   UNL     1     -18.416  37.031   7.203  0.00  0.00    +0.000 N 
ATOM      2  N   UNL     1     -19.255  39.015   6.691  0.00  0.00    +0.000 NA
ATOM      3  N   UNL     1     -17.637  41.170   5.526  0.00  0.00    +0.000 NA
ATOM      4  N   UNL     1     -14.884  40.615   5.063  0.00  0.00    +0.000 NA
ATOM      5  C   UNL     1     -17.357  37.734   6.696  0.00  0.00    +0.000 A 
ATOM      6  C   UNL     1     -17.904  38.978   6.381  0.00  0.00    +0.000 A 
ATOM      7  C   UNL     1     -17.064  39.972   5.820  0.00  0.00    +0.000 A 
ATOM      8  C   UNL     1     -15.696  39.682   5.595  0.00  0.00    +0.000 A 
ATOM      9  C   UNL     1     -19.545  37.834   7.190  0.00  0.00    +0.000 A 
ATOM     10  C   UNL     1     -16.013  37.418   6.483  0.00  0.00    +0.000 A 
ATOM     11  C   UNL     1     -15.214  38.424   5.930  0.00  0.00    +0.000 A 
ATOM     12  C   UNL     1     -18.364  35.664   7.637  0.00  0.00    +0.000 C 
ATOM     13  C   UNL     1     -16.806  42.091   4.995  0.00  0.00    +0.000 A 
ATOM     14  C   UNL     1     -15.460  41.816   4.770  0.00  0.00    +0.000 A 
ATOM     15  C   UNL     1     -17.362  43.440   4.639  0.00  0.00    +0.000 C 
ATOM     16  N   UNL     1     -20.763  37.446   7.630  0.00  0.00    +0.000 N 
ATOM     17  H   UNL     1     -21.565  38.024   7.398  0.00  0.00    +0.000 HD
ATOM     18  H   UNL     1     -20.968  36.463   7.797  0.00  0.00    +0.000 HD
ENDROOT
TORSDOF 0
ENDMDL
MODEL 3
REMARK VINA RESULT:      -5.1     12.699     14.711
REMARK  Name = MeIQx.pdbqt.pdb
REMARK  0 active torsions:
REMARK  status: ('A' for Active; 'I' for Inactive)
REMARK                            x       y       z     vdW  Elec       q    Type
REMARK                         _______ _______ _______ _____ _____    ______ ____
ROOT
ATOM      1  N   UNL     1      -1.151  39.572   1.871  0.00  0.00    +0.000 N 
ATOM      2  N   UNL     1      -2.140  37.798   2.753  0.00  0.00    +0.000 NA
ATOM      3  N   UNL     1      -5.006  37.732   3.392  0.00  0.00    +0.000 NA
ATOM      4  N   UNL     1      -6.511  40.080   2.828  0.00  0.00    +0.000 NA
ATOM      5  C   UNL     1      -2.462  39.941   2.013  0.00  0.00    +0.000 A 
ATOM      6  C   UNL     1      -3.066  38.814   2.569  0.00  0.00    +0.000 A 
ATOM      7  C   UNL     1      -4.455  38.852   2.852  0.00  0.00    +0.000 A 
ATOM      8  C   UNL     1      -5.191  40.027   2.566  0.00  0.00    +0.000 A 
ATOM      9  C   UNL     1      -0.990  38.275   2.331  0.00  0.00    +0.000 A 
ATOM     10  C   UNL     1      -3.162  41.113   1.718  0.00  0.00    +0.000 A 
ATOM     11  C   UNL     1      -4.530  41.115   2.012  0.00  0.00    +0.000 A 
ATOM     12  C   UNL     1      -0.123  40.392   1.297  0.00  0.00    +0.000 C 
ATOM     13  C   UNL     1      -6.328  37.806   3.647  0.00  0.00    +0.000 A 
ATOM     14  C   UNL     1      -7.061  38.956   3.370  0.00  0.00    +0.000 A 
ATOM     15  C   UNL     1      -7.013  36.608   4.241  0.00  0.00    +0.000 C 
ATOM     16  N   UNL     1       0.185  37.608   2.338  0.00  0.00    +0.000 N 
ATOM     17  H   UNL     1       0.168  36.606   2.503  0.00  0.00    +0.000 HD
ATOM     18  H   UNL     1       0.981  37.948   1.803  0.00  0.00    +0.000 HD
ENDROOT
TORSDOF 0
ENDMDL
MODEL 4
REMARK VINA RESULT:      -5.0     22.543     23.826
REMARK  Name = MeIQx.pdbqt.pdb
REMARK  0 active torsions:
REMARK  status: ('A' for Active; 'I' for Inactive)
REMARK                            x       y       z     vdW  Elec       q    Type
REMARK                         _______ _______ _______ _____ _____    ______ ____
ROOT
ATOM      1  N   UNL     1      -0.202  29.016  18.268  0.00  0.00    +0.000 N 
ATOM      2  N   UNL     1      -2.168  28.291  17.553  0.00  0.00    +0.000 NA
ATOM      3  N   UNL     1      -4.125  27.002  19.324  0.00  0.00    +0.000 NA
ATOM      4  N   UNL     1      -3.395  26.706  22.058  0.00  0.00    +0.000 NA
ATOM      5  C   UNL     1      -0.802  28.490  19.380  0.00  0.00    +0.000 A 
ATOM      6  C   UNL     1      -2.036  28.039  18.910  0.00  0.00    +0.000 A 
ATOM      7  C   UNL     1      -2.932  27.426  19.821  0.00  0.00    +0.000 A 
ATOM      8  C   UNL     1      -2.556  27.286  21.179  0.00  0.00    +0.000 A 
ATOM      9  C   UNL     1      -1.051  28.876  17.182  0.00  0.00    +0.000 A 
ATOM     10  C   UNL     1      -0.405  28.367  20.713  0.00  0.00    +0.000 A 
ATOM     11  C   UNL     1      -1.314  27.756  21.583  0.00  0.00    +0.000 A 
ATOM     12  C   UNL     1       1.086  29.648  18.249  0.00  0.00    +0.000 C 
ATOM     13  C   UNL     1      -4.950  26.424  20.220  0.00  0.00    +0.000 A 
ATOM     14  C   UNL     1      -4.590  26.281  21.557  0.00  0.00    +0.000 A 
ATOM     15  C   UNL     1      -6.289  25.931  19.750  0.00  0.00    +0.000 C 
ATOM     16  N   UNL     1      -0.760  29.287  15.928  0.00  0.00    +0.000 N 
ATOM     17  H   UNL     1      -1.514  29.326  15.248  0.00  0.00    +0.000 HD
ATOM     18  H   UNL     1       0.017  29.921  15.754  0.00  0.00    +0.000 HD
ENDROOT
TORSDOF 0
ENDMDL
MODEL 5
REMARK VINA RESULT:      -4.9     24.522     25.234
REMARK  Name = MeIQx.pdbqt.pdb
REMARK  0 active torsions:
REMARK  status: ('A' for Active; 'I' for Inactive)
REMARK                            x       y       z     vdW  Elec       q    Type
REMARK                         _______ _______ _______ _____ _____    ______ ____
ROOT
ATOM      1  N   UNL     1      -8.358  48.018  25.908  0.00  0.00    +0.000 N 
ATOM      2  N   UNL     1      -7.038  49.743  26.339  0.00  0.00    +0.000 NA
ATOM      3  N   UNL     1      -4.130  49.479  26.652  0.00  0.00    +0.000 NA
ATOM      4  N   UNL     1      -3.032  46.868  26.376  0.00  0.00    +0.000 NA
ATOM      5  C   UNL     1      -7.100  47.483  25.978  0.00  0.00    +0.000 A 
ATOM      6  C   UNL     1      -6.285  48.582  26.250  0.00  0.00    +0.000 A 
ATOM      7  C   UNL     1      -4.889  48.382  26.388  0.00  0.00    +0.000 A 
ATOM      8  C   UNL     1      -4.357  47.077  26.248  0.00  0.00    +0.000 A 
ATOM      9  C   UNL     1      -8.286  49.383  26.135  0.00  0.00    +0.000 A 
ATOM     10  C   UNL     1      -6.603  46.186  25.832  0.00  0.00    +0.000 A 
ATOM     11  C   UNL     1      -5.221  46.025  25.977  0.00  0.00    +0.000 A 
ATOM     12  C   UNL     1      -9.550  47.280  25.605  0.00  0.00    +0.000 C 
ATOM     13  C   UNL     1      -2.807  49.248  26.777  0.00  0.00    +0.000 A 
ATOM     14  C   UNL     1      -2.274  47.970  26.642  0.00  0.00    +0.000 A 
ATOM     15  C   UNL     1      -1.900  50.410  27.065  0.00  0.00    +0.000 C 
ATOM     16  N   UNL     1      -9.353  50.213  26.141  0.00  0.00    +0.000 N 
ATOM     17  H   UNL     1      -9.183  51.214  26.116  0.00  0.00    +0.000 HD
ATOM     18  H   UNL     1     -10.249  49.913  25.764  0.00  0.00    +0.000 HD
ENDROOT
TORSDOF 0
ENDMDL
MODEL 6
REMARK VINA RESULT:      -4.8      1.821      3.207
REMARK  Name = MeIQx.pdbqt.pdb
REMARK  0 active torsions:
REMARK  status: ('A' for Active; 'I' for Inactive)
REMARK                            x       y       z     vdW  Elec       q    Type
REMARK                         _______ _______ _______ _____ _____    ______ ____
ROOT
ATOM      1  N   UNL     1     -20.037  43.038   4.726  0.00  0.00    +0.000 N 
ATOM      2  N   UNL     1     -19.920  40.926   5.380  0.00  0.00    +0.000 NA
ATOM      3  N   UNL     1     -17.369  39.530   5.792  0.00  0.00    +0.000 NA
ATOM      4  N   UNL     1     -14.990  41.015   5.309  0.00  0.00    +0.000 NA
ATOM      5  C   UNL     1     -18.696  42.771   4.796  0.00  0.00    +0.000 A 
ATOM      6  C   UNL     1     -18.643  41.440   5.208  0.00  0.00    +0.000 A 
ATOM      7  C   UNL     1     -17.377  40.829   5.388  0.00  0.00    +0.000 A 
ATOM      8  C   UNL     1     -16.201  41.580   5.144  0.00  0.00    +0.000 A 
ATOM      9  C   UNL     1     -20.747  41.902   5.080  0.00  0.00    +0.000 A 
ATOM     10  C   UNL     1     -17.554  43.537   4.551  0.00  0.00    +0.000 A 
ATOM     11  C   UNL     1     -16.322  42.901   4.736  0.00  0.00    +0.000 A 
ATOM     12  C   UNL     1     -20.605  44.309   4.379  0.00  0.00    +0.000 C 
ATOM     13  C   UNL     1     -16.147  38.983   5.951  0.00  0.00    +0.000 A 
ATOM     14  C   UNL     1     -14.985  39.712   5.714  0.00  0.00    +0.000 A 
ATOM     15  C   UNL     1     -16.052  37.552   6.399  0.00  0.00    +0.000 C 
ATOM     16  N   UNL     1     -22.096  41.825   5.109  0.00  0.00    +0.000 N 
ATOM     17  H   UNL     1     -22.521  41.026   5.570  0.00  0.00    +0.000 HD
ATOM     18  H   UNL     1     -22.668  42.666   5.080  0.00  0.00    +0.000 HD
ENDROOT
TORSDOF 0
ENDMDL
MODEL 7
REMARK VINA RESULT:      -4.7     31.797     32.468
REMARK  Name = MeIQx.pdbqt.pdb
REMARK  0 active torsions:
REMARK  status: ('A' for Active; 'I' for Inactive)
REMARK                            x       y       z     vdW  Elec       q    Type
REMARK                         _______ _______ _______ _____ _____    ______ ____
ROOT
ATOM      1  N   UNL     1       0.165  42.847  34.160  0.00  0.00    +0.000 N 
ATOM      2  N   UNL     1      -1.822  42.747  35.131  0.00  0.00    +0.000 NA
ATOM      3  N   UNL     1      -3.560  40.387  34.951  0.00  0.00    +0.000 NA
ATOM      4  N   UNL     1      -2.586  38.175  33.449  0.00  0.00    +0.000 NA
ATOM      5  C   UNL     1      -0.314  41.605  33.841  0.00  0.00    +0.000 A 
ATOM      6  C   UNL     1      -1.563  41.562  34.460  0.00  0.00    +0.000 A 
ATOM      7  C   UNL     1      -2.350  40.390  34.332  0.00  0.00    +0.000 A 
ATOM      8  C   UNL     1      -1.852  39.297  33.581  0.00  0.00    +0.000 A 
ATOM      9  C   UNL     1      -0.771  43.512  34.935  0.00  0.00    +0.000 A 
ATOM     10  C   UNL     1       0.203  40.542  33.097  0.00  0.00    +0.000 A 
ATOM     11  C   UNL     1      -0.601  39.403  32.990  0.00  0.00    +0.000 A 
ATOM     12  C   UNL     1       1.452  43.354  33.780  0.00  0.00    +0.000 C 
ATOM     13  C   UNL     1      -4.280  39.256  34.806  0.00  0.00    +0.000 A 
ATOM     14  C   UNL     1      -3.801  38.176  34.070  0.00  0.00    +0.000 A 
ATOM     15  C   UNL     1      -5.628  39.172  35.464  0.00  0.00    +0.000 C 
ATOM     16  N   UNL     1      -0.612  44.765  35.415  0.00  0.00    +0.000 N 
ATOM     17  H   UNL     1      -1.254  45.090  36.132  0.00  0.00    +0.000 HD
ATOM     18  H   UNL     1       0.301  45.213  35.413  0.00  0.00    +0.000 HD
ENDROOT
TORSDOF 0
ENDMDL
MODEL 8
REMARK VINA RESULT:      -4.7     21.197     22.999
REMARK  Name = MeIQx.pdbqt.pdb
REMARK  0 active torsions:
REMARK  status: ('A' for Active; 'I' for Inactive)
REMARK                            x       y       z     vdW  Elec       q    Type
REMARK                         _______ _______ _______ _____ _____    ______ ____
ROOT
ATOM      1  N   UNL     1      -0.921  28.209  18.903  0.00  0.00    +0.000 N 
ATOM      2  N   UNL     1      -1.877  27.472  17.047  0.00  0.00    +0.000 NA
ATOM      3  N   UNL     1      -4.605  26.387  16.988  0.00  0.00    +0.000 NA
ATOM      4  N   UNL     1      -6.019  26.310  19.457  0.00  0.00    +0.000 NA
ATOM      5  C   UNL     1      -2.166  27.795  19.295  0.00  0.00    +0.000 A 
ATOM      6  C   UNL     1      -2.750  27.335  18.115  0.00  0.00    +0.000 A 
ATOM      7  C   UNL     1      -4.072  26.824  18.160  0.00  0.00    +0.000 A 
ATOM      8  C   UNL     1      -4.763  26.792  19.396  0.00  0.00    +0.000 A 
ATOM      9  C   UNL     1      -0.778  27.996  17.541  0.00  0.00    +0.000 A 
ATOM     10  C   UNL     1      -2.824  27.777  20.527  0.00  0.00    +0.000 A 
ATOM     11  C   UNL     1      -4.125  27.265  20.534  0.00  0.00    +0.000 A 
ATOM     12  C   UNL     1       0.056  28.806  19.766  0.00  0.00    +0.000 C 
ATOM     13  C   UNL     1      -5.863  25.908  17.071  0.00  0.00    +0.000 A 
ATOM     14  C   UNL     1      -6.552  25.871  18.280  0.00  0.00    +0.000 A 
ATOM     15  C   UNL     1      -6.526  25.409  15.818  0.00  0.00    +0.000 C 
ATOM     16  N   UNL     1       0.337  28.291  16.837  0.00  0.00    +0.000 N 
ATOM     17  H   UNL     1       0.279  28.289  15.822  0.00  0.00    +0.000 HD
ATOM     18  H   UNL     1       1.060  28.889  17.230  0.00  0.00    +0.000 HD
ENDROOT
TORSDOF 0
ENDMDL
MODEL 9
REMARK VINA RESULT:      -4.6      1.965      2.561
REMARK  Name = MeIQx.pdbqt.pdb
REMARK  0 active torsions:
REMARK  status: ('A' for Active; 'I' for Inactive)
REMARK                            x       y       z     vdW  Elec       q    Type
REMARK                         _______ _______ _______ _____ _____    ______ ____
ROOT
ATOM      1  N   UNL     1     -20.563  41.631   5.252  0.00  0.00    +0.000 N 
ATOM      2  N   UNL     1     -21.082  39.715   6.232  0.00  0.00    +0.000 NA
ATOM      3  N   UNL     1     -19.078  37.671   6.886  0.00  0.00    +0.000 NA
ATOM      4  N   UNL     1     -16.376  38.245   6.201  0.00  0.00    +0.000 NA
ATOM      5  C   UNL     1     -19.370  40.972   5.378  0.00  0.00    +0.000 A 
ATOM      6  C   UNL     1     -19.718  39.770   5.995  0.00  0.00    +0.000 A 
ATOM      7  C   UNL     1     -18.698  38.829   6.282  0.00  0.00    +0.000 A 
ATOM      8  C   UNL     1     -17.357  39.128   5.936  0.00  0.00    +0.000 A 
ATOM      9  C   UNL     1     -21.577  40.843   5.773  0.00  0.00    +0.000 A 
ATOM     10  C   UNL     1     -18.057  41.295   5.027  0.00  0.00    +0.000 A 
ATOM     11  C   UNL     1     -17.078  40.342   5.323  0.00  0.00    +0.000 A 
ATOM     12  C   UNL     1     -20.722  42.947   4.703  0.00  0.00    +0.000 C 
ATOM     13  C   UNL     1     -18.080  36.800   7.142  0.00  0.00    +0.000 A 
ATOM     14  C   UNL     1     -16.760  37.084   6.805  0.00  0.00    +0.000 A 
ATOM     15  C   UNL     1     -18.418  35.498   7.811  0.00  0.00    +0.000 C 
ATOM     16  N   UNL     1     -22.881  41.197   5.800  0.00  0.00    +0.000 N 
ATOM     17  H   UNL     1     -23.515  40.651   6.376  0.00  0.00    +0.000 HD
ATOM     18  H   UNL     1     -23.164  42.160   5.633  0.00  0.00    +0.000 HD
ENDROOT
TORSDOF 0
ENDMDL
