MODEL 1
REMARK VINA RESULT:      -5.6      0.000      0.000
REMARK  Name = Monobenzone.pdbqt.pdb
REMARK  4 active torsions:
REMARK  status: ('A' for Active; 'I' for Inactive)
REMARK    1  A    between atoms: C_1  and  O_7
REMARK    2  A    between atoms: C_6  and  O_15
REMARK    3  A    between atoms: O_7  and  C_8
REMARK    4  A    between atoms: C_8  and  C_9
REMARK                            x       y       z     vdW  Elec       q    Type
REMARK                         _______ _______ _______ _____ _____    ______ ____
ROOT
ATOM      1  C   UNL     1      -4.261  45.419  26.930  0.00  0.00    +0.000 A 
ATOM      2  C   UNL     1      -3.723  45.286  28.212  0.00  0.00    +0.000 A 
ATOM      3  C   UNL     1      -3.497  45.998  25.916  0.00  0.00    +0.000 A 
ATOM      4  C   UNL     1      -2.430  45.728  28.480  0.00  0.00    +0.000 A 
ATOM      5  C   UNL     1      -2.203  46.442  26.178  0.00  0.00    +0.000 A 
ATOM      6  C   UNL     1      -1.680  46.303  27.459  0.00  0.00    +0.000 A 
ENDROOT
BRANCH   6   7
ATOM      7  O   UNL     1      -0.410  46.744  27.693  0.00  0.00    +0.000 OA
ATOM      8  H   UNL     1      -0.357  47.677  27.423  0.00  0.00    +0.000 HD
ENDBRANCH   6   7
BRANCH   1   9
ATOM      9  O   UNL     1      -5.523  45.014  26.571  0.00  0.00    +0.000 OA
BRANCH   9  10
ATOM     10  C   UNL     1      -6.235  45.923  25.911  0.00  0.00    +0.000 C 
BRANCH  10  11
ATOM     11  C   UNL     1      -6.998  46.908  25.216  0.00  0.00    +0.000 A 
ATOM     12  C   UNL     1      -6.365  48.032  24.690  0.00  0.00    +0.000 A 
ATOM     13  C   UNL     1      -7.112  48.996  24.016  0.00  0.00    +0.000 A 
ATOM     14  C   UNL     1      -8.487  48.834  23.869  0.00  0.00    +0.000 A 
ATOM     15  C   UNL     1      -9.118  47.708  24.394  0.00  0.00    +0.000 A 
ATOM     16  C   UNL     1      -8.374  46.744  25.069  0.00  0.00    +0.000 A 
ENDBRANCH  10  11
ENDBRANCH   9  10
ENDBRANCH   1   9
TORSDOF 4
ENDMDL
MODEL 2
REMARK VINA RESULT:      -5.2      3.874      6.728
REMARK  Name = Monobenzone.pdbqt.pdb
REMARK  4 active torsions:
REMARK  status: ('A' for Active; 'I' for Inactive)
REMARK    1  A    between atoms: C_1  and  O_7
REMARK    2  A    between atoms: C_6  and  O_15
REMARK    3  A    between atoms: O_7  and  C_8
REMARK    4  A    between atoms: C_8  and  C_9
REMARK                            x       y       z     vdW  Elec       q    Type
REMARK                         _______ _______ _______ _____ _____    ______ ____
ROOT
ATOM      1  C   UNL     1      -6.417  48.711  25.571  0.00  0.00    +0.000 A 
ATOM      2  C   UNL     1      -7.285  49.462  26.368  0.00  0.00    +0.000 A 
ATOM      3  C   UNL     1      -6.739  48.472  24.234  0.00  0.00    +0.000 A 
ATOM      4  C   UNL     1      -8.466  49.971  25.833  0.00  0.00    +0.000 A 
ATOM      5  C   UNL     1      -7.919  48.977  23.695  0.00  0.00    +0.000 A 
ATOM      6  C   UNL     1      -8.773  49.724  24.499  0.00  0.00    +0.000 A 
ENDROOT
BRANCH   6   7
ATOM      7  O   UNL     1      -9.923  50.210  23.949  0.00  0.00    +0.000 OA
ATOM      8  H   UNL     1      -9.786  51.149  23.734  0.00  0.00    +0.000 HD
ENDBRANCH   6   7
BRANCH   1   9
ATOM      9  O   UNL     1      -5.234  48.171  26.008  0.00  0.00    +0.000 OA
BRANCH   9  10
ATOM     10  C   UNL     1      -4.353  49.054  26.472  0.00  0.00    +0.000 C 
BRANCH  10  11
ATOM     11  C   UNL     1      -3.421  50.008  26.978  0.00  0.00    +0.000 A 
ATOM     12  C   UNL     1      -2.091  49.963  26.566  0.00  0.00    +0.000 A 
ATOM     13  C   UNL     1      -1.180  50.892  27.064  0.00  0.00    +0.000 A 
ATOM     14  C   UNL     1      -1.600  51.862  27.971  0.00  0.00    +0.000 A 
ATOM     15  C   UNL     1      -2.931  51.905  28.380  0.00  0.00    +0.000 A 
ATOM     16  C   UNL     1      -3.843  50.978  27.884  0.00  0.00    +0.000 A 
ENDBRANCH  10  11
ENDBRANCH   9  10
ENDBRANCH   1   9
TORSDOF 4
ENDMDL
MODEL 3
REMARK VINA RESULT:      -5.1     23.794     24.937
REMARK  Name = Monobenzone.pdbqt.pdb
REMARK  4 active torsions:
REMARK  status: ('A' for Active; 'I' for Inactive)
REMARK    1  A    between atoms: C_1  and  O_7
REMARK    2  A    between atoms: C_6  and  O_15
REMARK    3  A    between atoms: O_7  and  C_8
REMARK    4  A    between atoms: C_8  and  C_9
REMARK                            x       y       z     vdW  Elec       q    Type
REMARK                         _______ _______ _______ _____ _____    ______ ____
ROOT
ATOM      1  C   UNL     1     -17.580  37.361   6.967  0.00  0.00    +0.000 A 
ATOM      2  C   UNL     1     -18.703  38.185   7.073  0.00  0.00    +0.000 A 
ATOM      3  C   UNL     1     -17.722  35.978   7.099  0.00  0.00    +0.000 A 
ATOM      4  C   UNL     1     -19.960  37.632   7.309  0.00  0.00    +0.000 A 
ATOM      5  C   UNL     1     -18.976  35.421   7.336  0.00  0.00    +0.000 A 
ATOM      6  C   UNL     1     -20.086  36.253   7.439  0.00  0.00    +0.000 A 
ENDROOT
BRANCH   6   7
ATOM      7  O   UNL     1     -21.304  35.685   7.670  0.00  0.00    +0.000 OA
ATOM      8  H   UNL     1     -21.955  36.110   7.086  0.00  0.00    +0.000 HD
ENDBRANCH   6   7
BRANCH   1   9
ATOM      9  O   UNL     1     -16.305  37.812   6.735  0.00  0.00    +0.000 OA
BRANCH   9  10
ATOM     10  C   UNL     1     -16.223  39.082   6.349  0.00  0.00    +0.000 C 
BRANCH  10  11
ATOM     11  C   UNL     1     -16.136  40.440   5.919  0.00  0.00    +0.000 A 
ATOM     12  C   UNL     1     -17.263  41.257   5.972  0.00  0.00    +0.000 A 
ATOM     13  C   UNL     1     -17.179  42.581   5.547  0.00  0.00    +0.000 A 
ATOM     14  C   UNL     1     -15.970  43.084   5.071  0.00  0.00    +0.000 A 
ATOM     15  C   UNL     1     -14.845  42.265   5.020  0.00  0.00    +0.000 A 
ATOM     16  C   UNL     1     -14.926  40.942   5.444  0.00  0.00    +0.000 A 
ENDBRANCH  10  11
ENDBRANCH   9  10
ENDBRANCH   1   9
TORSDOF 4
ENDMDL
MODEL 4
REMARK VINA RESULT:      -5.0     14.458     16.190
REMARK  Name = Monobenzone.pdbqt.pdb
REMARK  4 active torsions:
REMARK  status: ('A' for Active; 'I' for Inactive)
REMARK    1  A    between atoms: C_1  and  O_7
REMARK    2  A    between atoms: C_6  and  O_15
REMARK    3  A    between atoms: O_7  and  C_8
REMARK    4  A    between atoms: C_8  and  C_9
REMARK                            x       y       z     vdW  Elec       q    Type
REMARK                         _______ _______ _______ _____ _____    ______ ____
ROOT
ATOM      1  C   UNL     1       2.665  55.212  17.003  0.00  0.00    +0.000 A 
ATOM      2  C   UNL     1       2.811  56.076  15.915  0.00  0.00    +0.000 A 
ATOM      3  C   UNL     1       2.808  53.836  16.816  0.00  0.00    +0.000 A 
ATOM      4  C   UNL     1       3.098  55.570  14.650  0.00  0.00    +0.000 A 
ATOM      5  C   UNL     1       3.093  53.324  15.553  0.00  0.00    +0.000 A 
ATOM      6  C   UNL     1       3.237  54.196  14.479  0.00  0.00    +0.000 A 
ENDROOT
BRANCH   6   7
ATOM      7  O   UNL     1       3.517  53.673  13.251  0.00  0.00    +0.000 OA
ATOM      8  H   UNL     1       3.064  52.815  13.174  0.00  0.00    +0.000 HD
ENDBRANCH   6   7
BRANCH   1   9
ATOM      9  O   UNL     1       2.384  55.616  18.284  0.00  0.00    +0.000 OA
BRANCH   9  10
ATOM     10  C   UNL     1       3.448  55.933  19.017  0.00  0.00    +0.000 C 
BRANCH  10  11
ATOM     11  C   UNL     1       4.595  56.282  19.791  0.00  0.00    +0.000 A 
ATOM     12  C   UNL     1       4.438  56.983  20.984  0.00  0.00    +0.000 A 
ATOM     13  C   UNL     1       5.558  57.329  21.737  0.00  0.00    +0.000 A 
ATOM     14  C   UNL     1       6.830  56.973  21.296  0.00  0.00    +0.000 A 
ATOM     15  C   UNL     1       6.984  56.271  20.102  0.00  0.00    +0.000 A 
ATOM     16  C   UNL     1       5.866  55.925  19.348  0.00  0.00    +0.000 A 
ENDBRANCH  10  11
ENDBRANCH   9  10
ENDBRANCH   1   9
TORSDOF 4
ENDMDL
MODEL 5
REMARK VINA RESULT:      -4.9      3.025      6.933
REMARK  Name = Monobenzone.pdbqt.pdb
REMARK  4 active torsions:
REMARK  status: ('A' for Active; 'I' for Inactive)
REMARK    1  A    between atoms: C_1  and  O_7
REMARK    2  A    between atoms: C_6  and  O_15
REMARK    3  A    between atoms: O_7  and  C_8
REMARK    4  A    between atoms: C_8  and  C_9
REMARK                            x       y       z     vdW  Elec       q    Type
REMARK                         _______ _______ _______ _____ _____    ______ ____
ROOT
ATOM      1  C   UNL     1      -9.323  48.243  24.649  0.00  0.00    +0.000 A 
ATOM      2  C   UNL     1      -9.518  47.323  25.681  0.00  0.00    +0.000 A 
ATOM      3  C   UNL     1     -10.346  49.130  24.311  0.00  0.00    +0.000 A 
ATOM      4  C   UNL     1     -10.726  47.289  26.372  0.00  0.00    +0.000 A 
ATOM      5  C   UNL     1     -11.557  49.100  24.998  0.00  0.00    +0.000 A 
ATOM      6  C   UNL     1     -11.737  48.179  26.025  0.00  0.00    +0.000 A 
ENDROOT
BRANCH   6   7
ATOM      7  O   UNL     1     -12.930  48.168  26.685  0.00  0.00    +0.000 OA
ATOM      8  H   UNL     1     -13.142  47.248  26.918  0.00  0.00    +0.000 HD
ENDBRANCH   6   7
BRANCH   1   9
ATOM      9  O   UNL     1      -8.169  48.352  23.912  0.00  0.00    +0.000 OA
BRANCH   9  10
ATOM     10  C   UNL     1      -7.051  48.081  24.581  0.00  0.00    +0.000 C 
BRANCH  10  11
ATOM     11  C   UNL     1      -5.854  47.805  25.305  0.00  0.00    +0.000 A 
ATOM     12  C   UNL     1      -5.322  46.518  25.299  0.00  0.00    +0.000 A 
ATOM     13  C   UNL     1      -4.154  46.247  26.011  0.00  0.00    +0.000 A 
ATOM     14  C   UNL     1      -3.523  47.263  26.725  0.00  0.00    +0.000 A 
ATOM     15  C   UNL     1      -4.057  48.550  26.728  0.00  0.00    +0.000 A 
ATOM     16  C   UNL     1      -5.223  48.822  26.018  0.00  0.00    +0.000 A 
ENDBRANCH  10  11
ENDBRANCH   9  10
ENDBRANCH   1   9
TORSDOF 4
ENDMDL
MODEL 6
REMARK VINA RESULT:      -4.9     20.670     22.138
REMARK  Name = Monobenzone.pdbqt.pdb
REMARK  4 active torsions:
REMARK  status: ('A' for Active; 'I' for Inactive)
REMARK    1  A    between atoms: C_1  and  O_7
REMARK    2  A    between atoms: C_6  and  O_15
REMARK    3  A    between atoms: O_7  and  C_8
REMARK    4  A    between atoms: C_8  and  C_9
REMARK                            x       y       z     vdW  Elec       q    Type
REMARK                         _______ _______ _______ _____ _____    ______ ____
ROOT
ATOM      1  C   UNL     1     -24.519  41.885  19.653  0.00  0.00    +0.000 A 
ATOM      2  C   UNL     1     -24.878  41.545  18.346  0.00  0.00    +0.000 A 
ATOM      3  C   UNL     1     -24.222  43.212  19.965  0.00  0.00    +0.000 A 
ATOM      4  C   UNL     1     -24.941  42.525  17.359  0.00  0.00    +0.000 A 
ATOM      5  C   UNL     1     -24.282  44.196  18.981  0.00  0.00    +0.000 A 
ATOM      6  C   UNL     1     -24.642  43.844  17.685  0.00  0.00    +0.000 A 
ENDROOT
BRANCH   6   7
ATOM      7  O   UNL     1     -24.696  44.824  16.737  0.00  0.00    +0.000 OA
ATOM      8  H   UNL     1     -24.692  45.685  17.189  0.00  0.00    +0.000 HD
ENDBRANCH   6   7
BRANCH   1   9
ATOM      9  O   UNL     1     -24.430  40.992  20.691  0.00  0.00    +0.000 OA
BRANCH   9  10
ATOM     10  C   UNL     1     -24.363  39.714  20.326  0.00  0.00    +0.000 C 
BRANCH  10  11
ATOM     11  C   UNL     1     -24.302  38.341  19.945  0.00  0.00    +0.000 A 
ATOM     12  C   UNL     1     -23.129  37.825  19.399  0.00  0.00    +0.000 A 
ATOM     13  C   UNL     1     -23.071  36.484  19.023  0.00  0.00    +0.000 A 
ATOM     14  C   UNL     1     -24.184  35.665  19.193  0.00  0.00    +0.000 A 
ATOM     15  C   UNL     1     -25.356  36.183  19.740  0.00  0.00    +0.000 A 
ATOM     16  C   UNL     1     -25.416  37.522  20.117  0.00  0.00    +0.000 A 
ENDBRANCH  10  11
ENDBRANCH   9  10
ENDBRANCH   1   9
TORSDOF 4
ENDMDL
MODEL 7
REMARK VINA RESULT:      -4.7      4.173      5.322
REMARK  Name = Monobenzone.pdbqt.pdb
REMARK  4 active torsions:
REMARK  status: ('A' for Active; 'I' for Inactive)
REMARK    1  A    between atoms: C_1  and  O_7
REMARK    2  A    between atoms: C_6  and  O_15
REMARK    3  A    between atoms: O_7  and  C_8
REMARK    4  A    between atoms: C_8  and  C_9
REMARK                            x       y       z     vdW  Elec       q    Type
REMARK                         _______ _______ _______ _____ _____    ______ ____
ROOT
ATOM      1  C   UNL     1      -3.105  50.880  27.564  0.00  0.00    +0.000 A 
ATOM      2  C   UNL     1      -1.988  50.415  26.865  0.00  0.00    +0.000 A 
ATOM      3  C   UNL     1      -2.986  51.995  28.395  0.00  0.00    +0.000 A 
ATOM      4  C   UNL     1      -0.761  51.060  26.995  0.00  0.00    +0.000 A 
ATOM      5  C   UNL     1      -1.761  52.643  28.529  0.00  0.00    +0.000 A 
ATOM      6  C   UNL     1      -0.658  52.170  27.827  0.00  0.00    +0.000 A 
ENDROOT
BRANCH   6   7
ATOM      7  O   UNL     1       0.532  52.822  27.974  0.00  0.00    +0.000 OA
ATOM      8  H   UNL     1       1.247  52.215  27.714  0.00  0.00    +0.000 HD
ENDBRANCH   6   7
BRANCH   1   9
ATOM      9  O   UNL     1      -4.353  50.312  27.499  0.00  0.00    +0.000 OA
BRANCH   9  10
ATOM     10  C   UNL     1      -4.382  49.083  26.990  0.00  0.00    +0.000 C 
BRANCH  10  11
ATOM     11  C   UNL     1      -4.429  47.765  26.446  0.00  0.00    +0.000 A 
ATOM     12  C   UNL     1      -5.635  47.255  25.970  0.00  0.00    +0.000 A 
ATOM     13  C   UNL     1      -5.682  45.966  25.443  0.00  0.00    +0.000 A 
ATOM     14  C   UNL     1      -4.526  45.192  25.392  0.00  0.00    +0.000 A 
ATOM     15  C   UNL     1      -3.321  45.705  25.868  0.00  0.00    +0.000 A 
ATOM     16  C   UNL     1      -3.272  46.992  26.395  0.00  0.00    +0.000 A 
ENDBRANCH  10  11
ENDBRANCH   9  10
ENDBRANCH   1   9
TORSDOF 4
ENDMDL
MODEL 8
REMARK VINA RESULT:      -4.6     13.914     15.514
REMARK  Name = Monobenzone.pdbqt.pdb
REMARK  4 active torsions:
REMARK  status: ('A' for Active; 'I' for Inactive)
REMARK    1  A    between atoms: C_1  and  O_7
REMARK    2  A    between atoms: C_6  and  O_15
REMARK    3  A    between atoms: O_7  and  C_8
REMARK    4  A    between atoms: C_8  and  C_9
REMARK                            x       y       z     vdW  Elec       q    Type
REMARK                         _______ _______ _______ _____ _____    ______ ____
ROOT
ATOM      1  C   UNL     1       3.399  54.932  16.493  0.00  0.00    +0.000 A 
ATOM      2  C   UNL     1       3.884  55.337  15.246  0.00  0.00    +0.000 A 
ATOM      3  C   UNL     1       4.016  53.874  17.163  0.00  0.00    +0.000 A 
ATOM      4  C   UNL     1       4.976  54.691  14.674  0.00  0.00    +0.000 A 
ATOM      5  C   UNL     1       5.108  53.224  16.595  0.00  0.00    +0.000 A 
ATOM      6  C   UNL     1       5.580  53.639  15.354  0.00  0.00    +0.000 A 
ENDROOT
BRANCH   6   7
ATOM      7  O   UNL     1       6.653  52.988  14.818  0.00  0.00    +0.000 OA
ATOM      8  H   UNL     1       6.603  53.064  13.849  0.00  0.00    +0.000 HD
ENDBRANCH   6   7
BRANCH   1   9
ATOM      9  O   UNL     1       2.331  55.506  17.135  0.00  0.00    +0.000 OA
BRANCH   9  10
ATOM     10  C   UNL     1       2.589  55.951  18.362  0.00  0.00    +0.000 C 
BRANCH  10  11
ATOM     11  C   UNL     1       2.851  56.430  19.680  0.00  0.00    +0.000 A 
ATOM     12  C   UNL     1       1.791  56.690  20.546  0.00  0.00    +0.000 A 
ATOM     13  C   UNL     1       2.046  57.164  21.831  0.00  0.00    +0.000 A 
ATOM     14  C   UNL     1       3.359  57.376  22.247  0.00  0.00    +0.000 A 
ATOM     15  C   UNL     1       4.417  57.114  21.379  0.00  0.00    +0.000 A 
ATOM     16  C   UNL     1       4.164  56.641  20.094  0.00  0.00    +0.000 A 
ENDBRANCH  10  11
ENDBRANCH   9  10
ENDBRANCH   1   9
TORSDOF 4
ENDMDL
MODEL 9
REMARK VINA RESULT:      -4.5      3.105      6.611
REMARK  Name = Monobenzone.pdbqt.pdb
REMARK  4 active torsions:
REMARK  status: ('A' for Active; 'I' for Inactive)
REMARK    1  A    between atoms: C_1  and  O_7
REMARK    2  A    between atoms: C_6  and  O_15
REMARK    3  A    between atoms: O_7  and  C_8
REMARK    4  A    between atoms: C_8  and  C_9
REMARK                            x       y       z     vdW  Elec       q    Type
REMARK                         _______ _______ _______ _____ _____    ______ ____
ROOT
ATOM      1  C   UNL     1      -8.926  48.611  25.351  0.00  0.00    +0.000 A 
ATOM      2  C   UNL     1      -9.860  48.426  26.373  0.00  0.00    +0.000 A 
ATOM      3  C   UNL     1      -8.550  49.904  24.984  0.00  0.00    +0.000 A 
ATOM      4  C   UNL     1     -10.413  49.525  27.026  0.00  0.00    +0.000 A 
ATOM      5  C   UNL     1      -9.100  51.006  25.632  0.00  0.00    +0.000 A 
ATOM      6  C   UNL     1     -10.028  50.807  26.649  0.00  0.00    +0.000 A 
ENDROOT
BRANCH   6   7
ATOM      7  O   UNL     1     -10.553  51.902  27.271  0.00  0.00    +0.000 OA
ATOM      8  H   UNL     1     -11.506  51.936  27.077  0.00  0.00    +0.000 HD
ENDBRANCH   6   7
BRANCH   1   9
ATOM      9  O   UNL     1      -8.328  47.592  24.652  0.00  0.00    +0.000 OA
BRANCH   9  10
ATOM     10  C   UNL     1      -7.436  46.888  25.344  0.00  0.00    +0.000 C 
BRANCH  10  11
ATOM     11  C   UNL     1      -6.490  46.134  26.100  0.00  0.00    +0.000 A 
ATOM     12  C   UNL     1      -6.763  45.809  27.426  0.00  0.00    +0.000 A 
ATOM     13  C   UNL     1      -5.836  45.077  28.166  0.00  0.00    +0.000 A 
ATOM     14  C   UNL     1      -4.640  44.674  27.578  0.00  0.00    +0.000 A 
ATOM     15  C   UNL     1      -4.369  45.000  26.251  0.00  0.00    +0.000 A 
ATOM     16  C   UNL     1      -5.294  45.731  25.510  0.00  0.00    +0.000 A 
ENDBRANCH  10  11
ENDBRANCH   9  10
ENDBRANCH   1   9
TORSDOF 4
ENDMDL
