MODEL 1
REMARK VINA RESULT:      -6.6      0.000      0.000
REMARK  Name = OTSSP167.pdbqt.pdb
REMARK  7 active torsions:
REMARK  status: ('A' for Active; 'I' for Inactive)
REMARK    1  A    between atoms: C_5  and  N_19
REMARK    2  A    between atoms: C_7  and  C_31
REMARK    3  A    between atoms: C_11  and  C_13
REMARK    4  A    between atoms: C_18  and  O_34
REMARK    5  A    between atoms: N_19  and  C_21
REMARK    6  A    between atoms: C_24  and  C_27
REMARK    7  A    between atoms: C_27  and  N_28
REMARK                            x       y       z     vdW  Elec       q    Type
REMARK                         _______ _______ _______ _____ _____    ______ ____
ROOT
ATOM      1  N   UNL     1       9.348  43.619   8.590  0.00  0.00    +0.000 NA
ATOM      2  N   UNL     1      11.664  41.472  10.427  0.00  0.00    +0.000 NA
ATOM      3  C   UNL     1       9.134  41.274   9.208  0.00  0.00    +0.000 A 
ATOM      4  C   UNL     1       9.847  42.501   9.174  0.00  0.00    +0.000 A 
ATOM      5  C   UNL     1       9.725  40.176   9.867  0.00  0.00    +0.000 A 
ATOM      6  C   UNL     1      11.107  42.526   9.809  0.00  0.00    +0.000 A 
ATOM      7  C   UNL     1      10.965  40.322  10.447  0.00  0.00    +0.000 A 
ATOM      8  C   UNL     1      11.805  43.719   9.791  0.00  0.00    +0.000 A 
ATOM      9  C   UNL     1      10.058  44.774   8.579  0.00  0.00    +0.000 A 
ATOM     10  C   UNL     1      11.299  44.857   9.179  0.00  0.00    +0.000 A 
ENDROOT
BRANCH   9  13
ATOM     11 CL   UNL     1       7.335  49.152   8.914  0.00  0.00    +0.000 Cl
ATOM     12 CL   UNL     1       8.983  47.155   4.119  0.00  0.00    +0.000 Cl
ATOM     13  C   UNL     1       9.438  45.906   7.886  0.00  0.00    +0.000 A 
ATOM     14  C   UNL     1       9.477  46.027   6.492  0.00  0.00    +0.000 A 
ATOM     15  C   UNL     1       8.768  46.906   8.602  0.00  0.00    +0.000 A 
ATOM     16  C   UNL     1       8.158  47.980   7.958  0.00  0.00    +0.000 A 
ATOM     17  C   UNL     1       8.874  47.102   5.837  0.00  0.00    +0.000 A 
ATOM     18  C   UNL     1       8.209  48.085   6.569  0.00  0.00    +0.000 A 
BRANCH  18  19
ATOM     19  O   UNL     1       7.616  49.136   5.920  0.00  0.00    +0.000 OA
ATOM     20  H   UNL     1       6.993  48.777   5.261  0.00  0.00    +0.000 HD
ENDBRANCH  18  19
ENDBRANCH   9  13
BRANCH   5  21
ATOM     21  C   UNL     1       9.066  38.879  10.005  0.00  0.00    +0.000 C 
ATOM     22  O   UNL     1       8.153  38.637  10.777  0.00  0.00    +0.000 OA
ATOM     23  C   UNL     1       9.464  37.653   9.241  0.00  0.00    +0.000 C 
ENDBRANCH   5  21
BRANCH   3  24
ATOM     24  N   UNL     1       7.895  41.073   8.518  0.00  0.00    +0.000 N 
ATOM     25  H   UNL     1       7.069  41.408   9.023  0.00  0.00    +0.000 HD
BRANCH  24  26
ATOM     26  C   UNL     1       7.695  40.945   7.172  0.00  0.00    +0.000 A 
ATOM     27  C   UNL     1       6.639  41.723   6.577  0.00  0.00    +0.000 A 
ATOM     28  C   UNL     1       5.648  41.238   5.487  0.00  0.00    +0.000 A 
ATOM     29  C   UNL     1       5.637  39.914   4.912  0.00  0.00    +0.000 A 
ATOM     30  C   UNL     1       6.677  39.126   5.523  0.00  0.00    +0.000 A 
ATOM     31  C   UNL     1       7.663  39.615   6.613  0.00  0.00    +0.000 A 
BRANCH  29  32
ATOM     32  C   UNL     1       4.835  39.501   3.826  0.00  0.00    +0.000 C 
BRANCH  32  33
ATOM     33  N   UNL     1       3.994  39.084   2.717  0.00  0.00    +0.000 NA
ATOM     34  C   UNL     1       2.770  39.865   2.782  0.00  0.00    +0.000 C 
ATOM     35  C   UNL     1       3.627  37.697   2.950  0.00  0.00    +0.000 C 
ENDBRANCH  32  33
ENDBRANCH  29  32
ENDBRANCH  24  26
ENDBRANCH   3  24
TORSDOF 7
ENDMDL
MODEL 2
REMARK VINA RESULT:      -6.5     22.852     27.135
REMARK  Name = OTSSP167.pdbqt.pdb
REMARK  7 active torsions:
REMARK  status: ('A' for Active; 'I' for Inactive)
REMARK    1  A    between atoms: C_5  and  N_19
REMARK    2  A    between atoms: C_7  and  C_31
REMARK    3  A    between atoms: C_11  and  C_13
REMARK    4  A    between atoms: C_18  and  O_34
REMARK    5  A    between atoms: N_19  and  C_21
REMARK    6  A    between atoms: C_24  and  C_27
REMARK    7  A    between atoms: C_27  and  N_28
REMARK                            x       y       z     vdW  Elec       q    Type
REMARK                         _______ _______ _______ _____ _____    ______ ____
ROOT
ATOM      1  N   UNL     1     -18.524  39.168   5.865  0.00  0.00    +0.000 NA
ATOM      2  N   UNL     1     -18.714  42.806   5.581  0.00  0.00    +0.000 NA
ATOM      3  C   UNL     1     -16.929  40.737   4.903  0.00  0.00    +0.000 A 
ATOM      4  C   UNL     1     -18.163  40.434   5.538  0.00  0.00    +0.000 A 
ATOM      5  C   UNL     1     -16.632  42.088   4.632  0.00  0.00    +0.000 A 
ATOM      6  C   UNL     1     -19.005  41.523   5.850  0.00  0.00    +0.000 A 
ATOM      7  C   UNL     1     -17.537  43.065   4.982  0.00  0.00    +0.000 A 
ATOM      8  C   UNL     1     -20.204  41.241   6.479  0.00  0.00    +0.000 A 
ATOM      9  C   UNL     1     -19.709  38.919   6.473  0.00  0.00    +0.000 A 
ATOM     10  C   UNL     1     -20.577  39.943   6.798  0.00  0.00    +0.000 A 
ENDROOT
BRANCH   9  13
ATOM     11 CL   UNL     1     -23.295  35.307   7.364  0.00  0.00    +0.000 Cl
ATOM     12 CL   UNL     1     -17.978  34.117   7.286  0.00  0.00    +0.000 Cl
ATOM     13  C   UNL     1     -20.012  37.511   6.744  0.00  0.00    +0.000 A 
ATOM     14  C   UNL     1     -19.002  36.552   6.875  0.00  0.00    +0.000 A 
ATOM     15  C   UNL     1     -21.336  37.078   6.895  0.00  0.00    +0.000 A 
ATOM     16  C   UNL     1     -21.642  35.748   7.170  0.00  0.00    +0.000 A 
ATOM     17  C   UNL     1     -19.296  35.215   7.145  0.00  0.00    +0.000 A 
ATOM     18  C   UNL     1     -20.622  34.806   7.296  0.00  0.00    +0.000 A 
BRANCH  18  19
ATOM     19  O   UNL     1     -20.905  33.493   7.565  0.00  0.00    +0.000 OA
ATOM     20  H   UNL     1     -21.873  33.378   7.546  0.00  0.00    +0.000 HD
ENDBRANCH  18  19
ENDBRANCH   9  13
BRANCH   5  21
ATOM     21  C   UNL     1     -15.375  42.522   4.025  0.00  0.00    +0.000 C 
ATOM     22  O   UNL     1     -14.267  42.139   4.361  0.00  0.00    +0.000 OA
ATOM     23  C   UNL     1     -15.283  43.544   2.933  0.00  0.00    +0.000 C 
ENDBRANCH   5  21
BRANCH   3  24
ATOM     24  N   UNL     1     -16.026  39.729   4.435  0.00  0.00    +0.000 N 
ATOM     25  H   UNL     1     -15.135  40.089   4.081  0.00  0.00    +0.000 HD
BRANCH  24  26
ATOM     26  C   UNL     1     -15.973  38.413   4.802  0.00  0.00    +0.000 A 
ATOM     27  C   UNL     1     -15.062  38.051   5.858  0.00  0.00    +0.000 A 
ATOM     28  C   UNL     1     -14.167  36.786   5.899  0.00  0.00    +0.000 A 
ATOM     29  C   UNL     1     -14.111  35.781   4.865  0.00  0.00    +0.000 A 
ATOM     30  C   UNL     1     -15.003  36.153   3.796  0.00  0.00    +0.000 A 
ATOM     31  C   UNL     1     -15.894  37.420   3.759  0.00  0.00    +0.000 A 
BRANCH  29  32
ATOM     32  C   UNL     1     -13.407  34.559   4.949  0.00  0.00    +0.000 C 
BRANCH  32  33
ATOM     33  N   UNL     1     -12.667  33.312   5.037  0.00  0.00    +0.000 NA
ATOM     34  C   UNL     1     -11.528  33.544   5.911  0.00  0.00    +0.000 C 
ATOM     35  C   UNL     1     -12.137  33.028   3.714  0.00  0.00    +0.000 C 
ENDBRANCH  32  33
ENDBRANCH  29  32
ENDBRANCH  24  26
ENDBRANCH   3  24
TORSDOF 7
ENDMDL
MODEL 3
REMARK VINA RESULT:      -6.5     21.982     26.545
REMARK  Name = OTSSP167.pdbqt.pdb
REMARK  7 active torsions:
REMARK  status: ('A' for Active; 'I' for Inactive)
REMARK    1  A    between atoms: C_5  and  N_19
REMARK    2  A    between atoms: C_7  and  C_31
REMARK    3  A    between atoms: C_11  and  C_13
REMARK    4  A    between atoms: C_18  and  O_34
REMARK    5  A    between atoms: N_19  and  C_21
REMARK    6  A    between atoms: C_24  and  C_27
REMARK    7  A    between atoms: C_27  and  N_28
REMARK                            x       y       z     vdW  Elec       q    Type
REMARK                         _______ _______ _______ _____ _____    ______ ____
ROOT
ATOM      1  N   UNL     1     -18.804  39.039   6.071  0.00  0.00    +0.000 NA
ATOM      2  N   UNL     1     -21.823  37.197   6.992  0.00  0.00    +0.000 NA
ATOM      3  C   UNL     1     -19.041  36.769   6.920  0.00  0.00    +0.000 A 
ATOM      4  C   UNL     1     -19.580  38.021   6.521  0.00  0.00    +0.000 A 
ATOM      5  C   UNL     1     -19.933  35.762   7.343  0.00  0.00    +0.000 A 
ATOM      6  C   UNL     1     -20.983  38.160   6.581  0.00  0.00    +0.000 A 
ATOM      7  C   UNL     1     -21.286  36.020   7.362  0.00  0.00    +0.000 A 
ATOM      8  C   UNL     1     -21.519  39.372   6.183  0.00  0.00    +0.000 A 
ATOM      9  C   UNL     1     -19.356  40.219   5.697  0.00  0.00    +0.000 A 
ATOM     10  C   UNL     1     -20.722  40.417   5.739  0.00  0.00    +0.000 A 
ENDROOT
BRANCH   9  13
ATOM     11 CL   UNL     1     -18.628  44.704   3.237  0.00  0.00    +0.000 Cl
ATOM     12 CL   UNL     1     -14.493  41.960   5.487  0.00  0.00    +0.000 Cl
ATOM     13  C   UNL     1     -18.420  41.261   5.266  0.00  0.00    +0.000 A 
ATOM     14  C   UNL     1     -17.048  41.174   5.531  0.00  0.00    +0.000 A 
ATOM     15  C   UNL     1     -18.870  42.382   4.557  0.00  0.00    +0.000 A 
ATOM     16  C   UNL     1     -17.992  43.372   4.124  0.00  0.00    +0.000 A 
ATOM     17  C   UNL     1     -16.160  42.164   5.107  0.00  0.00    +0.000 A 
ATOM     18  C   UNL     1     -16.630  43.270   4.399  0.00  0.00    +0.000 A 
BRANCH  18  19
ATOM     19  O   UNL     1     -15.753  44.236   3.982  0.00  0.00    +0.000 OA
ATOM     20  H   UNL     1     -15.716  44.932   4.664  0.00  0.00    +0.000 HD
ENDBRANCH  18  19
ENDBRANCH   9  13
BRANCH   5  21
ATOM     21  C   UNL     1     -19.498  34.423   7.732  0.00  0.00    +0.000 C 
ATOM     22  O   UNL     1     -18.377  34.135   8.115  0.00  0.00    +0.000 OA
ATOM     23  C   UNL     1     -20.372  33.207   7.663  0.00  0.00    +0.000 C 
ENDBRANCH   5  21
BRANCH   3  24
ATOM     24  N   UNL     1     -17.634  36.519   7.011  0.00  0.00    +0.000 N 
ATOM     25  H   UNL     1     -17.359  35.922   7.796  0.00  0.00    +0.000 HD
BRANCH  24  26
ATOM     26  C   UNL     1     -16.709  36.557   6.005  0.00  0.00    +0.000 A 
ATOM     27  C   UNL     1     -16.396  35.318   5.339  0.00  0.00    +0.000 A 
ATOM     28  C   UNL     1     -14.985  34.846   4.902  0.00  0.00    +0.000 A 
ATOM     29  C   UNL     1     -13.765  35.587   5.112  0.00  0.00    +0.000 A 
ATOM     30  C   UNL     1     -14.071  36.816   5.801  0.00  0.00    +0.000 A 
ATOM     31  C   UNL     1     -15.483  37.282   6.237  0.00  0.00    +0.000 A 
BRANCH  29  32
ATOM     32  C   UNL     1     -12.496  35.237   4.600  0.00  0.00    +0.000 C 
BRANCH  32  33
ATOM     33  N   UNL     1     -11.195  34.857   4.077  0.00  0.00    +0.000 NA
ATOM     34  C   UNL     1     -11.324  34.741   2.634  0.00  0.00    +0.000 C 
ATOM     35  C   UNL     1     -10.893  33.530   4.586  0.00  0.00    +0.000 C 
ENDBRANCH  32  33
ENDBRANCH  29  32
ENDBRANCH  24  26
ENDBRANCH   3  24
TORSDOF 7
ENDMDL
MODEL 4
REMARK VINA RESULT:      -6.4     24.429     28.455
REMARK  Name = OTSSP167.pdbqt.pdb
REMARK  7 active torsions:
REMARK  status: ('A' for Active; 'I' for Inactive)
REMARK    1  A    between atoms: C_5  and  N_19
REMARK    2  A    between atoms: C_7  and  C_31
REMARK    3  A    between atoms: C_11  and  C_13
REMARK    4  A    between atoms: C_18  and  O_34
REMARK    5  A    between atoms: N_19  and  C_21
REMARK    6  A    between atoms: C_24  and  C_27
REMARK    7  A    between atoms: C_27  and  N_28
REMARK                            x       y       z     vdW  Elec       q    Type
REMARK                         _______ _______ _______ _____ _____    ______ ____
ROOT
ATOM      1  N   UNL     1     -17.889  38.605   6.192  0.00  0.00    +0.000 NA
ATOM      2  N   UNL     1     -14.626  40.080   5.469  0.00  0.00    +0.000 NA
ATOM      3  C   UNL     1     -17.327  40.874   5.510  0.00  0.00    +0.000 A 
ATOM      4  C   UNL     1     -16.969  39.544   5.857  0.00  0.00    +0.000 A 
ATOM      5  C   UNL     1     -16.298  41.768   5.146  0.00  0.00    +0.000 A 
ATOM      6  C   UNL     1     -15.597  39.218   5.810  0.00  0.00    +0.000 A 
ATOM      7  C   UNL     1     -14.992  41.333   5.142  0.00  0.00    +0.000 A 
ATOM      8  C   UNL     1     -15.239  37.922   6.135  0.00  0.00    +0.000 A 
ATOM      9  C   UNL     1     -17.510  37.345   6.515  0.00  0.00    +0.000 A 
ATOM     10  C   UNL     1     -16.181  36.969   6.493  0.00  0.00    +0.000 A 
ENDROOT
BRANCH   9  13
ATOM     11 CL   UNL     1     -18.866  32.630   8.135  0.00  0.00    +0.000 Cl
ATOM     12 CL   UNL     1     -22.572  36.496   7.127  0.00  0.00    +0.000 Cl
ATOM     13  C   UNL     1     -18.585  36.426   6.899  0.00  0.00    +0.000 A 
ATOM     14  C   UNL     1     -19.931  36.807   6.857  0.00  0.00    +0.000 A 
ATOM     15  C   UNL     1     -18.298  35.118   7.311  0.00  0.00    +0.000 A 
ATOM     16  C   UNL     1     -19.307  34.225   7.662  0.00  0.00    +0.000 A 
ATOM     17  C   UNL     1     -20.950  35.923   7.213  0.00  0.00    +0.000 A 
ATOM     18  C   UNL     1     -20.642  34.624   7.617  0.00  0.00    +0.000 A 
BRANCH  18  19
ATOM     19  O   UNL     1     -21.647  33.760   7.961  0.00  0.00    +0.000 OA
ATOM     20  H   UNL     1     -22.114  34.124   8.736  0.00  0.00    +0.000 HD
ENDBRANCH  18  19
ENDBRANCH   9  13
BRANCH   5  21
ATOM     21  C   UNL     1     -16.550  43.145   4.727  0.00  0.00    +0.000 C 
ATOM     22  O   UNL     1     -17.440  43.857   5.160  0.00  0.00    +0.000 OA
ATOM     23  C   UNL     1     -15.767  43.851   3.662  0.00  0.00    +0.000 C 
ENDBRANCH   5  21
BRANCH   3  24
ATOM     24  N   UNL     1     -18.664  41.374   5.614  0.00  0.00    +0.000 N 
ATOM     25  H   UNL     1     -18.737  42.313   6.017  0.00  0.00    +0.000 HD
BRANCH  24  26
ATOM     26  C   UNL     1     -19.753  41.016   4.869  0.00  0.00    +0.000 A 
ATOM     27  C   UNL     1     -20.936  40.596   5.575  0.00  0.00    +0.000 A 
ATOM     28  C   UNL     1     -21.867  39.420   5.182  0.00  0.00    +0.000 A 
ATOM     29  C   UNL     1     -21.672  38.559   4.041  0.00  0.00    +0.000 A 
ATOM     30  C   UNL     1     -20.474  38.961   3.346  0.00  0.00    +0.000 A 
ATOM     31  C   UNL     1     -19.548  40.136   3.744  0.00  0.00    +0.000 A 
BRANCH  29  32
ATOM     32  C   UNL     1     -22.581  37.575   3.593  0.00  0.00    +0.000 C 
BRANCH  32  33
ATOM     33  N   UNL     1     -23.504  36.559   3.118  0.00  0.00    +0.000 NA
ATOM     34  C   UNL     1     -24.773  36.775   3.793  0.00  0.00    +0.000 C 
ATOM     35  C   UNL     1     -22.998  35.271   3.563  0.00  0.00    +0.000 C 
ENDBRANCH  32  33
ENDBRANCH  29  32
ENDBRANCH  24  26
ENDBRANCH   3  24
TORSDOF 7
ENDMDL
MODEL 5
REMARK VINA RESULT:      -6.2     24.417     28.807
REMARK  Name = OTSSP167.pdbqt.pdb
REMARK  7 active torsions:
REMARK  status: ('A' for Active; 'I' for Inactive)
REMARK    1  A    between atoms: C_5  and  N_19
REMARK    2  A    between atoms: C_7  and  C_31
REMARK    3  A    between atoms: C_11  and  C_13
REMARK    4  A    between atoms: C_18  and  O_34
REMARK    5  A    between atoms: N_19  and  C_21
REMARK    6  A    between atoms: C_24  and  C_27
REMARK    7  A    between atoms: C_27  and  N_28
REMARK                            x       y       z     vdW  Elec       q    Type
REMARK                         _______ _______ _______ _____ _____    ______ ____
ROOT
ATOM      1  N   UNL     1     -17.906  38.578   6.240  0.00  0.00    +0.000 NA
ATOM      2  N   UNL     1     -14.629  40.009   5.487  0.00  0.00    +0.000 NA
ATOM      3  C   UNL     1     -17.310  40.858   5.630  0.00  0.00    +0.000 A 
ATOM      4  C   UNL     1     -16.974  39.508   5.916  0.00  0.00    +0.000 A 
ATOM      5  C   UNL     1     -16.272  41.743   5.273  0.00  0.00    +0.000 A 
ATOM      6  C   UNL     1     -15.611  39.156   5.821  0.00  0.00    +0.000 A 
ATOM      7  C   UNL     1     -14.976  41.281   5.218  0.00  0.00    +0.000 A 
ATOM      8  C   UNL     1     -15.274  37.841   6.087  0.00  0.00    +0.000 A 
ATOM      9  C   UNL     1     -17.547  37.298   6.505  0.00  0.00    +0.000 A 
ATOM     10  C   UNL     1     -16.227  36.895   6.434  0.00  0.00    +0.000 A 
ENDROOT
BRANCH   9  13
ATOM     11 CL   UNL     1     -22.629  36.521   7.016  0.00  0.00    +0.000 Cl
ATOM     12 CL   UNL     1     -18.992  32.680   8.322  0.00  0.00    +0.000 Cl
ATOM     13  C   UNL     1     -18.631  36.388   6.882  0.00  0.00    +0.000 A 
ATOM     14  C   UNL     1     -18.377  35.100   7.369  0.00  0.00    +0.000 A 
ATOM     15  C   UNL     1     -19.970  36.787   6.780  0.00  0.00    +0.000 A 
ATOM     16  C   UNL     1     -21.013  35.942   7.152  0.00  0.00    +0.000 A 
ATOM     17  C   UNL     1     -19.415  34.243   7.738  0.00  0.00    +0.000 A 
ATOM     18  C   UNL     1     -20.741  34.662   7.632  0.00  0.00    +0.000 A 
BRANCH  18  19
ATOM     19  O   UNL     1     -21.755  33.817   7.999  0.00  0.00    +0.000 OA
ATOM     20  H   UNL     1     -22.443  34.342   8.451  0.00  0.00    +0.000 HD
ENDBRANCH  18  19
ENDBRANCH   9  13
BRANCH   5  21
ATOM     21  C   UNL     1     -16.503  43.140   4.912  0.00  0.00    +0.000 C 
ATOM     22  O   UNL     1     -17.350  43.861   5.413  0.00  0.00    +0.000 OA
ATOM     23  C   UNL     1     -15.753  43.861   3.833  0.00  0.00    +0.000 C 
ENDBRANCH   5  21
BRANCH   3  24
ATOM     24  N   UNL     1     -18.633  41.382   5.787  0.00  0.00    +0.000 N 
ATOM     25  H   UNL     1     -18.677  42.291   6.257  0.00  0.00    +0.000 HD
BRANCH  24  26
ATOM     26  C   UNL     1     -19.740  41.106   5.033  0.00  0.00    +0.000 A 
ATOM     27  C   UNL     1     -20.179  42.111   4.099  0.00  0.00    +0.000 A 
ATOM     28  C   UNL     1     -21.648  42.517   3.816  0.00  0.00    +0.000 A 
ATOM     29  C   UNL     1     -22.803  41.944   4.465  0.00  0.00    +0.000 A 
ATOM     30  C   UNL     1     -22.365  40.956   5.419  0.00  0.00    +0.000 A 
ATOM     31  C   UNL     1     -20.895  40.555   5.699  0.00  0.00    +0.000 A 
BRANCH  29  32
ATOM     32  C   UNL     1     -24.148  42.204   4.122  0.00  0.00    +0.000 C 
BRANCH  32  33
ATOM     33  N   UNL     1     -25.531  42.487   3.781  0.00  0.00    +0.000 NA
ATOM     34  C   UNL     1     -25.575  43.826   3.216  0.00  0.00    +0.000 C 
ATOM     35  C   UNL     1     -26.285  42.524   5.024  0.00  0.00    +0.000 C 
ENDBRANCH  32  33
ENDBRANCH  29  32
ENDBRANCH  24  26
ENDBRANCH   3  24
TORSDOF 7
ENDMDL
MODEL 6
REMARK VINA RESULT:      -6.0      2.598      6.388
REMARK  Name = OTSSP167.pdbqt.pdb
REMARK  7 active torsions:
REMARK  status: ('A' for Active; 'I' for Inactive)
REMARK    1  A    between atoms: C_5  and  N_19
REMARK    2  A    between atoms: C_7  and  C_31
REMARK    3  A    between atoms: C_11  and  C_13
REMARK    4  A    between atoms: C_18  and  O_34
REMARK    5  A    between atoms: N_19  and  C_21
REMARK    6  A    between atoms: C_24  and  C_27
REMARK    7  A    between atoms: C_27  and  N_28
REMARK                            x       y       z     vdW  Elec       q    Type
REMARK                         _______ _______ _______ _____ _____    ______ ____
ROOT
ATOM      1  N   UNL     1       8.287  43.445   6.662  0.00  0.00    +0.000 NA
ATOM      2  N   UNL     1       7.629  41.969   3.385  0.00  0.00    +0.000 NA
ATOM      3  C   UNL     1       7.625  41.173   6.086  0.00  0.00    +0.000 A 
ATOM      4  C   UNL     1       7.947  42.512   5.738  0.00  0.00    +0.000 A 
ATOM      5  C   UNL     1       7.316  40.270   5.048  0.00  0.00    +0.000 A 
ATOM      6  C   UNL     1       7.932  42.836   4.364  0.00  0.00    +0.000 A 
ATOM      7  C   UNL     1       7.330  40.707   3.743  0.00  0.00    +0.000 A 
ATOM      8  C   UNL     1       8.256  44.135   4.014  0.00  0.00    +0.000 A 
ATOM      9  C   UNL     1       8.590  44.713   6.291  0.00  0.00    +0.000 A 
ATOM     10  C   UNL     1       8.586  45.091   4.963  0.00  0.00    +0.000 A 
ENDROOT
BRANCH   9  13
ATOM     11 CL   UNL     1      11.756  46.028  10.157  0.00  0.00    +0.000 Cl
ATOM     12 CL   UNL     1       7.287  48.921   8.995  0.00  0.00    +0.000 Cl
ATOM     13  C   UNL     1       8.903  45.646   7.377  0.00  0.00    +0.000 A 
ATOM     14  C   UNL     1       8.075  46.735   7.674  0.00  0.00    +0.000 A 
ATOM     15  C   UNL     1      10.044  45.468   8.170  0.00  0.00    +0.000 A 
ATOM     16  C   UNL     1      10.346  46.334   9.218  0.00  0.00    +0.000 A 
ATOM     17  C   UNL     1       8.371  47.612   8.717  0.00  0.00    +0.000 A 
ATOM     18  C   UNL     1       9.511  47.415   9.497  0.00  0.00    +0.000 A 
BRANCH  18  19
ATOM     19  O   UNL     1       9.795  48.278  10.522  0.00  0.00    +0.000 OA
ATOM     20  H   UNL     1      10.638  48.003  10.929  0.00  0.00    +0.000 HD
ENDBRANCH  18  19
ENDBRANCH   9  13
BRANCH   5  21
ATOM     21  C   UNL     1       7.015  38.859   5.283  0.00  0.00    +0.000 C 
ATOM     22  O   UNL     1       5.924  38.421   5.606  0.00  0.00    +0.000 OA
ATOM     23  C   UNL     1       8.032  37.762   5.201  0.00  0.00    +0.000 C 
ENDBRANCH   5  21
BRANCH   3  24
ATOM     24  N   UNL     1       7.499  40.729   7.441  0.00  0.00    +0.000 N 
ATOM     25  H   UNL     1       6.672  40.154   7.625  0.00  0.00    +0.000 HD
BRANCH  24  26
ATOM     26  C   UNL     1       8.493  40.562   8.365  0.00  0.00    +0.000 A 
ATOM     27  C   UNL     1       8.516  41.462   9.490  0.00  0.00    +0.000 A 
ATOM     28  C   UNL     1       9.778  42.107  10.119  0.00  0.00    +0.000 A 
ATOM     29  C   UNL     1      11.129  41.904   9.653  0.00  0.00    +0.000 A 
ATOM     30  C   UNL     1      11.106  41.024   8.511  0.00  0.00    +0.000 A 
ATOM     31  C   UNL     1       9.843  40.383   7.886  0.00  0.00    +0.000 A 
BRANCH  29  32
ATOM     32  C   UNL     1      12.296  42.373  10.296  0.00  0.00    +0.000 C 
BRANCH  32  33
ATOM     33  N   UNL     1      13.489  42.848  10.974  0.00  0.00    +0.000 NA
ATOM     34  C   UNL     1      14.581  41.963  10.604  0.00  0.00    +0.000 C 
ATOM     35  C   UNL     1      13.272  42.683  12.401  0.00  0.00    +0.000 C 
ENDBRANCH  32  33
ENDBRANCH  29  32
ENDBRANCH  24  26
ENDBRANCH   3  24
TORSDOF 7
ENDMDL
MODEL 7
REMARK VINA RESULT:      -6.0     24.850     28.085
REMARK  Name = OTSSP167.pdbqt.pdb
REMARK  7 active torsions:
REMARK  status: ('A' for Active; 'I' for Inactive)
REMARK    1  A    between atoms: C_5  and  N_19
REMARK    2  A    between atoms: C_7  and  C_31
REMARK    3  A    between atoms: C_11  and  C_13
REMARK    4  A    between atoms: C_18  and  O_34
REMARK    5  A    between atoms: N_19  and  C_21
REMARK    6  A    between atoms: C_24  and  C_27
REMARK    7  A    between atoms: C_27  and  N_28
REMARK                            x       y       z     vdW  Elec       q    Type
REMARK                         _______ _______ _______ _____ _____    ______ ____
ROOT
ATOM      1  N   UNL     1     -19.157  39.040   5.962  0.00  0.00    +0.000 NA
ATOM      2  N   UNL     1     -19.711  42.220   4.249  0.00  0.00    +0.000 NA
ATOM      3  C   UNL     1     -17.587  40.836   5.474  0.00  0.00    +0.000 A 
ATOM      4  C   UNL     1     -18.880  40.252   5.419  0.00  0.00    +0.000 A 
ATOM      5  C   UNL     1     -17.407  42.114   4.907  0.00  0.00    +0.000 A 
ATOM      6  C   UNL     1     -19.895  41.006   4.792  0.00  0.00    +0.000 A 
ATOM      7  C   UNL     1     -18.476  42.751   4.318  0.00  0.00    +0.000 A 
ATOM      8  C   UNL     1     -21.161  40.451   4.743  0.00  0.00    +0.000 A 
ATOM      9  C   UNL     1     -20.406  38.516   5.891  0.00  0.00    +0.000 A 
ATOM     10  C   UNL     1     -21.438  39.204   5.285  0.00  0.00    +0.000 A 
ENDROOT
BRANCH   9  13
ATOM     11 CL   UNL     1     -18.205  34.187   7.655  0.00  0.00    +0.000 Cl
ATOM     12 CL   UNL     1     -23.616  34.825   7.561  0.00  0.00    +0.000 Cl
ATOM     13  C   UNL     1     -20.580  37.184   6.477  0.00  0.00    +0.000 A 
ATOM     14  C   UNL     1     -21.850  36.654   6.735  0.00  0.00    +0.000 A 
ATOM     15  C   UNL     1     -19.472  36.385   6.787  0.00  0.00    +0.000 A 
ATOM     16  C   UNL     1     -19.620  35.110   7.326  0.00  0.00    +0.000 A 
ATOM     17  C   UNL     1     -22.010  35.380   7.281  0.00  0.00    +0.000 A 
ATOM     18  C   UNL     1     -20.892  34.600   7.579  0.00  0.00    +0.000 A 
BRANCH  18  19
ATOM     19  O   UNL     1     -21.056  33.348   8.112  0.00  0.00    +0.000 OA
ATOM     20  H   UNL     1     -21.433  33.442   9.006  0.00  0.00    +0.000 HD
ENDBRANCH  18  19
ENDBRANCH   9  13
BRANCH   5  21
ATOM     21  C   UNL     1     -16.135  42.832   4.946  0.00  0.00    +0.000 C 
ATOM     22  O   UNL     1     -15.341  42.800   5.871  0.00  0.00    +0.000 OA
ATOM     23  C   UNL     1     -15.659  43.750   3.860  0.00  0.00    +0.000 C 
ENDBRANCH   5  21
BRANCH   3  24
ATOM     24  N   UNL     1     -16.441  40.145   5.985  0.00  0.00    +0.000 N 
ATOM     25  H   UNL     1     -16.290  40.259   6.991  0.00  0.00    +0.000 HD
BRANCH  24  26
ATOM     26  C   UNL     1     -15.827  39.040   5.464  0.00  0.00    +0.000 A 
ATOM     27  C   UNL     1     -16.248  38.594   4.161  0.00  0.00    +0.000 A 
ATOM     28  C   UNL     1     -16.457  37.122   3.721  0.00  0.00    +0.000 A 
ATOM     29  C   UNL     1     -16.266  35.972   4.571  0.00  0.00    +0.000 A 
ATOM     30  C   UNL     1     -15.869  36.416   5.884  0.00  0.00    +0.000 A 
ATOM     31  C   UNL     1     -15.663  37.888   6.318  0.00  0.00    +0.000 A 
BRANCH  29  32
ATOM     32  C   UNL     1     -16.318  34.625   4.150  0.00  0.00    +0.000 C 
BRANCH  32  33
ATOM     33  N   UNL     1     -16.381  33.245   3.700  0.00  0.00    +0.000 NA
ATOM     34  C   UNL     1     -17.641  32.692   4.167  0.00  0.00    +0.000 C 
ATOM     35  C   UNL     1     -15.320  32.520   4.378  0.00  0.00    +0.000 C 
ENDBRANCH  32  33
ENDBRANCH  29  32
ENDBRANCH  24  26
ENDBRANCH   3  24
TORSDOF 7
ENDMDL
MODEL 8
REMARK VINA RESULT:      -6.0     12.932     17.118
REMARK  Name = OTSSP167.pdbqt.pdb
REMARK  7 active torsions:
REMARK  status: ('A' for Active; 'I' for Inactive)
REMARK    1  A    between atoms: C_5  and  N_19
REMARK    2  A    between atoms: C_7  and  C_31
REMARK    3  A    between atoms: C_11  and  C_13
REMARK    4  A    between atoms: C_18  and  O_34
REMARK    5  A    between atoms: N_19  and  C_21
REMARK    6  A    between atoms: C_24  and  C_27
REMARK    7  A    between atoms: C_27  and  N_28
REMARK                            x       y       z     vdW  Elec       q    Type
REMARK                         _______ _______ _______ _____ _____    ______ ____
ROOT
ATOM      1  N   UNL     1      -4.065  36.176   2.235  0.00  0.00    +0.000 NA
ATOM      2  N   UNL     1      -0.883  37.153   0.727  0.00  0.00    +0.000 NA
ATOM      3  C   UNL     1      -2.861  38.288   2.377  0.00  0.00    +0.000 A 
ATOM      4  C   UNL     1      -2.993  36.948   1.925  0.00  0.00    +0.000 A 
ATOM      5  C   UNL     1      -1.725  39.020   1.974  0.00  0.00    +0.000 A 
ATOM      6  C   UNL     1      -1.964  36.449   1.099  0.00  0.00    +0.000 A 
ATOM      7  C   UNL     1      -0.784  38.420   1.167  0.00  0.00    +0.000 A 
ATOM      8  C   UNL     1      -2.089  35.149   0.643  0.00  0.00    +0.000 A 
ATOM      9  C   UNL     1      -4.156  34.902   1.783  0.00  0.00    +0.000 A 
ATOM     10  C   UNL     1      -3.177  34.356   0.976  0.00  0.00    +0.000 A 
ENDROOT
BRANCH   9  13
ATOM     11 CL   UNL     1      -9.031  35.003   3.492  0.00  0.00    +0.000 Cl
ATOM     12 CL   UNL     1      -6.350  30.320   2.738  0.00  0.00    +0.000 Cl
ATOM     13  C   UNL     1      -5.336  34.148   2.213  0.00  0.00    +0.000 A 
ATOM     14  C   UNL     1      -5.335  32.749   2.277  0.00  0.00    +0.000 A 
ATOM     15  C   UNL     1      -6.512  34.809   2.592  0.00  0.00    +0.000 A 
ATOM     16  C   UNL     1      -7.637  34.109   3.022  0.00  0.00    +0.000 A 
ATOM     17  C   UNL     1      -6.458  32.038   2.699  0.00  0.00    +0.000 A 
ATOM     18  C   UNL     1      -7.617  32.716   3.075  0.00  0.00    +0.000 A 
BRANCH  18  19
ATOM     19  O   UNL     1      -8.716  32.013   3.493  0.00  0.00    +0.000 OA
ATOM     20  H   UNL     1      -8.446  31.089   3.652  0.00  0.00    +0.000 HD
ENDBRANCH  18  19
ENDBRANCH   9  13
BRANCH   5  21
ATOM     21  C   UNL     1      -1.506  40.418   2.339  0.00  0.00    +0.000 C 
ATOM     22  O   UNL     1      -1.312  40.823   3.473  0.00  0.00    +0.000 OA
ATOM     23  C   UNL     1      -1.540  41.552   1.361  0.00  0.00    +0.000 C 
ENDBRANCH   5  21
BRANCH   3  24
ATOM     24  N   UNL     1      -3.772  38.892   3.303  0.00  0.00    +0.000 N 
ATOM     25  H   UNL     1      -3.325  39.331   4.113  0.00  0.00    +0.000 HD
BRANCH  24  26
ATOM     26  C   UNL     1      -5.031  39.363   3.054  0.00  0.00    +0.000 A 
ATOM     27  C   UNL     1      -6.138  38.648   3.637  0.00  0.00    +0.000 A 
ATOM     28  C   UNL     1      -7.490  38.335   2.946  0.00  0.00    +0.000 A 
ATOM     29  C   UNL     1      -7.834  38.713   1.596  0.00  0.00    +0.000 A 
ATOM     30  C   UNL     1      -6.719  39.406   1.001  0.00  0.00    +0.000 A 
ATOM     31  C   UNL     1      -5.369  39.714   1.696  0.00  0.00    +0.000 A 
BRANCH  29  32
ATOM     32  C   UNL     1      -9.105  38.557   1.001  0.00  0.00    +0.000 C 
BRANCH  32  33
ATOM     33  N   UNL     1     -10.408  38.379   0.383  0.00  0.00    +0.000 NA
ATOM     34  C   UNL     1     -10.867  37.040   0.713  0.00  0.00    +0.000 C 
ATOM     35  C   UNL     1     -10.213  38.420  -1.057  0.00  0.00    +0.000 C 
ENDBRANCH  32  33
ENDBRANCH  29  32
ENDBRANCH  24  26
ENDBRANCH   3  24
TORSDOF 7
ENDMDL
MODEL 9
REMARK VINA RESULT:      -5.9     24.432     28.674
REMARK  Name = OTSSP167.pdbqt.pdb
REMARK  7 active torsions:
REMARK  status: ('A' for Active; 'I' for Inactive)
REMARK    1  A    between atoms: C_5  and  N_19
REMARK    2  A    between atoms: C_7  and  C_31
REMARK    3  A    between atoms: C_11  and  C_13
REMARK    4  A    between atoms: C_18  and  O_34
REMARK    5  A    between atoms: N_19  and  C_21
REMARK    6  A    between atoms: C_24  and  C_27
REMARK    7  A    between atoms: C_27  and  N_28
REMARK                            x       y       z     vdW  Elec       q    Type
REMARK                         _______ _______ _______ _____ _____    ______ ____
ROOT
ATOM      1  N   UNL     1     -17.743  39.580   5.228  0.00  0.00    +0.000 NA
ATOM      2  N   UNL     1     -14.642  41.476   4.849  0.00  0.00    +0.000 NA
ATOM      3  C   UNL     1     -17.294  41.577   3.909  0.00  0.00    +0.000 A 
ATOM      4  C   UNL     1     -16.895  40.552   4.808  0.00  0.00    +0.000 A 
ATOM      5  C   UNL     1     -16.331  42.525   3.507  0.00  0.00    +0.000 A 
ATOM      6  C   UNL     1     -15.550  40.564   5.233  0.00  0.00    +0.000 A 
ATOM      7  C   UNL     1     -15.046  42.434   3.995  0.00  0.00    +0.000 A 
ATOM      8  C   UNL     1     -15.148  39.563   6.100  0.00  0.00    +0.000 A 
ATOM      9  C   UNL     1     -17.325  38.617   6.085  0.00  0.00    +0.000 A 
ATOM     10  C   UNL     1     -16.021  38.580   6.541  0.00  0.00    +0.000 A 
ENDROOT
BRANCH   9  13
ATOM     11 CL   UNL     1     -18.355  33.950   8.048  0.00  0.00    +0.000 Cl
ATOM     12 CL   UNL     1     -22.321  37.378   6.559  0.00  0.00    +0.000 Cl
ATOM     13  C   UNL     1     -18.335  37.641   6.502  0.00  0.00    +0.000 A 
ATOM     14  C   UNL     1     -19.705  37.898   6.372  0.00  0.00    +0.000 A 
ATOM     15  C   UNL     1     -17.959  36.402   7.037  0.00  0.00    +0.000 A 
ATOM     16  C   UNL     1     -18.906  35.456   7.422  0.00  0.00    +0.000 A 
ATOM     17  C   UNL     1     -20.663  36.960   6.760  0.00  0.00    +0.000 A 
ATOM     18  C   UNL     1     -20.266  35.731   7.288  0.00  0.00    +0.000 A 
BRANCH  18  19
ATOM     19  O   UNL     1     -21.210  34.812   7.663  0.00  0.00    +0.000 OA
ATOM     20  H   UNL     1     -21.004  34.513   8.568  0.00  0.00    +0.000 HD
ENDBRANCH  18  19
ENDBRANCH   9  13
BRANCH   5  21
ATOM     21  C   UNL     1     -16.613  43.594   2.552  0.00  0.00    +0.000 C 
ATOM     22  O   UNL     1     -17.674  44.188   2.461  0.00  0.00    +0.000 OA
ATOM     23  C   UNL     1     -15.639  44.071   1.518  0.00  0.00    +0.000 C 
ENDBRANCH   5  21
BRANCH   3  24
ATOM     24  N   UNL     1     -18.648  41.751   3.477  0.00  0.00    +0.000 N 
ATOM     25  H   UNL     1     -18.927  41.144   2.701  0.00  0.00    +0.000 HD
BRANCH  24  26
ATOM     26  C   UNL     1     -19.705  42.230   4.200  0.00  0.00    +0.000 A 
ATOM     27  C   UNL     1     -20.424  41.296   5.029  0.00  0.00    +0.000 A 
ATOM     28  C   UNL     1     -21.963  41.232   5.211  0.00  0.00    +0.000 A 
ATOM     29  C   UNL     1     -22.908  42.106   4.559  0.00  0.00    +0.000 A 
ATOM     30  C   UNL     1     -22.193  43.025   3.710  0.00  0.00    +0.000 A 
ATOM     31  C   UNL     1     -20.656  43.084   3.530  0.00  0.00    +0.000 A 
BRANCH  29  32
ATOM     32  C   UNL     1     -24.296  42.150   4.819  0.00  0.00    +0.000 C 
BRANCH  32  33
ATOM     33  N   UNL     1     -25.726  42.190   5.069  0.00  0.00    +0.000 NA
ATOM     34  C   UNL     1     -26.060  43.547   5.469  0.00  0.00    +0.000 C 
ATOM     35  C   UNL     1     -25.991  41.331   6.211  0.00  0.00    +0.000 C 
ENDBRANCH  32  33
ENDBRANCH  29  32
ENDBRANCH  24  26
ENDBRANCH   3  24
TORSDOF 7
ENDMDL
