MODEL 1
REMARK VINA RESULT:      -6.3      0.000      0.000
REMARK  Name = 
REMARK  0 active torsions:
REMARK  status: ('A' for Active; 'I' for Inactive)
REMARK                            x       y       z     vdW  Elec       q    Type
REMARK                         _______ _______ _______ _____ _____    ______ ____
ROOT
ATOM      1  O   UNL     1      -6.899  47.078  28.367  0.00  0.00    +0.000 OA
ATOM      2  O   UNL     1      -9.523  46.745  23.878  0.00  0.00    +0.000 OA
ATOM      3  N   UNL     1      -5.576  47.229  28.057  0.00  0.00    +0.000 N 
ATOM      4  N   UNL     1      -7.845  47.787  25.084  0.00  0.00    +0.000 N 
ATOM      5  C   UNL     1      -5.345  47.607  26.581  0.00  0.00    +0.000 C 
ATOM      6  C   UNL     1      -5.960  48.969  26.204  0.00  0.00    +0.000 C 
ATOM      7  C   UNL     1      -5.780  46.510  25.602  0.00  0.00    +0.000 C 
ATOM      8  C   UNL     1      -7.501  48.888  26.013  0.00  0.00    +0.000 C 
ATOM      9  C   UNL     1      -5.463  50.051  27.181  0.00  0.00    +0.000 C 
ATOM     10  C   UNL     1      -7.298  46.471  25.428  0.00  0.00    +0.000 C 
ATOM     11  C   UNL     1      -5.007  48.320  28.940  0.00  0.00    +0.000 C 
ATOM     12  C   UNL     1      -5.191  45.144  25.980  0.00  0.00    +0.000 C 
ATOM     13  C   UNL     1      -4.863  45.924  28.348  0.00  0.00    +0.000 C 
ATOM     14  C   UNL     1      -5.654  49.667  28.642  0.00  0.00    +0.000 C 
ATOM     15  C   UNL     1      -5.370  44.800  27.454  0.00  0.00    +0.000 C 
ATOM     16  C   UNL     1      -8.064  50.238  25.542  0.00  0.00    +0.000 C 
ATOM     17  C   UNL     1      -9.534  50.101  25.193  0.00  0.00    +0.000 C 
ATOM     18  C   UNL     1      -9.044  47.770  24.369  0.00  0.00    +0.000 C 
ATOM     19  C   UNL     1      -9.681  49.107  24.064  0.00  0.00    +0.000 C 
ENDROOT
TORSDOF 0
ENDMDL
MODEL 2
REMARK VINA RESULT:      -6.0      3.201      4.202
REMARK  Name = 
REMARK  0 active torsions:
REMARK  status: ('A' for Active; 'I' for Inactive)
REMARK                            x       y       z     vdW  Elec       q    Type
REMARK                         _______ _______ _______ _____ _____    ______ ____
ROOT
ATOM      1  O   UNL     1      -2.774  47.897  29.447  0.00  0.00    +0.000 OA
ATOM      2  O   UNL     1      -4.871  44.749  25.863  0.00  0.00    +0.000 OA
ATOM      3  N   UNL     1      -1.725  48.546  28.857  0.00  0.00    +0.000 N 
ATOM      4  N   UNL     1      -3.972  46.826  26.349  0.00  0.00    +0.000 N 
ATOM      5  C   UNL     1      -1.734  48.429  27.321  0.00  0.00    +0.000 C 
ATOM      6  C   UNL     1      -2.970  49.083  26.673  0.00  0.00    +0.000 C 
ATOM      7  C   UNL     1      -1.541  46.991  26.824  0.00  0.00    +0.000 C 
ATOM      8  C   UNL     1      -4.246  48.204  26.816  0.00  0.00    +0.000 C 
ATOM      9  C   UNL     1      -3.102  50.537  27.160  0.00  0.00    +0.000 C 
ATOM     10  C   UNL     1      -2.818  46.164  26.965  0.00  0.00    +0.000 C 
ATOM     11  C   UNL     1      -1.801  50.009  29.240  0.00  0.00    +0.000 C 
ATOM     12  C   UNL     1      -0.325  46.322  27.479  0.00  0.00    +0.000 C 
ATOM     13  C   UNL     1      -0.435  47.955  29.388  0.00  0.00    +0.000 C 
ATOM     14  C   UNL     1      -3.057  50.664  28.677  0.00  0.00    +0.000 C 
ATOM     15  C   UNL     1      -0.289  46.491  28.993  0.00  0.00    +0.000 C 
ATOM     16  C   UNL     1      -5.432  48.840  26.075  0.00  0.00    +0.000 C 
ATOM     17  C   UNL     1      -6.618  47.895  26.073  0.00  0.00    +0.000 C 
ATOM     18  C   UNL     1      -4.992  45.975  25.918  0.00  0.00    +0.000 C 
ATOM     19  C   UNL     1      -6.233  46.625  25.350  0.00  0.00    +0.000 C 
ENDROOT
TORSDOF 0
ENDMDL
MODEL 3
REMARK VINA RESULT:      -6.0      2.476      4.958
REMARK  Name = 
REMARK  0 active torsions:
REMARK  status: ('A' for Active; 'I' for Inactive)
REMARK                            x       y       z     vdW  Elec       q    Type
REMARK                         _______ _______ _______ _____ _____    ______ ____
ROOT
ATOM      1  O   UNL     1      -5.814  48.291  28.982  0.00  0.00    +0.000 OA
ATOM      2  O   UNL     1      -1.563  46.548  26.524  0.00  0.00    +0.000 OA
ATOM      3  N   UNL     1      -6.296  49.350  28.265  0.00  0.00    +0.000 N 
ATOM      4  N   UNL     1      -3.733  47.335  26.349  0.00  0.00    +0.000 N 
ATOM      5  C   UNL     1      -5.688  49.444  26.853  0.00  0.00    +0.000 C 
ATOM      6  C   UNL     1      -6.026  48.228  25.967  0.00  0.00    +0.000 C 
ATOM      7  C   UNL     1      -4.180  49.723  26.862  0.00  0.00    +0.000 C 
ATOM      8  C   UNL     1      -5.170  46.981  26.327  0.00  0.00    +0.000 C 
ATOM      9  C   UNL     1      -7.550  48.011  25.947  0.00  0.00    +0.000 C 
ATOM     10  C   UNL     1      -3.372  48.471  27.202  0.00  0.00    +0.000 C 
ATOM     11  C   UNL     1      -7.797  49.194  28.146  0.00  0.00    +0.000 C 
ATOM     12  C   UNL     1      -3.828  50.918  27.757  0.00  0.00    +0.000 C 
ATOM     13  C   UNL     1      -5.982  50.624  29.022  0.00  0.00    +0.000 C 
ATOM     14  C   UNL     1      -8.163  47.954  27.340  0.00  0.00    +0.000 C 
ATOM     15  C   UNL     1      -4.479  50.850  29.133  0.00  0.00    +0.000 C 
ATOM     16  C   UNL     1      -5.464  45.821  25.362  0.00  0.00    +0.000 C 
ATOM     17  C   UNL     1      -4.504  44.674  25.611  0.00  0.00    +0.000 C 
ATOM     18  C   UNL     1      -2.732  46.378  26.170  0.00  0.00    +0.000 C 
ATOM     19  C   UNL     1      -3.092  45.152  25.361  0.00  0.00    +0.000 C 
ENDROOT
TORSDOF 0
ENDMDL
MODEL 4
REMARK VINA RESULT:      -5.9     23.729     25.194
REMARK  Name = 
REMARK  0 active torsions:
REMARK  status: ('A' for Active; 'I' for Inactive)
REMARK                            x       y       z     vdW  Elec       q    Type
REMARK                         _______ _______ _______ _____ _____    ______ ____
ROOT
ATOM      1  O   UNL     1     -17.368  41.474   2.958  0.00  0.00    +0.000 OA
ATOM      2  O   UNL     1     -18.701  37.491   6.041  0.00  0.00    +0.000 OA
ATOM      3  N   UNL     1     -17.418  42.612   3.715  0.00  0.00    +0.000 N 
ATOM      4  N   UNL     1     -17.510  39.462   5.805  0.00  0.00    +0.000 N 
ATOM      5  C   UNL     1     -17.480  42.323   5.227  0.00  0.00    +0.000 C 
ATOM      6  C   UNL     1     -16.227  41.596   5.755  0.00  0.00    +0.000 C 
ATOM      7  C   UNL     1     -18.764  41.600   5.651  0.00  0.00    +0.000 C 
ATOM      8  C   UNL     1     -16.230  40.083   5.397  0.00  0.00    +0.000 C 
ATOM      9  C   UNL     1     -14.965  42.378   5.348  0.00  0.00    +0.000 C 
ATOM     10  C   UNL     1     -18.722  40.113   5.299  0.00  0.00    +0.000 C 
ATOM     11  C   UNL     1     -16.178  43.428   3.419  0.00  0.00    +0.000 C 
ATOM     12  C   UNL     1     -20.017  42.303   5.114  0.00  0.00    +0.000 C 
ATOM     13  C   UNL     1     -18.647  43.401   3.313  0.00  0.00    +0.000 C 
ATOM     14  C   UNL     1     -14.915  42.698   3.860  0.00  0.00    +0.000 C 
ATOM     15  C   UNL     1     -19.927  42.639   3.630  0.00  0.00    +0.000 C 
ATOM     16  C   UNL     1     -15.019  39.373   6.022  0.00  0.00    +0.000 C 
ATOM     17  C   UNL     1     -15.124  37.874   5.815  0.00  0.00    +0.000 C 
ATOM     18  C   UNL     1     -17.624  38.092   6.050  0.00  0.00    +0.000 C 
ATOM     19  C   UNL     1     -16.374  37.369   6.498  0.00  0.00    +0.000 C 
ENDROOT
TORSDOF 0
ENDMDL
MODEL 5
REMARK VINA RESULT:      -5.7     23.927     25.712
REMARK  Name = 
REMARK  0 active torsions:
REMARK  status: ('A' for Active; 'I' for Inactive)
REMARK                            x       y       z     vdW  Elec       q    Type
REMARK                         _______ _______ _______ _____ _____    ______ ____
ROOT
ATOM      1  O   UNL     1     -19.509  36.259   4.894  0.00  0.00    +0.000 OA
ATOM      2  O   UNL     1     -14.589  37.314   6.248  0.00  0.00    +0.000 OA
ATOM      3  N   UNL     1     -20.265  36.304   6.032  0.00  0.00    +0.000 N 
ATOM      4  N   UNL     1     -16.833  37.823   6.498  0.00  0.00    +0.000 N 
ATOM      5  C   UNL     1     -19.535  36.978   7.210  0.00  0.00    +0.000 C 
ATOM      6  C   UNL     1     -19.199  38.459   6.944  0.00  0.00    +0.000 C 
ATOM      7  C   UNL     1     -18.298  36.203   7.677  0.00  0.00    +0.000 C 
ATOM      8  C   UNL     1     -17.974  38.625   6.001  0.00  0.00    +0.000 C 
ATOM      9  C   UNL     1     -20.474  39.212   6.522  0.00  0.00    +0.000 C 
ATOM     10  C   UNL     1     -17.111  36.403   6.736  0.00  0.00    +0.000 C 
ATOM     11  C   UNL     1     -21.529  37.079   5.727  0.00  0.00    +0.000 C 
ATOM     12  C   UNL     1     -18.616  34.722   7.925  0.00  0.00    +0.000 C 
ATOM     13  C   UNL     1     -20.626  34.886   6.424  0.00  0.00    +0.000 C 
ATOM     14  C   UNL     1     -21.220  38.531   5.383  0.00  0.00    +0.000 C 
ATOM     15  C   UNL     1     -19.388  34.074   6.783  0.00  0.00    +0.000 C 
ATOM     16  C   UNL     1     -17.609  40.109   5.838  0.00  0.00    +0.000 C 
ATOM     17  C   UNL     1     -16.313  40.249   5.062  0.00  0.00    +0.000 C 
ATOM     18  C   UNL     1     -15.512  38.127   6.161  0.00  0.00    +0.000 C 
ATOM     19  C   UNL     1     -15.203  39.569   5.831  0.00  0.00    +0.000 C 
ENDROOT
TORSDOF 0
ENDMDL
MODEL 6
REMARK VINA RESULT:      -5.6     21.322     22.423
REMARK  Name = 
REMARK  0 active torsions:
REMARK  status: ('A' for Active; 'I' for Inactive)
REMARK                            x       y       z     vdW  Elec       q    Type
REMARK                         _______ _______ _______ _____ _____    ______ ____
ROOT
ATOM      1  O   UNL     1      -1.139  25.272  20.512  0.00  0.00    +0.000 OA
ATOM      2  O   UNL     1       1.639  29.523  19.347  0.00  0.00    +0.000 OA
ATOM      3  N   UNL     1      -2.222  25.678  21.241  0.00  0.00    +0.000 N 
ATOM      4  N   UNL     1      -0.453  28.549  19.531  0.00  0.00    +0.000 N 
ATOM      5  C   UNL     1      -2.459  27.199  21.166  0.00  0.00    +0.000 C 
ATOM      6  C   UNL     1      -2.781  27.690  19.741  0.00  0.00    +0.000 C 
ATOM      7  C   UNL     1      -1.325  28.018  21.794  0.00  0.00    +0.000 C 
ATOM      8  C   UNL     1      -1.512  27.775  18.846  0.00  0.00    +0.000 C 
ATOM      9  C   UNL     1      -3.953  26.875  19.165  0.00  0.00    +0.000 C 
ATOM     10  C   UNL     1      -0.103  28.093  20.879  0.00  0.00    +0.000 C 
ATOM     11  C   UNL     1      -3.444  24.962  20.707  0.00  0.00    +0.000 C 
ATOM     12  C   UNL     1      -0.981  27.524  23.205  0.00  0.00    +0.000 C 
ATOM     13  C   UNL     1      -2.002  25.285  22.687  0.00  0.00    +0.000 C 
ATOM     14  C   UNL     1      -3.742  25.371  19.269  0.00  0.00    +0.000 C 
ATOM     15  C   UNL     1      -0.805  26.012  23.287  0.00  0.00    +0.000 C 
ATOM     16  C   UNL     1      -1.856  28.360  17.467  0.00  0.00    +0.000 C 
ATOM     17  C   UNL     1      -0.589  28.600  16.668  0.00  0.00    +0.000 C 
ATOM     18  C   UNL     1       0.574  29.183  18.827  0.00  0.00    +0.000 C 
ATOM     19  C   UNL     1       0.275  29.598  17.404  0.00  0.00    +0.000 C 
ENDROOT
TORSDOF 0
ENDMDL
MODEL 7
REMARK VINA RESULT:      -5.6     24.073     25.308
REMARK  Name = 
REMARK  0 active torsions:
REMARK  status: ('A' for Active; 'I' for Inactive)
REMARK                            x       y       z     vdW  Elec       q    Type
REMARK                         _______ _______ _______ _____ _____    ______ ____
ROOT
ATOM      1  O   UNL     1     -17.832  38.500   3.655  0.00  0.00    +0.000 OA
ATOM      2  O   UNL     1     -14.094  42.029   4.510  0.00  0.00    +0.000 OA
ATOM      3  N   UNL     1     -18.344  38.145   4.871  0.00  0.00    +0.000 N 
ATOM      4  N   UNL     1     -16.213  41.264   5.040  0.00  0.00    +0.000 N 
ATOM      5  C   UNL     1     -17.941  39.114   5.999  0.00  0.00    +0.000 C 
ATOM      6  C   UNL     1     -18.478  40.544   5.787  0.00  0.00    +0.000 C 
ATOM      7  C   UNL     1     -16.432  39.122   6.276  0.00  0.00    +0.000 C 
ATOM      8  C   UNL     1     -17.658  41.330   4.724  0.00  0.00    +0.000 C 
ATOM      9  C   UNL     1     -19.999  40.497   5.558  0.00  0.00    +0.000 C 
ATOM     10  C   UNL     1     -15.663  39.917   5.222  0.00  0.00    +0.000 C 
ATOM     11  C   UNL     1     -19.854  38.123   4.757  0.00  0.00    +0.000 C 
ATOM     12  C   UNL     1     -15.883  37.703   6.468  0.00  0.00    +0.000 C 
ATOM     13  C   UNL     1     -17.846  36.756   5.214  0.00  0.00    +0.000 C 
ATOM     14  C   UNL     1     -20.408  39.513   4.470  0.00  0.00    +0.000 C 
ATOM     15  C   UNL     1     -16.332  36.733   5.382  0.00  0.00    +0.000 C 
ATOM     16  C   UNL     1     -18.159  42.778   4.612  0.00  0.00    +0.000 C 
ATOM     17  C   UNL     1     -17.246  43.581   3.705  0.00  0.00    +0.000 C 
ATOM     18  C   UNL     1     -15.310  42.223   4.577  0.00  0.00    +0.000 C 
ATOM     19  C   UNL     1     -15.858  43.605   4.302  0.00  0.00    +0.000 C 
ENDROOT
TORSDOF 0
ENDMDL
MODEL 8
REMARK VINA RESULT:      -5.4     16.075     16.995
REMARK  Name = 
REMARK  0 active torsions:
REMARK  status: ('A' for Active; 'I' for Inactive)
REMARK                            x       y       z     vdW  Elec       q    Type
REMARK                         _______ _______ _______ _____ _____    ______ ____
ROOT
ATOM      1  O   UNL     1       5.993  55.637  15.991  0.00  0.00    +0.000 OA
ATOM      2  O   UNL     1       2.440  56.345  19.735  0.00  0.00    +0.000 OA
ATOM      3  N   UNL     1       5.491  54.710  15.120  0.00  0.00    +0.000 N 
ATOM      4  N   UNL     1       2.866  56.073  17.477  0.00  0.00    +0.000 N 
ATOM      5  C   UNL     1       3.980  54.469  15.306  0.00  0.00    +0.000 C 
ATOM      6  C   UNL     1       3.130  55.723  15.025  0.00  0.00    +0.000 C 
ATOM      7  C   UNL     1       3.630  53.854  16.667  0.00  0.00    +0.000 C 
ATOM      8  C   UNL     1       3.181  56.745  16.196  0.00  0.00    +0.000 C 
ATOM      9  C   UNL     1       3.477  56.283  13.633  0.00  0.00    +0.000 C 
ATOM     10  C   UNL     1       3.675  54.890  17.789  0.00  0.00    +0.000 C 
ATOM     11  C   UNL     1       5.741  55.203  13.711  0.00  0.00    +0.000 C 
ATOM     12  C   UNL     1       4.486  52.616  16.968  0.00  0.00    +0.000 C 
ATOM     13  C   UNL     1       6.227  53.403  15.333  0.00  0.00    +0.000 C 
ATOM     14  C   UNL     1       4.972  56.488  13.429  0.00  0.00    +0.000 C 
ATOM     15  C   UNL     1       5.974  52.841  16.726  0.00  0.00    +0.000 C 
ATOM     16  C   UNL     1       2.246  57.934  15.923  0.00  0.00    +0.000 C 
ATOM     17  C   UNL     1       2.170  58.833  17.142  0.00  0.00    +0.000 C 
ATOM     18  C   UNL     1       2.379  56.775  18.581  0.00  0.00    +0.000 C 
ATOM     19  C   UNL     1       1.607  58.044  18.301  0.00  0.00    +0.000 C 
ENDROOT
TORSDOF 0
ENDMDL
MODEL 9
REMARK VINA RESULT:      -5.4      6.122      8.355
REMARK  Name = 
REMARK  0 active torsions:
REMARK  status: ('A' for Active; 'I' for Inactive)
REMARK                            x       y       z     vdW  Elec       q    Type
REMARK                         _______ _______ _______ _____ _____    ______ ____
ROOT
ATOM      1  O   UNL     1       1.097  46.452  31.084  0.00  0.00    +0.000 OA
ATOM      2  O   UNL     1      -3.646  45.869  29.008  0.00  0.00    +0.000 OA
ATOM      3  N   UNL     1       1.711  45.231  31.052  0.00  0.00    +0.000 N 
ATOM      4  N   UNL     1      -1.390  45.364  28.891  0.00  0.00    +0.000 N 
ATOM      5  C   UNL     1       0.996  44.224  30.130  0.00  0.00    +0.000 C 
ATOM      6  C   UNL     1       0.987  44.661  28.651  0.00  0.00    +0.000 C 
ATOM      7  C   UNL     1      -0.415  43.862  30.611  0.00  0.00    +0.000 C 
ATOM      8  C   UNL     1      -0.065  45.771  28.370  0.00  0.00    +0.000 C 
ATOM      9  C   UNL     1       2.424  44.970  28.194  0.00  0.00    +0.000 C 
ATOM     10  C   UNL     1      -1.423  44.968  30.302  0.00  0.00    +0.000 C 
ATOM     11  C   UNL     1       3.129  45.429  30.559  0.00  0.00    +0.000 C 
ATOM     12  C   UNL     1      -0.422  43.446  32.087  0.00  0.00    +0.000 C 
ATOM     13  C   UNL     1       1.742  44.672  32.459  0.00  0.00    +0.000 C 
ATOM     14  C   UNL     1       3.150  45.936  29.122  0.00  0.00    +0.000 C 
ATOM     15  C   UNL     1       0.337  44.414  32.988  0.00  0.00    +0.000 C 
ATOM     16  C   UNL     1      -0.113  46.109  26.872  0.00  0.00    +0.000 C 
ATOM     17  C   UNL     1      -1.259  47.062  26.585  0.00  0.00    +0.000 C 
ATOM     18  C   UNL     1      -2.579  45.900  28.391  0.00  0.00    +0.000 C 
ATOM     19  C   UNL     1      -2.561  46.393  26.962  0.00  0.00    +0.000 C 
ENDROOT
TORSDOF 0
ENDMDL
