MODEL 1
REMARK VINA RESULT:      -6.2      0.000      0.000
REMARK  Name = 
REMARK  23 active torsions:
REMARK  status: ('A' for Active; 'I' for Inactive)
REMARK    1  A    between atoms: O_2  and  C_17
REMARK    2  A    between atoms: O_2  and  C_36
REMARK    3  A    between atoms: O_3  and  C_20
REMARK    4  A    between atoms: O_3  and  C_37
REMARK    5  A    between atoms: O_4  and  C_21
REMARK    6  A    between atoms: O_5  and  C_22
REMARK    7  A    between atoms: O_6  and  C_30
REMARK    8  A    between atoms: O_6  and  C_39
REMARK    9  A    between atoms: O_8  and  C_31
REMARK   10  A    between atoms: O_8  and  C_40
REMARK   11  A    between atoms: O_13  and  C_42
REMARK   12  A    between atoms: N_15  and  C_46
REMARK   13  A    between atoms: C_18  and  C_29
REMARK   14  A    between atoms: C_24  and  C_33
REMARK   15  A    between atoms: C_24  and  C_34
REMARK   16  A    between atoms: C_32  and  C_35
REMARK   17  A    between atoms: C_36  and  C_38
REMARK   18  A    between atoms: C_37  and  C_41
REMARK   19  A    between atoms: C_39  and  C_43
REMARK   20  A    between atoms: C_40  and  C_42
REMARK   21  A    between atoms: C_42  and  C_46
REMARK   22  A    between atoms: C_46  and  C_50
REMARK   23  A    between atoms: C_53  and  C_56
REMARK                            x       y       z     vdW  Elec       q    Type
REMARK                         _______ _______ _______ _____ _____    ______ ____
ROOT
ATOM      1  O   UNL     1       2.289  44.329  31.474  0.00  0.00    +0.000 OA
ATOM      2  O   UNL     1      -3.448  47.237  33.231  0.00  0.00    +0.000 OA
ATOM      3  C   UNL     1      -0.503  45.954  30.289  0.00  0.00    +0.000 C 
ATOM      4  C   UNL     1       1.024  45.782  30.543  0.00  0.00    +0.000 C 
ATOM      5  C   UNL     1      -1.225  46.819  31.815  0.00  0.00    +0.000 C 
ATOM      6  C   UNL     1       0.915  44.733  31.724  0.00  0.00    +0.000 C 
ATOM      7  C   UNL     1      -0.859  46.545  28.556  0.00  0.00    +0.000 C 
ATOM      8  C   UNL     1      -2.293  47.058  27.431  0.00  0.00    +0.000 C 
ATOM      9  C   UNL     1      -0.908  45.825  33.010  0.00  0.00    +0.000 C 
ATOM     10  C   UNL     1       0.558  45.299  33.079  0.00  0.00    +0.000 C 
ATOM     11  C   UNL     1      -3.980  47.389  27.869  0.00  0.00    +0.000 C 
ATOM     12  C   UNL     1       2.021  44.657  30.057  0.00  0.00    +0.000 C 
ATOM     13  C   UNL     1      -3.000  47.386  32.074  0.00  0.00    +0.000 C 
ATOM     14  C   UNL     1      -1.886  48.481  26.828  0.00  0.00    +0.000 C 
ATOM     15  C   UNL     1      -4.089  48.482  29.040  0.00  0.00    +0.000 C 
ATOM     16  C   UNL     1      -0.415  48.122  32.215  0.00  0.00    +0.000 C 
ATOM     17  C   UNL     1      -4.225  48.139  30.799  0.00  0.00    +0.000 C 
ATOM     18  C   UNL     1      -2.444  49.795  27.540  0.00  0.00    +0.000 C 
ATOM     19  C   UNL     1      -3.543  49.686  28.660  0.00  0.00    +0.000 C 
ATOM     20  C   UNL     1      -4.672  48.023  26.561  0.00  0.00    +0.000 C 
ATOM     21  C   UNL     1      -4.984  46.197  27.990  0.00  0.00    +0.000 C 
ATOM     22  C   UNL     1      -3.741  50.952  29.457  0.00  0.00    +0.000 C 
ENDROOT
BRANCH   9  23
ATOM     23  O   UNL     1      -1.755  44.681  32.901  0.00  0.00    +0.000 OA
ATOM     24  H   UNL     1      -1.683  44.204  33.752  0.00  0.00    +0.000 HD
ENDBRANCH   9  23
BRANCH   8  25
ATOM     25  O   UNL     1      -2.277  46.126  26.333  0.00  0.00    +0.000 OA
ATOM     26  H   UNL     1      -2.980  45.468  26.470  0.00  0.00    +0.000 HD
ENDBRANCH   8  25
BRANCH  18  27
ATOM     27  O   UNL     1      -1.315  50.496  28.138  0.00  0.00    +0.000 OA
BRANCH  27  29
ATOM     28  O   UNL     1      -0.331  51.275  26.255  0.00  0.00    +0.000 OA
ATOM     29  C   UNL     1      -0.737  51.475  27.395  0.00  0.00    +0.000 C 
BRANCH  29  30
ATOM     30  C   UNL     1      -0.492  52.784  28.151  0.00  0.00    +0.000 C 
BRANCH  30  31
ATOM     31  O   UNL     1      -1.615  53.287  28.885  0.00  0.00    +0.000 OA
ATOM     32  H   UNL     1      -1.303  53.419  29.800  0.00  0.00    +0.000 HD
ENDBRANCH  30  31
BRANCH  30  33
ATOM     33  C   UNL     1       0.011  53.843  27.131  0.00  0.00    +0.000 C 
BRANCH  33  34
ATOM     34  C   UNL     1       1.509  54.065  27.283  0.00  0.00    +0.000 A 
ATOM     35  C   UNL     1       1.994  54.773  28.396  0.00  0.00    +0.000 A 
ATOM     36  C   UNL     1       2.430  53.612  26.325  0.00  0.00    +0.000 A 
ATOM     37  C   UNL     1       3.361  55.004  28.556  0.00  0.00    +0.000 A 
ATOM     38  C   UNL     1       3.796  53.841  26.487  0.00  0.00    +0.000 A 
ATOM     39  C   UNL     1       4.262  54.535  27.603  0.00  0.00    +0.000 A 
ENDBRANCH  33  34
BRANCH  33  41
ATOM     40  O   UNL     1      -1.873  56.866  26.501  0.00  0.00    +0.000 OA
ATOM     41  N   UNL     1      -0.727  55.103  27.294  0.00  0.00    +0.000 N 
ATOM     42  C   UNL     1      -0.904  56.120  26.396  0.00  0.00    +0.000 C 
ATOM     43  H   UNL     1      -1.408  55.101  28.048  0.00  0.00    +0.000 HD
BRANCH  42  44
ATOM     44  C   UNL     1       0.040  56.299  25.270  0.00  0.00    +0.000 A 
ATOM     45  C   UNL     1      -0.171  55.678  24.035  0.00  0.00    +0.000 A 
ATOM     46  C   UNL     1       1.201  57.053  25.483  0.00  0.00    +0.000 A 
ATOM     47  C   UNL     1       0.746  55.861  22.999  0.00  0.00    +0.000 A 
ATOM     48  C   UNL     1       2.116  57.232  24.447  0.00  0.00    +0.000 A 
ATOM     49  C   UNL     1       1.883  56.644  23.203  0.00  0.00    +0.000 A 
ENDBRANCH  42  44
ENDBRANCH  33  41
ENDBRANCH  30  33
ENDBRANCH  29  30
ENDBRANCH  27  29
ENDBRANCH  18  27
BRANCH  17  50
ATOM     50  O   UNL     1      -5.562  47.611  30.939  0.00  0.00    +0.000 OA
BRANCH  50  52
ATOM     51  O   UNL     1      -6.953  47.612  32.692  0.00  0.00    +0.000 OA
ATOM     52  C   UNL     1      -6.509  48.195  31.707  0.00  0.00    +0.000 C 
ATOM     53  C   UNL     1      -7.052  49.520  31.265  0.00  0.00    +0.000 C 
ENDBRANCH  50  52
ENDBRANCH  17  50
BRANCH   7  54
ATOM     54  O   UNL     1      -0.872  47.756  29.072  0.00  0.00    +0.000 OA
BRANCH  54  56
ATOM     55  O   UNL     1       0.523  47.026  27.824  0.00  0.00    +0.000 OA
ATOM     56  C   UNL     1       0.342  48.039  28.493  0.00  0.00    +0.000 C 
BRANCH  56  57
ATOM     57  C   UNL     1       1.456  49.512  28.994  0.00  0.00    +0.000 A 
ATOM     58  C   UNL     1       1.289  50.326  30.196  0.00  0.00    +0.000 A 
ATOM     59  C   UNL     1       2.661  49.944  28.362  0.00  0.00    +0.000 A 
ATOM     60  C   UNL     1       2.150  51.350  30.665  0.00  0.00    +0.000 A 
ATOM     61  C   UNL     1       3.537  50.971  28.816  0.00  0.00    +0.000 A 
ATOM     62  C   UNL     1       3.286  51.673  29.970  0.00  0.00    +0.000 A 
ENDBRANCH  56  57
ENDBRANCH  54  56
ENDBRANCH   7  54
BRANCH   4  63
ATOM     63  O   UNL     1       1.663  47.028  30.908  0.00  0.00    +0.000 OA
BRANCH  63  65
ATOM     64  O   UNL     1       3.696  47.073  29.978  0.00  0.00    +0.000 OA
ATOM     65  C   UNL     1       3.001  47.210  30.984  0.00  0.00    +0.000 C 
ATOM     66  C   UNL     1       3.634  47.460  32.315  0.00  0.00    +0.000 C 
ENDBRANCH  63  65
ENDBRANCH   4  63
TORSDOF 17
ENDMDL
MODEL 2
REMARK VINA RESULT:      -6.0      5.313     10.030
REMARK  Name = 
REMARK  23 active torsions:
REMARK  status: ('A' for Active; 'I' for Inactive)
REMARK    1  A    between atoms: O_2  and  C_17
REMARK    2  A    between atoms: O_2  and  C_36
REMARK    3  A    between atoms: O_3  and  C_20
REMARK    4  A    between atoms: O_3  and  C_37
REMARK    5  A    between atoms: O_4  and  C_21
REMARK    6  A    between atoms: O_5  and  C_22
REMARK    7  A    between atoms: O_6  and  C_30
REMARK    8  A    between atoms: O_6  and  C_39
REMARK    9  A    between atoms: O_8  and  C_31
REMARK   10  A    between atoms: O_8  and  C_40
REMARK   11  A    between atoms: O_13  and  C_42
REMARK   12  A    between atoms: N_15  and  C_46
REMARK   13  A    between atoms: C_18  and  C_29
REMARK   14  A    between atoms: C_24  and  C_33
REMARK   15  A    between atoms: C_24  and  C_34
REMARK   16  A    between atoms: C_32  and  C_35
REMARK   17  A    between atoms: C_36  and  C_38
REMARK   18  A    between atoms: C_37  and  C_41
REMARK   19  A    between atoms: C_39  and  C_43
REMARK   20  A    between atoms: C_40  and  C_42
REMARK   21  A    between atoms: C_42  and  C_46
REMARK   22  A    between atoms: C_46  and  C_50
REMARK   23  A    between atoms: C_53  and  C_56
REMARK                            x       y       z     vdW  Elec       q    Type
REMARK                         _______ _______ _______ _____ _____    ______ ____
ROOT
ATOM      1  O   UNL     1      -1.550  45.679  28.390  0.00  0.00    +0.000 OA
ATOM      2  O   UNL     1      -3.077  51.957  30.036  0.00  0.00    +0.000 OA
ATOM      3  C   UNL     1      -4.033  47.729  29.603  0.00  0.00    +0.000 C 
ATOM      4  C   UNL     1      -3.393  46.751  28.575  0.00  0.00    +0.000 C 
ATOM      5  C   UNL     1      -3.470  49.478  29.130  0.00  0.00    +0.000 C 
ATOM      6  C   UNL     1      -1.887  46.944  29.023  0.00  0.00    +0.000 C 
ATOM      7  C   UNL     1      -5.823  47.322  29.932  0.00  0.00    +0.000 C 
ATOM      8  C   UNL     1      -7.328  47.935  30.906  0.00  0.00    +0.000 C 
ATOM      9  C   UNL     1      -1.889  49.418  29.239  0.00  0.00    +0.000 C 
ATOM     10  C   UNL     1      -1.209  48.204  28.536  0.00  0.00    +0.000 C 
ATOM     11  C   UNL     1      -7.543  49.476  31.756  0.00  0.00    +0.000 C 
ATOM     12  C   UNL     1      -2.922  45.253  28.744  0.00  0.00    +0.000 C 
ATOM     13  C   UNL     1      -3.981  51.099  29.935  0.00  0.00    +0.000 C 
ATOM     14  C   UNL     1      -8.519  48.041  29.846  0.00  0.00    +0.000 C 
ATOM     15  C   UNL     1      -7.254  50.732  30.798  0.00  0.00    +0.000 C 
ATOM     16  C   UNL     1      -3.706  49.798  27.596  0.00  0.00    +0.000 C 
ATOM     17  C   UNL     1      -5.692  51.609  30.644  0.00  0.00    +0.000 C 
ATOM     18  C   UNL     1      -8.819  49.460  29.182  0.00  0.00    +0.000 C 
ATOM     19  C   UNL     1      -8.113  50.757  29.724  0.00  0.00    +0.000 C 
ATOM     20  C   UNL     1      -9.095  49.548  32.178  0.00  0.00    +0.000 C 
ATOM     21  C   UNL     1      -6.999  49.626  33.213  0.00  0.00    +0.000 C 
ATOM     22  C   UNL     1      -8.239  51.954  28.816  0.00  0.00    +0.000 C 
ENDROOT
BRANCH   9  23
ATOM     23  O   UNL     1      -1.519  49.361  30.616  0.00  0.00    +0.000 OA
ATOM     24  H   UNL     1      -1.817  50.202  31.017  0.00  0.00    +0.000 HD
ENDBRANCH   9  23
BRANCH   8  25
ATOM     25  O   UNL     1      -7.671  46.861  31.803  0.00  0.00    +0.000 OA
ATOM     26  H   UNL     1      -8.615  46.933  32.031  0.00  0.00    +0.000 HD
ENDBRANCH   8  25
BRANCH  18  27
ATOM     27  O   UNL     1      -8.487  49.372  27.765  0.00  0.00    +0.000 OA
BRANCH  27  29
ATOM     28  O   UNL     1      -9.358  50.321  25.905  0.00  0.00    +0.000 OA
ATOM     29  C   UNL     1      -9.496  49.595  26.884  0.00  0.00    +0.000 C 
BRANCH  29  30
ATOM     30  C   UNL     1     -10.845  49.002  27.300  0.00  0.00    +0.000 C 
BRANCH  30  31
ATOM     31  O   UNL     1     -11.178  47.749  26.691  0.00  0.00    +0.000 OA
ATOM     32  H   UNL     1     -10.536  47.102  27.038  0.00  0.00    +0.000 HD
ENDBRANCH  30  31
BRANCH  30  33
ATOM     33  C   UNL     1     -11.947  50.059  27.008  0.00  0.00    +0.000 C 
BRANCH  33  34
ATOM     34  C   UNL     1     -12.083  51.028  28.174  0.00  0.00    +0.000 A 
ATOM     35  C   UNL     1     -12.133  52.410  27.921  0.00  0.00    +0.000 A 
ATOM     36  C   UNL     1     -12.128  50.588  29.507  0.00  0.00    +0.000 A 
ATOM     37  C   UNL     1     -12.244  53.324  28.970  0.00  0.00    +0.000 A 
ATOM     38  C   UNL     1     -12.241  51.504  30.554  0.00  0.00    +0.000 A 
ATOM     39  C   UNL     1     -12.301  52.870  30.286  0.00  0.00    +0.000 A 
ENDBRANCH  33  34
BRANCH  33  41
ATOM     40  O   UNL     1     -14.869  48.738  25.336  0.00  0.00    +0.000 OA
ATOM     41  N   UNL     1     -13.227  49.399  26.721  0.00  0.00    +0.000 N 
ATOM     42  C   UNL     1     -14.102  49.627  25.694  0.00  0.00    +0.000 C 
ATOM     43  H   UNL     1     -13.347  48.494  27.165  0.00  0.00    +0.000 HD
BRANCH  42  44
ATOM     44  C   UNL     1     -14.099  50.923  24.979  0.00  0.00    +0.000 A 
ATOM     45  C   UNL     1     -14.892  51.993  25.405  0.00  0.00    +0.000 A 
ATOM     46  C   UNL     1     -13.335  51.041  23.812  0.00  0.00    +0.000 A 
ATOM     47  C   UNL     1     -14.871  53.197  24.699  0.00  0.00    +0.000 A 
ATOM     48  C   UNL     1     -13.318  52.244  23.107  0.00  0.00    +0.000 A 
ATOM     49  C   UNL     1     -14.079  53.324  23.558  0.00  0.00    +0.000 A 
ENDBRANCH  42  44
ENDBRANCH  33  41
ENDBRANCH  30  33
ENDBRANCH  29  30
ENDBRANCH  27  29
ENDBRANCH  18  27
BRANCH  17  50
ATOM     50  O   UNL     1      -5.583  52.324  31.894  0.00  0.00    +0.000 OA
BRANCH  50  52
ATOM     51  O   UNL     1      -5.735  54.214  33.084  0.00  0.00    +0.000 OA
ATOM     52  C   UNL     1      -5.678  53.670  31.985  0.00  0.00    +0.000 C 
ATOM     53  C   UNL     1      -5.801  54.452  30.712  0.00  0.00    +0.000 C 
ENDBRANCH  50  52
ENDBRANCH  17  50
BRANCH   7  54
ATOM     54  O   UNL     1      -6.100  48.215  29.005  0.00  0.00    +0.000 OA
BRANCH  54  56
ATOM     55  O   UNL     1      -6.350  46.229  28.841  0.00  0.00    +0.000 OA
ATOM     56  C   UNL     1      -6.532  47.227  28.152  0.00  0.00    +0.000 C 
BRANCH  56  57
ATOM     57  C   UNL     1      -6.941  47.506  26.303  0.00  0.00    +0.000 A 
ATOM     58  C   UNL     1      -8.022  46.850  25.570  0.00  0.00    +0.000 A 
ATOM     59  C   UNL     1      -6.358  48.464  25.420  0.00  0.00    +0.000 A 
ATOM     60  C   UNL     1      -8.432  47.106  24.238  0.00  0.00    +0.000 A 
ATOM     61  C   UNL     1      -6.755  48.734  24.079  0.00  0.00    +0.000 A 
ATOM     62  C   UNL     1      -7.794  48.058  23.486  0.00  0.00    +0.000 A 
ENDBRANCH  56  57
ENDBRANCH  54  56
ENDBRANCH   7  54
BRANCH   4  63
ATOM     63  O   UNL     1      -3.663  47.139  27.207  0.00  0.00    +0.000 OA
BRANCH  63  65
ATOM     64  O   UNL     1      -2.238  46.573  25.580  0.00  0.00    +0.000 OA
ATOM     65  C   UNL     1      -3.329  46.406  26.121  0.00  0.00    +0.000 C 
ATOM     66  C   UNL     1      -4.340  45.482  25.520  0.00  0.00    +0.000 C 
ENDBRANCH  63  65
ENDBRANCH   4  63
TORSDOF 17
ENDMDL
MODEL 3
REMARK VINA RESULT:      -5.9     29.590     33.546
REMARK  Name = 
REMARK  23 active torsions:
REMARK  status: ('A' for Active; 'I' for Inactive)
REMARK    1  A    between atoms: O_2  and  C_17
REMARK    2  A    between atoms: O_2  and  C_36
REMARK    3  A    between atoms: O_3  and  C_20
REMARK    4  A    between atoms: O_3  and  C_37
REMARK    5  A    between atoms: O_4  and  C_21
REMARK    6  A    between atoms: O_5  and  C_22
REMARK    7  A    between atoms: O_6  and  C_30
REMARK    8  A    between atoms: O_6  and  C_39
REMARK    9  A    between atoms: O_8  and  C_31
REMARK   10  A    between atoms: O_8  and  C_40
REMARK   11  A    between atoms: O_13  and  C_42
REMARK   12  A    between atoms: N_15  and  C_46
REMARK   13  A    between atoms: C_18  and  C_29
REMARK   14  A    between atoms: C_24  and  C_33
REMARK   15  A    between atoms: C_24  and  C_34
REMARK   16  A    between atoms: C_32  and  C_35
REMARK   17  A    between atoms: C_36  and  C_38
REMARK   18  A    between atoms: C_37  and  C_41
REMARK   19  A    between atoms: C_39  and  C_43
REMARK   20  A    between atoms: C_40  and  C_42
REMARK   21  A    between atoms: C_42  and  C_46
REMARK   22  A    between atoms: C_46  and  C_50
REMARK   23  A    between atoms: C_53  and  C_56
REMARK                            x       y       z     vdW  Elec       q    Type
REMARK                         _______ _______ _______ _____ _____    ______ ____
ROOT
ATOM      1  O   UNL     1     -21.189  32.222   6.616  0.00  0.00    +0.000 OA
ATOM      2  O   UNL     1     -16.999  34.114   1.787  0.00  0.00    +0.000 OA
ATOM      3  C   UNL     1     -19.030  34.700   5.596  0.00  0.00    +0.000 C 
ATOM      4  C   UNL     1     -20.420  34.118   5.985  0.00  0.00    +0.000 C 
ATOM      5  C   UNL     1     -18.797  34.384   3.739  0.00  0.00    +0.000 C 
ATOM      6  C   UNL     1     -20.068  32.590   5.765  0.00  0.00    +0.000 C 
ATOM      7  C   UNL     1     -18.737  36.377   6.357  0.00  0.00    +0.000 C 
ATOM      8  C   UNL     1     -17.468  37.782   6.404  0.00  0.00    +0.000 C 
ATOM      9  C   UNL     1     -18.864  32.805   3.604  0.00  0.00    +0.000 C 
ATOM     10  C   UNL     1     -20.058  32.115   4.330  0.00  0.00    +0.000 C 
ATOM     11  C   UNL     1     -16.048  38.026   5.370  0.00  0.00    +0.000 C 
ATOM     12  C   UNL     1     -20.918  33.482   7.343  0.00  0.00    +0.000 C 
ATOM     13  C   UNL     1     -17.359  34.934   2.658  0.00  0.00    +0.000 C 
ATOM     14  C   UNL     1     -18.282  39.115   6.067  0.00  0.00    +0.000 C 
ATOM     15  C   UNL     1     -16.434  38.000   3.812  0.00  0.00    +0.000 C 
ATOM     16  C   UNL     1     -20.040  34.864   2.880  0.00  0.00    +0.000 C 
ATOM     17  C   UNL     1     -16.355  36.570   2.725  0.00  0.00    +0.000 C 
ATOM     18  C   UNL     1     -18.281  39.644   4.562  0.00  0.00    +0.000 C 
ATOM     19  C   UNL     1     -17.322  39.000   3.494  0.00  0.00    +0.000 C 
ATOM     20  C   UNL     1     -15.497  39.503   5.699  0.00  0.00    +0.000 C 
ATOM     21  C   UNL     1     -14.711  37.299   5.726  0.00  0.00    +0.000 C 
ATOM     22  C   UNL     1     -17.649  39.370   2.068  0.00  0.00    +0.000 C 
ENDROOT
BRANCH   9  23
ATOM     23  O   UNL     1     -17.668  32.241   4.143  0.00  0.00    +0.000 OA
ATOM     24  H   UNL     1     -17.889  31.323   4.400  0.00  0.00    +0.000 HD
ENDBRANCH   9  23
BRANCH   8  25
ATOM     25  O   UNL     1     -17.059  37.888   7.781  0.00  0.00    +0.000 OA
ATOM     26  H   UNL     1     -16.120  38.142   7.810  0.00  0.00    +0.000 HD
ENDBRANCH   8  25
BRANCH  18  27
ATOM     27  O   UNL     1     -19.634  39.508   4.036  0.00  0.00    +0.000 OA
BRANCH  27  29
ATOM     28  O   UNL     1     -20.811  40.865   2.660  0.00  0.00    +0.000 OA
ATOM     29  C   UNL     1     -20.302  40.657   3.756  0.00  0.00    +0.000 C 
BRANCH  29  30
ATOM     30  C   UNL     1     -20.225  41.720   4.856  0.00  0.00    +0.000 C 
BRANCH  30  31
ATOM     31  O   UNL     1     -21.445  41.952   5.570  0.00  0.00    +0.000 OA
ATOM     32  H   UNL     1     -21.409  41.380   6.360  0.00  0.00    +0.000 HD
ENDBRANCH  30  31
BRANCH  30  33
ATOM     33  C   UNL     1     -19.709  43.039   4.218  0.00  0.00    +0.000 C 
BRANCH  33  34
ATOM     34  C   UNL     1     -18.187  43.059   4.185  0.00  0.00    +0.000 A 
ATOM     35  C   UNL     1     -17.522  43.056   2.946  0.00  0.00    +0.000 A 
ATOM     36  C   UNL     1     -17.417  43.048   5.359  0.00  0.00    +0.000 A 
ATOM     37  C   UNL     1     -16.128  43.061   2.884  0.00  0.00    +0.000 A 
ATOM     38  C   UNL     1     -16.023  43.056   5.295  0.00  0.00    +0.000 A 
ATOM     39  C   UNL     1     -15.379  43.064   4.058  0.00  0.00    +0.000 A 
ENDBRANCH  33  34
BRANCH  33  41
ATOM     40  O   UNL     1     -21.712  45.867   5.251  0.00  0.00    +0.000 OA
ATOM     41  N   UNL     1     -20.235  44.201   4.945  0.00  0.00    +0.000 N 
ATOM     42  C   UNL     1     -20.997  45.237   4.478  0.00  0.00    +0.000 C 
ATOM     43  H   UNL     1     -20.276  44.088   5.954  0.00  0.00    +0.000 HD
BRANCH  42  44
ATOM     44  C   UNL     1     -21.001  45.575   3.036  0.00  0.00    +0.000 A 
ATOM     45  C   UNL     1     -19.930  46.250   2.442  0.00  0.00    +0.000 A 
ATOM     46  C   UNL     1     -22.139  45.267   2.281  0.00  0.00    +0.000 A 
ATOM     47  C   UNL     1     -19.974  46.561   1.082  0.00  0.00    +0.000 A 
ATOM     48  C   UNL     1     -22.181  45.582   0.923  0.00  0.00    +0.000 A 
ATOM     49  C   UNL     1     -21.094  46.219   0.323  0.00  0.00    +0.000 A 
ENDBRANCH  42  44
ENDBRANCH  33  41
ENDBRANCH  30  33
ENDBRANCH  29  30
ENDBRANCH  27  29
ENDBRANCH  18  27
BRANCH  17  50
ATOM     50  O   UNL     1     -14.937  36.356   2.550  0.00  0.00    +0.000 OA
BRANCH  50  52
ATOM     51  O   UNL     1     -13.216  35.950   1.179  0.00  0.00    +0.000 OA
ATOM     52  C   UNL     1     -14.317  36.464   1.354  0.00  0.00    +0.000 C 
ATOM     53  C   UNL     1     -14.974  37.298   0.296  0.00  0.00    +0.000 C 
ENDBRANCH  50  52
ENDBRANCH  17  50
BRANCH   7  54
ATOM     54  O   UNL     1     -19.191  36.868   5.223  0.00  0.00    +0.000 OA
BRANCH  54  56
ATOM     55  O   UNL     1     -20.106  36.988   7.007  0.00  0.00    +0.000 OA
ATOM     56  C   UNL     1     -20.346  37.285   5.842  0.00  0.00    +0.000 C 
BRANCH  56  57
ATOM     57  C   UNL     1     -21.926  37.835   4.912  0.00  0.00    +0.000 A 
ATOM     58  C   UNL     1     -22.943  38.742   5.438  0.00  0.00    +0.000 A 
ATOM     59  C   UNL     1     -22.275  37.559   3.555  0.00  0.00    +0.000 A 
ATOM     60  C   UNL     1     -24.066  39.264   4.750  0.00  0.00    +0.000 A 
ATOM     61  C   UNL     1     -23.399  38.072   2.847  0.00  0.00    +0.000 A 
ATOM     62  C   UNL     1     -24.295  38.928   3.441  0.00  0.00    +0.000 A 
ENDBRANCH  56  57
ENDBRANCH  54  56
ENDBRANCH   7  54
BRANCH   4  63
ATOM     63  O   UNL     1     -21.481  34.614   5.136  0.00  0.00    +0.000 OA
BRANCH  63  65
ATOM     64  O   UNL     1     -23.361  33.526   4.606  0.00  0.00    +0.000 OA
ATOM     65  C   UNL     1     -22.795  34.354   5.318  0.00  0.00    +0.000 C 
ATOM     66  C   UNL     1     -23.574  35.162   6.306  0.00  0.00    +0.000 C 
ENDBRANCH  63  65
ENDBRANCH   4  63
TORSDOF 17
ENDMDL
MODEL 4
REMARK VINA RESULT:      -5.8      5.331     11.093
REMARK  Name = 
REMARK  23 active torsions:
REMARK  status: ('A' for Active; 'I' for Inactive)
REMARK    1  A    between atoms: O_2  and  C_17
REMARK    2  A    between atoms: O_2  and  C_36
REMARK    3  A    between atoms: O_3  and  C_20
REMARK    4  A    between atoms: O_3  and  C_37
REMARK    5  A    between atoms: O_4  and  C_21
REMARK    6  A    between atoms: O_5  and  C_22
REMARK    7  A    between atoms: O_6  and  C_30
REMARK    8  A    between atoms: O_6  and  C_39
REMARK    9  A    between atoms: O_8  and  C_31
REMARK   10  A    between atoms: O_8  and  C_40
REMARK   11  A    between atoms: O_13  and  C_42
REMARK   12  A    between atoms: N_15  and  C_46
REMARK   13  A    between atoms: C_18  and  C_29
REMARK   14  A    between atoms: C_24  and  C_33
REMARK   15  A    between atoms: C_24  and  C_34
REMARK   16  A    between atoms: C_32  and  C_35
REMARK   17  A    between atoms: C_36  and  C_38
REMARK   18  A    between atoms: C_37  and  C_41
REMARK   19  A    between atoms: C_39  and  C_43
REMARK   20  A    between atoms: C_40  and  C_42
REMARK   21  A    between atoms: C_42  and  C_46
REMARK   22  A    between atoms: C_46  and  C_50
REMARK   23  A    between atoms: C_53  and  C_56
REMARK                            x       y       z     vdW  Elec       q    Type
REMARK                         _______ _______ _______ _____ _____    ______ ____
ROOT
ATOM      1  O   UNL     1      -1.722  46.618  28.732  0.00  0.00    +0.000 OA
ATOM      2  O   UNL     1      -4.147  52.572  30.498  0.00  0.00    +0.000 OA
ATOM      3  C   UNL     1      -4.465  48.255  30.011  0.00  0.00    +0.000 C 
ATOM      4  C   UNL     1      -3.702  47.399  28.958  0.00  0.00    +0.000 C 
ATOM      5  C   UNL     1      -4.178  50.075  29.558  0.00  0.00    +0.000 C 
ATOM      6  C   UNL     1      -2.235  47.809  29.390  0.00  0.00    +0.000 C 
ATOM      7  C   UNL     1      -6.169  47.580  30.357  0.00  0.00    +0.000 C 
ATOM      8  C   UNL     1      -7.733  47.946  31.361  0.00  0.00    +0.000 C 
ATOM      9  C   UNL     1      -2.604  50.252  29.645  0.00  0.00    +0.000 C 
ATOM     10  C   UNL     1      -1.762  49.163  28.914  0.00  0.00    +0.000 C 
ATOM     11  C   UNL     1      -8.163  49.427  32.238  0.00  0.00    +0.000 C 
ATOM     12  C   UNL     1      -3.009  45.986  29.098  0.00  0.00    +0.000 C 
ATOM     13  C   UNL     1      -4.914  51.591  30.396  0.00  0.00    +0.000 C 
ATOM     14  C   UNL     1      -8.943  47.887  30.319  0.00  0.00    +0.000 C 
ATOM     15  C   UNL     1      -8.080  50.724  31.296  0.00  0.00    +0.000 C 
ATOM     16  C   UNL     1      -4.484  50.378  28.032  0.00  0.00    +0.000 C 
ATOM     17  C   UNL     1      -6.671  51.828  31.136  0.00  0.00    +0.000 C 
ATOM     18  C   UNL     1      -9.463  49.254  29.682  0.00  0.00    +0.000 C 
ATOM     19  C   UNL     1      -8.951  50.634  30.235  0.00  0.00    +0.000 C 
ATOM     20  C   UNL     1      -9.702  49.259  32.683  0.00  0.00    +0.000 C 
ATOM     21  C   UNL     1      -7.624  49.636  33.691  0.00  0.00    +0.000 C 
ATOM     22  C   UNL     1      -9.269  51.812  29.347  0.00  0.00    +0.000 C 
ENDROOT
BRANCH   9  23
ATOM     23  O   UNL     1      -2.209  50.232  31.016  0.00  0.00    +0.000 OA
ATOM     24  H   UNL     1      -2.528  49.382  31.382  0.00  0.00    +0.000 HD
ENDBRANCH   9  23
BRANCH   8  25
ATOM     25  O   UNL     1      -7.897  46.822  32.246  0.00  0.00    +0.000 OA
ATOM     26  H   UNL     1      -8.202  46.057  31.727  0.00  0.00    +0.000 HD
ENDBRANCH   8  25
BRANCH  18  27
ATOM     27  O   UNL     1      -9.144  49.237  28.260  0.00  0.00    +0.000 OA
BRANCH  27  29
ATOM     28  O   UNL     1     -10.321  50.123  26.542  0.00  0.00    +0.000 OA
ATOM     29  C   UNL     1     -10.191  49.251  27.395  0.00  0.00    +0.000 C 
BRANCH  29  30
ATOM     30  C   UNL     1     -11.264  48.196  27.681  0.00  0.00    +0.000 C 
BRANCH  30  31
ATOM     31  O   UNL     1     -11.458  47.224  26.646  0.00  0.00    +0.000 OA
ATOM     32  H   UNL     1     -10.606  46.760  26.549  0.00  0.00    +0.000 HD
ENDBRANCH  30  31
BRANCH  30  33
ATOM     33  C   UNL     1     -12.596  48.934  27.991  0.00  0.00    +0.000 C 
BRANCH  33  34
ATOM     34  C   UNL     1     -12.975  48.764  29.456  0.00  0.00    +0.000 A 
ATOM     35  C   UNL     1     -13.395  47.505  29.919  0.00  0.00    +0.000 A 
ATOM     36  C   UNL     1     -12.949  49.837  30.361  0.00  0.00    +0.000 A 
ATOM     37  C   UNL     1     -13.761  47.321  31.253  0.00  0.00    +0.000 A 
ATOM     38  C   UNL     1     -13.314  49.650  31.695  0.00  0.00    +0.000 A 
ATOM     39  C   UNL     1     -13.717  48.393  32.142  0.00  0.00    +0.000 A 
ENDBRANCH  33  34
BRANCH  33  41
ATOM     40  O   UNL     1     -15.474  48.752  25.809  0.00  0.00    +0.000 OA
ATOM     41  N   UNL     1     -13.668  48.450  27.111  0.00  0.00    +0.000 N 
ATOM     42  C   UNL     1     -14.892  49.007  26.859  0.00  0.00    +0.000 C 
ATOM     43  H   UNL     1     -13.368  47.785  26.404  0.00  0.00    +0.000 HD
BRANCH  42  44
ATOM     44  C   UNL     1     -15.500  49.952  27.822  0.00  0.00    +0.000 A 
ATOM     45  C   UNL     1     -15.202  51.318  27.790  0.00  0.00    +0.000 A 
ATOM     46  C   UNL     1     -16.333  49.441  28.825  0.00  0.00    +0.000 A 
ATOM     47  C   UNL     1     -15.787  52.178  28.721  0.00  0.00    +0.000 A 
ATOM     48  C   UNL     1     -16.913  50.303  29.756  0.00  0.00    +0.000 A 
ATOM     49  C   UNL     1     -16.646  51.671  29.697  0.00  0.00    +0.000 A 
ENDBRANCH  42  44
ENDBRANCH  33  41
ENDBRANCH  30  33
ENDBRANCH  29  30
ENDBRANCH  27  29
ENDBRANCH  18  27
BRANCH  17  50
ATOM     50  O   UNL     1      -6.650  52.534  32.395  0.00  0.00    +0.000 OA
BRANCH  50  52
ATOM     51  O   UNL     1      -6.154  54.717  32.426  0.00  0.00    +0.000 OA
ATOM     52  C   UNL     1      -7.002  53.834  32.518  0.00  0.00    +0.000 C 
ATOM     53  C   UNL     1      -8.429  54.145  32.857  0.00  0.00    +0.000 C 
ENDBRANCH  50  52
ENDBRANCH  17  50
BRANCH   7  54
ATOM     54  O   UNL     1      -6.591  48.434  29.449  0.00  0.00    +0.000 OA
BRANCH  54  56
ATOM     55  O   UNL     1      -6.579  46.433  29.270  0.00  0.00    +0.000 OA
ATOM     56  C   UNL     1      -6.871  47.405  28.581  0.00  0.00    +0.000 C 
BRANCH  56  57
ATOM     57  C   UNL     1      -7.268  47.642  26.724  0.00  0.00    +0.000 A 
ATOM     58  C   UNL     1      -8.130  46.771  25.927  0.00  0.00    +0.000 A 
ATOM     59  C   UNL     1      -6.904  48.743  25.892  0.00  0.00    +0.000 A 
ATOM     60  C   UNL     1      -8.541  46.967  24.585  0.00  0.00    +0.000 A 
ATOM     61  C   UNL     1      -7.305  48.957  24.542  0.00  0.00    +0.000 A 
ATOM     62  C   UNL     1      -8.127  48.072  23.887  0.00  0.00    +0.000 A 
ENDBRANCH  56  57
ENDBRANCH  54  56
ENDBRANCH   7  54
BRANCH   4  63
ATOM     63  O   UNL     1      -4.049  47.761  27.601  0.00  0.00    +0.000 OA
BRANCH  63  65
ATOM     64  O   UNL     1      -2.576  47.513  25.937  0.00  0.00    +0.000 OA
ATOM     65  C   UNL     1      -3.598  47.121  26.498  0.00  0.00    +0.000 C 
ATOM     66  C   UNL     1      -4.414  46.017  25.904  0.00  0.00    +0.000 C 
ENDBRANCH  63  65
ENDBRANCH   4  63
TORSDOF 17
ENDMDL
MODEL 5
REMARK VINA RESULT:      -5.8     30.022     33.789
REMARK  Name = 
REMARK  23 active torsions:
REMARK  status: ('A' for Active; 'I' for Inactive)
REMARK    1  A    between atoms: O_2  and  C_17
REMARK    2  A    between atoms: O_2  and  C_36
REMARK    3  A    between atoms: O_3  and  C_20
REMARK    4  A    between atoms: O_3  and  C_37
REMARK    5  A    between atoms: O_4  and  C_21
REMARK    6  A    between atoms: O_5  and  C_22
REMARK    7  A    between atoms: O_6  and  C_30
REMARK    8  A    between atoms: O_6  and  C_39
REMARK    9  A    between atoms: O_8  and  C_31
REMARK   10  A    between atoms: O_8  and  C_40
REMARK   11  A    between atoms: O_13  and  C_42
REMARK   12  A    between atoms: N_15  and  C_46
REMARK   13  A    between atoms: C_18  and  C_29
REMARK   14  A    between atoms: C_24  and  C_33
REMARK   15  A    between atoms: C_24  and  C_34
REMARK   16  A    between atoms: C_32  and  C_35
REMARK   17  A    between atoms: C_36  and  C_38
REMARK   18  A    between atoms: C_37  and  C_41
REMARK   19  A    between atoms: C_39  and  C_43
REMARK   20  A    between atoms: C_40  and  C_42
REMARK   21  A    between atoms: C_42  and  C_46
REMARK   22  A    between atoms: C_46  and  C_50
REMARK   23  A    between atoms: C_53  and  C_56
REMARK                            x       y       z     vdW  Elec       q    Type
REMARK                         _______ _______ _______ _____ _____    ______ ____
ROOT
ATOM      1  O   UNL     1     -16.113  43.973   3.741  0.00  0.00    +0.000 OA
ATOM      2  O   UNL     1     -22.025  40.904   4.033  0.00  0.00    +0.000 OA
ATOM      3  C   UNL     1     -17.718  41.073   4.666  0.00  0.00    +0.000 C 
ATOM      4  C   UNL     1     -16.708  41.919   3.837  0.00  0.00    +0.000 C 
ATOM      5  C   UNL     1     -19.382  41.148   3.757  0.00  0.00    +0.000 C 
ATOM      6  C   UNL     1     -17.371  43.334   4.095  0.00  0.00    +0.000 C 
ATOM      7  C   UNL     1     -16.975  39.461   5.236  0.00  0.00    +0.000 C 
ATOM      8  C   UNL     1     -17.416  37.874   6.172  0.00  0.00    +0.000 C 
ATOM      9  C   UNL     1     -19.743  42.692   3.737  0.00  0.00    +0.000 C 
ATOM     10  C   UNL     1     -18.601  43.646   3.274  0.00  0.00    +0.000 C 
ATOM     11  C   UNL     1     -19.016  37.287   6.662  0.00  0.00    +0.000 C 
ATOM     12  C   UNL     1     -15.461  42.769   4.304  0.00  0.00    +0.000 C 
ATOM     13  C   UNL     1     -20.973  40.253   4.211  0.00  0.00    +0.000 C 
ATOM     14  C   UNL     1     -16.963  36.670   5.226  0.00  0.00    +0.000 C 
ATOM     15  C   UNL     1     -20.031  37.213   5.420  0.00  0.00    +0.000 C 
ATOM     16  C   UNL     1     -19.250  40.797   2.217  0.00  0.00    +0.000 C 
ATOM     17  C   UNL     1     -21.202  38.487   4.932  0.00  0.00    +0.000 C 
ATOM     18  C   UNL     1     -18.057  35.992   4.283  0.00  0.00    +0.000 C 
ATOM     19  C   UNL     1     -19.580  36.349   4.449  0.00  0.00    +0.000 C 
ATOM     20  C   UNL     1     -18.803  35.781   7.192  0.00  0.00    +0.000 C 
ATOM     21  C   UNL     1     -19.647  37.811   7.993  0.00  0.00    +0.000 C 
ATOM     22  C   UNL     1     -20.450  35.892   3.305  0.00  0.00    +0.000 C 
ENDROOT
BRANCH   9  23
ATOM     23  O   UNL     1     -20.117  43.100   5.053  0.00  0.00    +0.000 OA
ATOM     24  H   UNL     1     -19.956  44.064   5.098  0.00  0.00    +0.000 HD
ENDBRANCH   9  23
BRANCH   8  25
ATOM     25  O   UNL     1     -16.544  37.847   7.319  0.00  0.00    +0.000 OA
ATOM     26  H   UNL     1     -16.482  36.931   7.643  0.00  0.00    +0.000 HD
ENDBRANCH   8  25
BRANCH  18  27
ATOM     27  O   UNL     1     -17.711  36.298   2.901  0.00  0.00    +0.000 OA
BRANCH  27  29
ATOM     28  O   UNL     1     -17.931  34.584   1.440  0.00  0.00    +0.000 OA
ATOM     29  C   UNL     1     -17.215  35.280   2.152  0.00  0.00    +0.000 C 
BRANCH  29  30
ATOM     30  C   UNL     1     -15.733  34.976   2.396  0.00  0.00    +0.000 C 
BRANCH  30  31
ATOM     31  O   UNL     1     -15.001  34.535   1.247  0.00  0.00    +0.000 OA
ATOM     32  H   UNL     1     -15.515  33.800   0.864  0.00  0.00    +0.000 HD
ENDBRANCH  30  31
BRANCH  30  33
ATOM     33  C   UNL     1     -15.637  33.926   3.538  0.00  0.00    +0.000 C 
BRANCH  33  34
ATOM     34  C   UNL     1     -14.282  34.004   4.227  0.00  0.00    +0.000 A 
ATOM     35  C   UNL     1     -13.604  32.817   4.553  0.00  0.00    +0.000 A 
ATOM     36  C   UNL     1     -13.695  35.230   4.579  0.00  0.00    +0.000 A 
ATOM     37  C   UNL     1     -12.366  32.856   5.196  0.00  0.00    +0.000 A 
ATOM     38  C   UNL     1     -12.456  35.267   5.220  0.00  0.00    +0.000 A 
ATOM     39  C   UNL     1     -11.791  34.081   5.526  0.00  0.00    +0.000 A 
ENDBRANCH  33  34
BRANCH  33  41
ATOM     40  O   UNL     1     -17.235  30.906   2.354  0.00  0.00    +0.000 OA
ATOM     41  N   UNL     1     -15.886  32.576   3.016  0.00  0.00    +0.000 N 
ATOM     42  C   UNL     1     -16.985  31.778   3.180  0.00  0.00    +0.000 C 
ATOM     43  H   UNL     1     -15.306  32.314   2.225  0.00  0.00    +0.000 HD
BRANCH  42  44
ATOM     44  C   UNL     1     -17.902  31.989   4.323  0.00  0.00    +0.000 A 
ATOM     45  C   UNL     1     -17.524  31.668   5.631  0.00  0.00    +0.000 A 
ATOM     46  C   UNL     1     -19.197  32.454   4.064  0.00  0.00    +0.000 A 
ATOM     47  C   UNL     1     -18.419  31.871   6.683  0.00  0.00    +0.000 A 
ATOM     48  C   UNL     1     -20.090  32.653   5.117  0.00  0.00    +0.000 A 
ATOM     49  C   UNL     1     -19.696  32.370   6.426  0.00  0.00    +0.000 A 
ENDBRANCH  42  44
ENDBRANCH  33  41
ENDBRANCH  30  33
ENDBRANCH  29  30
ENDBRANCH  27  29
ENDBRANCH  18  27
BRANCH  17  50
ATOM     50  O   UNL     1     -22.205  38.439   5.970  0.00  0.00    +0.000 OA
BRANCH  50  52
ATOM     51  O   UNL     1     -24.289  38.293   5.168  0.00  0.00    +0.000 OA
ATOM     52  C   UNL     1     -23.383  37.792   5.828  0.00  0.00    +0.000 C 
ATOM     53  C   UNL     1     -23.570  36.502   6.570  0.00  0.00    +0.000 C 
ENDBRANCH  50  52
ENDBRANCH  17  50
BRANCH   7  54
ATOM     54  O   UNL     1     -17.518  38.936   4.157  0.00  0.00    +0.000 OA
BRANCH  54  56
ATOM     55  O   UNL     1     -15.549  39.165   4.487  0.00  0.00    +0.000 OA
ATOM     56  C   UNL     1     -16.283  38.826   3.564  0.00  0.00    +0.000 C 
BRANCH  56  57
ATOM     57  C   UNL     1     -16.011  38.543   1.691  0.00  0.00    +0.000 A 
ATOM     58  C   UNL     1     -14.772  38.066   1.080  0.00  0.00    +0.000 A 
ATOM     59  C   UNL     1     -16.985  38.622   0.650  0.00  0.00    +0.000 A 
ATOM     60  C   UNL     1     -14.559  37.736  -0.282  0.00  0.00    +0.000 A 
ATOM     61  C   UNL     1     -16.790  38.297  -0.722  0.00  0.00    +0.000 A 
ATOM     62  C   UNL     1     -15.578  37.850  -1.191  0.00  0.00    +0.000 A 
ENDBRANCH  56  57
ENDBRANCH  54  56
ENDBRANCH   7  54
BRANCH   4  63
ATOM     63  O   UNL     1     -16.672  41.522   2.446  0.00  0.00    +0.000 OA
BRANCH  63  65
ATOM     64  O   UNL     1     -14.581  41.652   1.666  0.00  0.00    +0.000 OA
ATOM     65  C   UNL     1     -15.764  41.963   1.546  0.00  0.00    +0.000 C 
ATOM     66  C   UNL     1     -16.192  42.922   0.482  0.00  0.00    +0.000 C 
ENDBRANCH  63  65
ENDBRANCH   4  63
TORSDOF 17
ENDMDL
MODEL 6
REMARK VINA RESULT:      -5.7      5.071     10.486
REMARK  Name = 
REMARK  23 active torsions:
REMARK  status: ('A' for Active; 'I' for Inactive)
REMARK    1  A    between atoms: O_2  and  C_17
REMARK    2  A    between atoms: O_2  and  C_36
REMARK    3  A    between atoms: O_3  and  C_20
REMARK    4  A    between atoms: O_3  and  C_37
REMARK    5  A    between atoms: O_4  and  C_21
REMARK    6  A    between atoms: O_5  and  C_22
REMARK    7  A    between atoms: O_6  and  C_30
REMARK    8  A    between atoms: O_6  and  C_39
REMARK    9  A    between atoms: O_8  and  C_31
REMARK   10  A    between atoms: O_8  and  C_40
REMARK   11  A    between atoms: O_13  and  C_42
REMARK   12  A    between atoms: N_15  and  C_46
REMARK   13  A    between atoms: C_18  and  C_29
REMARK   14  A    between atoms: C_24  and  C_33
REMARK   15  A    between atoms: C_24  and  C_34
REMARK   16  A    between atoms: C_32  and  C_35
REMARK   17  A    between atoms: C_36  and  C_38
REMARK   18  A    between atoms: C_37  and  C_41
REMARK   19  A    between atoms: C_39  and  C_43
REMARK   20  A    between atoms: C_40  and  C_42
REMARK   21  A    between atoms: C_42  and  C_46
REMARK   22  A    between atoms: C_46  and  C_50
REMARK   23  A    between atoms: C_53  and  C_56
REMARK                            x       y       z     vdW  Elec       q    Type
REMARK                         _______ _______ _______ _____ _____    ______ ____
ROOT
ATOM      1  O   UNL     1      -2.689  45.204  28.021  0.00  0.00    +0.000 OA
ATOM      2  O   UNL     1      -2.612  51.871  28.100  0.00  0.00    +0.000 OA
ATOM      3  C   UNL     1      -4.414  48.011  29.013  0.00  0.00    +0.000 C 
ATOM      4  C   UNL     1      -4.211  46.697  28.203  0.00  0.00    +0.000 C 
ATOM      5  C   UNL     1      -3.652  49.415  27.990  0.00  0.00    +0.000 C 
ATOM      6  C   UNL     1      -2.635  46.625  28.328  0.00  0.00    +0.000 C 
ATOM      7  C   UNL     1      -6.131  48.130  29.731  0.00  0.00    +0.000 C 
ATOM      8  C   UNL     1      -7.241  49.294  30.732  0.00  0.00    +0.000 C 
ATOM      9  C   UNL     1      -2.125  49.008  27.850  0.00  0.00    +0.000 C 
ATOM     10  C   UNL     1      -1.858  47.538  27.407  0.00  0.00    +0.000 C 
ATOM     11  C   UNL     1      -6.971  50.997  31.147  0.00  0.00    +0.000 C 
ATOM     12  C   UNL     1      -4.003  45.212  28.700  0.00  0.00    +0.000 C 
ATOM     13  C   UNL     1      -3.660  51.254  28.389  0.00  0.00    +0.000 C 
ATOM     14  C   UNL     1      -8.595  49.430  29.895  0.00  0.00    +0.000 C 
ATOM     15  C   UNL     1      -6.671  51.888  29.846  0.00  0.00    +0.000 C 
ATOM     16  C   UNL     1      -4.156  49.416  26.487  0.00  0.00    +0.000 C 
ATOM     17  C   UNL     1      -5.046  52.307  29.201  0.00  0.00    +0.000 C 
ATOM     18  C   UNL     1      -8.764  50.685  28.924  0.00  0.00    +0.000 C 
ATOM     19  C   UNL     1      -7.726  51.866  28.963  0.00  0.00    +0.000 C 
ATOM     20  C   UNL     1      -8.350  51.533  31.782  0.00  0.00    +0.000 C 
ATOM     21  C   UNL     1      -6.100  51.348  32.396  0.00  0.00    +0.000 C 
ATOM     22  C   UNL     1      -7.822  52.813  27.793  0.00  0.00    +0.000 C 
ENDROOT
BRANCH   9  23
ATOM     23  O   UNL     1      -1.478  49.187  29.109  0.00  0.00    +0.000 OA
ATOM     24  H   UNL     1      -1.005  50.041  29.056  0.00  0.00    +0.000 HD
ENDBRANCH   9  23
BRANCH   8  25
ATOM     25  O   UNL     1      -7.572  48.573  31.934  0.00  0.00    +0.000 OA
ATOM     26  H   UNL     1      -6.747  48.306  32.376  0.00  0.00    +0.000 HD
ENDBRANCH   8  25
BRANCH  18  27
ATOM     27  O   UNL     1      -8.775  50.193  27.552  0.00  0.00    +0.000 OA
BRANCH  27  29
ATOM     28  O   UNL     1     -10.108  51.236  26.050  0.00  0.00    +0.000 OA
ATOM     29  C   UNL     1      -9.935  50.331  26.859  0.00  0.00    +0.000 C 
BRANCH  29  30
ATOM     30  C   UNL     1     -11.050  49.373  27.290  0.00  0.00    +0.000 C 
BRANCH  30  31
ATOM     31  O   UNL     1     -11.864  48.862  26.227  0.00  0.00    +0.000 OA
ATOM     32  H   UNL     1     -12.672  48.515  26.649  0.00  0.00    +0.000 HD
ENDBRANCH  30  31
BRANCH  30  33
ATOM     33  C   UNL     1     -11.927  50.097  28.349  0.00  0.00    +0.000 C 
BRANCH  33  34
ATOM     34  C   UNL     1     -12.737  49.091  29.154  0.00  0.00    +0.000 A 
ATOM     35  C   UNL     1     -14.095  48.892  28.846  0.00  0.00    +0.000 A 
ATOM     36  C   UNL     1     -12.180  48.371  30.223  0.00  0.00    +0.000 A 
ATOM     37  C   UNL     1     -14.866  47.986  29.575  0.00  0.00    +0.000 A 
ATOM     38  C   UNL     1     -12.953  47.464  30.949  0.00  0.00    +0.000 A 
ATOM     39  C   UNL     1     -14.295  47.270  30.624  0.00  0.00    +0.000 A 
ENDBRANCH  33  34
BRANCH  33  41
ATOM     40  O   UNL     1     -13.291  53.149  26.968  0.00  0.00    +0.000 OA
ATOM     41  N   UNL     1     -12.804  51.081  27.701  0.00  0.00    +0.000 N 
ATOM     42  C   UNL     1     -12.843  52.439  27.864  0.00  0.00    +0.000 C 
ATOM     43  H   UNL     1     -13.239  50.761  26.840  0.00  0.00    +0.000 HD
BRANCH  42  44
ATOM     44  C   UNL     1     -12.306  53.063  29.094  0.00  0.00    +0.000 A 
ATOM     45  C   UNL     1     -11.038  53.652  29.118  0.00  0.00    +0.000 A 
ATOM     46  C   UNL     1     -13.066  52.991  30.267  0.00  0.00    +0.000 A 
ATOM     47  C   UNL     1     -10.560  54.223  30.299  0.00  0.00    +0.000 A 
ATOM     48  C   UNL     1     -12.584  53.559  31.446  0.00  0.00    +0.000 A 
ATOM     49  C   UNL     1     -11.336  54.182  31.458  0.00  0.00    +0.000 A 
ENDBRANCH  42  44
ENDBRANCH  33  41
ENDBRANCH  30  33
ENDBRANCH  29  30
ENDBRANCH  27  29
ENDBRANCH  18  27
BRANCH  17  50
ATOM     50  O   UNL     1      -4.531  53.247  30.169  0.00  0.00    +0.000 OA
BRANCH  50  52
ATOM     51  O   UNL     1      -3.322  55.118  30.386  0.00  0.00    +0.000 OA
ATOM     52  C   UNL     1      -4.281  54.544  29.879  0.00  0.00    +0.000 C 
ATOM     53  C   UNL     1      -5.257  55.266  28.999  0.00  0.00    +0.000 C 
ENDBRANCH  50  52
ENDBRANCH  17  50
BRANCH   7  54
ATOM     54  O   UNL     1      -6.433  48.822  28.652  0.00  0.00    +0.000 OA
BRANCH  54  56
ATOM     55  O   UNL     1      -7.106  46.983  29.098  0.00  0.00    +0.000 OA
ATOM     56  C   UNL     1      -7.186  47.779  28.169  0.00  0.00    +0.000 C 
BRANCH  56  57
ATOM     57  C   UNL     1      -7.815  47.651  26.365  0.00  0.00    +0.000 A 
ATOM     58  C   UNL     1      -8.962  46.861  25.925  0.00  0.00    +0.000 A 
ATOM     59  C   UNL     1      -7.357  48.390  25.232  0.00  0.00    +0.000 A 
ATOM     60  C   UNL     1      -9.530  46.823  24.627  0.00  0.00    +0.000 A 
ATOM     61  C   UNL     1      -7.913  48.365  23.922  0.00  0.00    +0.000 A 
ATOM     62  C   UNL     1      -9.003  47.585  23.617  0.00  0.00    +0.000 A 
ENDBRANCH  56  57
ENDBRANCH  54  56
ENDBRANCH   7  54
BRANCH   4  63
ATOM     63  O   UNL     1      -4.699  46.808  26.846  0.00  0.00    +0.000 OA
BRANCH  63  65
ATOM     64  O   UNL     1      -5.982  45.077  26.249  0.00  0.00    +0.000 OA
ATOM     65  C   UNL     1      -4.978  45.757  26.042  0.00  0.00    +0.000 C 
ATOM     66  C   UNL     1      -3.999  45.361  24.984  0.00  0.00    +0.000 C 
ENDBRANCH  63  65
ENDBRANCH   4  63
TORSDOF 17
ENDMDL
MODEL 7
REMARK VINA RESULT:      -5.6     29.369     33.387
REMARK  Name = 
REMARK  23 active torsions:
REMARK  status: ('A' for Active; 'I' for Inactive)
REMARK    1  A    between atoms: O_2  and  C_17
REMARK    2  A    between atoms: O_2  and  C_36
REMARK    3  A    between atoms: O_3  and  C_20
REMARK    4  A    between atoms: O_3  and  C_37
REMARK    5  A    between atoms: O_4  and  C_21
REMARK    6  A    between atoms: O_5  and  C_22
REMARK    7  A    between atoms: O_6  and  C_30
REMARK    8  A    between atoms: O_6  and  C_39
REMARK    9  A    between atoms: O_8  and  C_31
REMARK   10  A    between atoms: O_8  and  C_40
REMARK   11  A    between atoms: O_13  and  C_42
REMARK   12  A    between atoms: N_15  and  C_46
REMARK   13  A    between atoms: C_18  and  C_29
REMARK   14  A    between atoms: C_24  and  C_33
REMARK   15  A    between atoms: C_24  and  C_34
REMARK   16  A    between atoms: C_32  and  C_35
REMARK   17  A    between atoms: C_36  and  C_38
REMARK   18  A    between atoms: C_37  and  C_41
REMARK   19  A    between atoms: C_39  and  C_43
REMARK   20  A    between atoms: C_40  and  C_42
REMARK   21  A    between atoms: C_42  and  C_46
REMARK   22  A    between atoms: C_46  and  C_50
REMARK   23  A    between atoms: C_53  and  C_56
REMARK                            x       y       z     vdW  Elec       q    Type
REMARK                         _______ _______ _______ _____ _____    ______ ____
ROOT
ATOM      1  O   UNL     1     -16.527  35.252   5.434  0.00  0.00    +0.000 OA
ATOM      2  O   UNL     1     -22.693  36.188   7.791  0.00  0.00    +0.000 OA
ATOM      3  C   UNL     1     -19.622  36.578   4.726  0.00  0.00    +0.000 C 
ATOM      4  C   UNL     1     -18.087  36.644   4.978  0.00  0.00    +0.000 C 
ATOM      5  C   UNL     1     -20.468  36.723   6.418  0.00  0.00    +0.000 C 
ATOM      6  C   UNL     1     -17.948  35.264   5.741  0.00  0.00    +0.000 C 
ATOM      7  C   UNL     1     -20.136  37.625   3.271  0.00  0.00    +0.000 C 
ATOM      8  C   UNL     1     -21.673  38.182   2.315  0.00  0.00    +0.000 C 
ATOM      9  C   UNL     1     -19.924  35.475   7.231  0.00  0.00    +0.000 C 
ATOM     10  C   UNL     1     -18.380  35.264   7.189  0.00  0.00    +0.000 C 
ATOM     11  C   UNL     1     -23.380  37.999   2.761  0.00  0.00    +0.000 C 
ATOM     12  C   UNL     1     -16.892  35.971   4.194  0.00  0.00    +0.000 C 
ATOM     13  C   UNL     1     -22.315  36.800   6.769  0.00  0.00    +0.000 C 
ATOM     14  C   UNL     1     -21.582  39.774   2.233  0.00  0.00    +0.000 C 
ATOM     15  C   UNL     1     -23.682  38.596   4.220  0.00  0.00    +0.000 C 
ATOM     16  C   UNL     1     -19.934  37.954   7.262  0.00  0.00    +0.000 C 
ATOM     17  C   UNL     1     -23.700  37.669   5.760  0.00  0.00    +0.000 C 
ATOM     18  C   UNL     1     -22.381  40.636   3.313  0.00  0.00    +0.000 C 
ATOM     19  C   UNL     1     -23.406  39.942   4.283  0.00  0.00    +0.000 C 
ATOM     20  C   UNL     1     -24.221  38.878   1.705  0.00  0.00    +0.000 C 
ATOM     21  C   UNL     1     -24.114  36.658   2.437  0.00  0.00    +0.000 C 
ATOM     22  C   UNL     1     -23.839  40.804   5.443  0.00  0.00    +0.000 C 
ENDROOT
BRANCH   9  23
ATOM     23  O   UNL     1     -20.520  34.286   6.713  0.00  0.00    +0.000 OA
ATOM     24  H   UNL     1     -21.341  34.564   6.261  0.00  0.00    +0.000 HD
ENDBRANCH   9  23
BRANCH   8  25
ATOM     25  O   UNL     1     -21.493  37.691   0.973  0.00  0.00    +0.000 OA
ATOM     26  H   UNL     1     -21.849  36.786   0.919  0.00  0.00    +0.000 HD
ENDBRANCH   8  25
BRANCH  18  27
ATOM     27  O   UNL     1     -21.406  41.312   4.159  0.00  0.00    +0.000 OA
BRANCH  27  29
ATOM     28  O   UNL     1     -22.009  43.295   3.250  0.00  0.00    +0.000 OA
ATOM     29  C   UNL     1     -21.269  42.653   3.988  0.00  0.00    +0.000 C 
BRANCH  29  30
ATOM     30  C   UNL     1     -20.030  43.255   4.658  0.00  0.00    +0.000 C 
BRANCH  30  31
ATOM     31  O   UNL     1     -20.273  44.411   5.468  0.00  0.00    +0.000 OA
ATOM     32  H   UNL     1     -21.238  44.449   5.602  0.00  0.00    +0.000 HD
ENDBRANCH  30  31
BRANCH  30  33
ATOM     33  C   UNL     1     -18.990  43.576   3.549  0.00  0.00    +0.000 C 
BRANCH  33  34
ATOM     34  C   UNL     1     -17.583  43.231   4.017  0.00  0.00    +0.000 A 
ATOM     35  C   UNL     1     -17.354  42.965   5.378  0.00  0.00    +0.000 A 
ATOM     36  C   UNL     1     -16.491  43.202   3.135  0.00  0.00    +0.000 A 
ATOM     37  C   UNL     1     -16.072  42.659   5.839  0.00  0.00    +0.000 A 
ATOM     38  C   UNL     1     -15.211  42.894   3.597  0.00  0.00    +0.000 A 
ATOM     39  C   UNL     1     -15.002  42.621   4.948  0.00  0.00    +0.000 A 
ENDBRANCH  33  34
BRANCH  33  41
ATOM     40  O   UNL     1     -19.784  46.643   1.805  0.00  0.00    +0.000 OA
ATOM     41  N   UNL     1     -19.082  44.987   3.152  0.00  0.00    +0.000 N 
ATOM     42  C   UNL     1     -19.300  45.520   1.911  0.00  0.00    +0.000 C 
ATOM     43  H   UNL     1     -19.282  45.629   3.913  0.00  0.00    +0.000 HD
BRANCH  42  44
ATOM     44  C   UNL     1     -19.000  44.734   0.693  0.00  0.00    +0.000 A 
ATOM     45  C   UNL     1     -19.925  43.830   0.162  0.00  0.00    +0.000 A 
ATOM     46  C   UNL     1     -17.732  44.857   0.113  0.00  0.00    +0.000 A 
ATOM     47  C   UNL     1     -19.604  43.099  -0.982  0.00  0.00    +0.000 A 
ATOM     48  C   UNL     1     -17.412  44.123  -1.028  0.00  0.00    +0.000 A 
ATOM     49  C   UNL     1     -18.352  43.251  -1.580  0.00  0.00    +0.000 A 
ENDBRANCH  42  44
ENDBRANCH  33  41
ENDBRANCH  30  33
ENDBRANCH  29  30
ENDBRANCH  27  29
ENDBRANCH  18  27
BRANCH  17  50
ATOM     50  O   UNL     1     -24.896  36.866   5.657  0.00  0.00    +0.000 OA
BRANCH  50  52
ATOM     51  O   UNL     1     -26.172  36.118   7.337  0.00  0.00    +0.000 OA
ATOM     52  C   UNL     1     -25.943  36.990   6.504  0.00  0.00    +0.000 C 
ATOM     53  C   UNL     1     -26.851  38.170   6.329  0.00  0.00    +0.000 C 
ENDBRANCH  50  52
ENDBRANCH  17  50
BRANCH   7  54
ATOM     54  O   UNL     1     -20.385  38.567   4.156  0.00  0.00    +0.000 OA
BRANCH  54  56
ATOM     55  O   UNL     1     -19.095  39.982   4.765  0.00  0.00    +0.000 OA
ATOM     56  C   UNL     1     -19.232  39.230   3.806  0.00  0.00    +0.000 C 
BRANCH  56  57
ATOM     57  C   UNL     1     -18.407  39.116   2.083  0.00  0.00    +0.000 A 
ATOM     58  C   UNL     1     -18.026  40.256   1.252  0.00  0.00    +0.000 A 
ATOM     59  C   UNL     1     -17.929  37.942   1.425  0.00  0.00    +0.000 A 
ATOM     60  C   UNL     1     -17.315  40.224   0.026  0.00  0.00    +0.000 A 
ATOM     61  C   UNL     1     -17.215  37.889   0.194  0.00  0.00    +0.000 A 
ATOM     62  C   UNL     1     -16.904  39.030  -0.506  0.00  0.00    +0.000 A 
ENDBRANCH  56  57
ENDBRANCH  54  56
ENDBRANCH   7  54
BRANCH   4  63
ATOM     63  O   UNL     1     -17.709  37.800   5.762  0.00  0.00    +0.000 OA
BRANCH  63  65
ATOM     64  O   UNL     1     -15.839  37.980   6.974  0.00  0.00    +0.000 OA
ATOM     65  C   UNL     1     -16.438  38.230   5.930  0.00  0.00    +0.000 C 
ATOM     66  C   UNL     1     -15.817  39.108   4.891  0.00  0.00    +0.000 C 
ENDBRANCH  63  65
ENDBRANCH   4  63
TORSDOF 17
ENDMDL
MODEL 8
REMARK VINA RESULT:      -5.5     24.039     26.938
REMARK  Name = 
REMARK  23 active torsions:
REMARK  status: ('A' for Active; 'I' for Inactive)
REMARK    1  A    between atoms: O_2  and  C_17
REMARK    2  A    between atoms: O_2  and  C_36
REMARK    3  A    between atoms: O_3  and  C_20
REMARK    4  A    between atoms: O_3  and  C_37
REMARK    5  A    between atoms: O_4  and  C_21
REMARK    6  A    between atoms: O_5  and  C_22
REMARK    7  A    between atoms: O_6  and  C_30
REMARK    8  A    between atoms: O_6  and  C_39
REMARK    9  A    between atoms: O_8  and  C_31
REMARK   10  A    between atoms: O_8  and  C_40
REMARK   11  A    between atoms: O_13  and  C_42
REMARK   12  A    between atoms: N_15  and  C_46
REMARK   13  A    between atoms: C_18  and  C_29
REMARK   14  A    between atoms: C_24  and  C_33
REMARK   15  A    between atoms: C_24  and  C_34
REMARK   16  A    between atoms: C_32  and  C_35
REMARK   17  A    between atoms: C_36  and  C_38
REMARK   18  A    between atoms: C_37  and  C_41
REMARK   19  A    between atoms: C_39  and  C_43
REMARK   20  A    between atoms: C_40  and  C_42
REMARK   21  A    between atoms: C_42  and  C_46
REMARK   22  A    between atoms: C_46  and  C_50
REMARK   23  A    between atoms: C_53  and  C_56
REMARK                            x       y       z     vdW  Elec       q    Type
REMARK                         _______ _______ _______ _____ _____    ______ ____
ROOT
ATOM      1  O   UNL     1       5.570  38.115   3.248  0.00  0.00    +0.000 OA
ATOM      2  O   UNL     1      12.045  36.882   4.254  0.00  0.00    +0.000 OA
ATOM      3  C   UNL     1       8.097  38.157   5.583  0.00  0.00    +0.000 C 
ATOM      4  C   UNL     1       6.998  38.800   4.687  0.00  0.00    +0.000 C 
ATOM      5  C   UNL     1       9.689  38.099   4.552  0.00  0.00    +0.000 C 
ATOM      6  C   UNL     1       6.884  37.625   3.633  0.00  0.00    +0.000 C 
ATOM      7  C   UNL     1       8.068  38.837   7.319  0.00  0.00    +0.000 C 
ATOM      8  C   UNL     1       8.986  38.720   8.972  0.00  0.00    +0.000 C 
ATOM      9  C   UNL     1       9.309  37.199   3.303  0.00  0.00    +0.000 C 
ATOM     10  C   UNL     1       7.974  37.568   2.587  0.00  0.00    +0.000 C 
ATOM     11  C   UNL     1      10.548  37.955   9.319  0.00  0.00    +0.000 C 
ATOM     12  C   UNL     1       5.437  38.560   4.653  0.00  0.00    +0.000 C 
ATOM     13  C   UNL     1      11.389  37.517   5.108  0.00  0.00    +0.000 C 
ATOM     14  C   UNL     1       9.322  40.225   9.391  0.00  0.00    +0.000 C 
ATOM     15  C   UNL     1      11.707  38.500   8.352  0.00  0.00    +0.000 C 
ATOM     16  C   UNL     1      10.035  39.497   3.888  0.00  0.00    +0.000 C 
ATOM     17  C   UNL     1      12.245  37.742   6.813  0.00  0.00    +0.000 C 
ATOM     18  C   UNL     1      10.765  40.806   9.039  0.00  0.00    +0.000 C 
ATOM     19  C   UNL     1      11.896  39.854   8.502  0.00  0.00    +0.000 C 
ATOM     20  C   UNL     1      10.940  38.386  10.821  0.00  0.00    +0.000 C 
ATOM     21  C   UNL     1      10.599  36.418   9.601  0.00  0.00    +0.000 C 
ATOM     22  C   UNL     1      13.084  40.576   7.916  0.00  0.00    +0.000 C 
ENDROOT
BRANCH   9  23
ATOM     23  O   UNL     1       9.192  35.841   3.726  0.00  0.00    +0.000 OA
ATOM     24  H   UNL     1      10.104  35.516   3.864  0.00  0.00    +0.000 HD
ENDBRANCH   9  23
BRANCH   8  25
ATOM     25  O   UNL     1       8.015  38.236   9.920  0.00  0.00    +0.000 OA
ATOM     26  H   UNL     1       7.149  38.180   9.480  0.00  0.00    +0.000 HD
ENDBRANCH   8  25
BRANCH  18  27
ATOM     27  O   UNL     1      10.596  41.851   8.037  0.00  0.00    +0.000 OA
BRANCH  27  29
ATOM     28  O   UNL     1       9.642  43.675   8.977  0.00  0.00    +0.000 OA
ATOM     29  C   UNL     1      10.624  43.135   8.479  0.00  0.00    +0.000 C 
BRANCH  29  30
ATOM     30  C   UNL     1      11.918  43.889   8.156  0.00  0.00    +0.000 C 
BRANCH  30  31
ATOM     31  O   UNL     1      12.683  44.306   9.293  0.00  0.00    +0.000 OA
ATOM     32  H   UNL     1      12.279  45.139   9.600  0.00  0.00    +0.000 HD
ENDBRANCH  30  31
BRANCH  30  33
ATOM     33  C   UNL     1      11.556  45.110   7.265  0.00  0.00    +0.000 C 
BRANCH  33  34
ATOM     34  C   UNL     1      12.160  44.959   5.876  0.00  0.00    +0.000 A 
ATOM     35  C   UNL     1      12.743  43.734   5.506  0.00  0.00    +0.000 A 
ATOM     36  C   UNL     1      12.184  46.018   4.956  0.00  0.00    +0.000 A 
ATOM     37  C   UNL     1      13.317  43.570   4.245  0.00  0.00    +0.000 A 
ATOM     38  C   UNL     1      12.756  45.851   3.694  0.00  0.00    +0.000 A 
ATOM     39  C   UNL     1      13.321  44.627   3.338  0.00  0.00    +0.000 A 
ENDBRANCH  33  34
BRANCH  33  41
ATOM     40  O   UNL     1      11.688  48.155   9.212  0.00  0.00    +0.000 OA
ATOM     41  N   UNL     1      12.000  46.358   7.900  0.00  0.00    +0.000 N 
ATOM     42  C   UNL     1      11.252  47.418   8.333  0.00  0.00    +0.000 C 
ATOM     43  H   UNL     1      12.927  46.316   8.314  0.00  0.00    +0.000 HD
BRANCH  42  44
ATOM     44  C   UNL     1       9.899  47.657   7.782  0.00  0.00    +0.000 A 
ATOM     45  C   UNL     1       9.716  48.204   6.508  0.00  0.00    +0.000 A 
ATOM     46  C   UNL     1       8.790  47.389   8.593  0.00  0.00    +0.000 A 
ATOM     47  C   UNL     1       8.425  48.424   6.025  0.00  0.00    +0.000 A 
ATOM     48  C   UNL     1       7.501  47.613   8.109  0.00  0.00    +0.000 A 
ATOM     49  C   UNL     1       7.321  48.121   6.822  0.00  0.00    +0.000 A 
ENDBRANCH  42  44
ENDBRANCH  33  41
ENDBRANCH  30  33
ENDBRANCH  29  30
ENDBRANCH  27  29
ENDBRANCH  18  27
BRANCH  17  50
ATOM     50  O   UNL     1      12.937  36.551   7.247  0.00  0.00    +0.000 OA
BRANCH  50  52
ATOM     51  O   UNL     1      14.823  35.402   7.611  0.00  0.00    +0.000 OA
ATOM     52  C   UNL     1      14.274  36.389   7.129  0.00  0.00    +0.000 C 
ATOM     53  C   UNL     1      15.058  37.487   6.476  0.00  0.00    +0.000 C 
ENDBRANCH  50  52
ENDBRANCH  17  50
BRANCH   7  54
ATOM     54  O   UNL     1       8.989  39.681   6.904  0.00  0.00    +0.000 OA
BRANCH  54  56
ATOM     55  O   UNL     1       7.107  40.158   7.419  0.00  0.00    +0.000 OA
ATOM     56  C   UNL     1       8.080  40.712   6.919  0.00  0.00    +0.000 C 
BRANCH  56  57
ATOM     57  C   UNL     1       8.340  42.388   6.032  0.00  0.00    +0.000 A 
ATOM     58  C   UNL     1       9.240  42.615   4.903  0.00  0.00    +0.000 A 
ATOM     59  C   UNL     1       7.619  43.603   6.242  0.00  0.00    +0.000 A 
ATOM     60  C   UNL     1       9.382  43.804   4.146  0.00  0.00    +0.000 A 
ATOM     61  C   UNL     1       7.749  44.807   5.494  0.00  0.00    +0.000 A 
ATOM     62  C   UNL     1       8.628  44.910   4.442  0.00  0.00    +0.000 A 
ENDBRANCH  56  57
ENDBRANCH  54  56
ENDBRANCH   7  54
BRANCH   4  63
ATOM     63  O   UNL     1       7.419  40.066   4.127  0.00  0.00    +0.000 OA
BRANCH  63  65
ATOM     64  O   UNL     1       6.927  40.917   2.119  0.00  0.00    +0.000 OA
ATOM     65  C   UNL     1       6.659  40.836   3.316  0.00  0.00    +0.000 C 
ATOM     66  C   UNL     1       5.571  41.675   3.908  0.00  0.00    +0.000 C 
ENDBRANCH  63  65
ENDBRANCH   4  63
TORSDOF 17
ENDMDL
MODEL 9
REMARK VINA RESULT:      -5.4     22.049     26.136
REMARK  Name = 
REMARK  23 active torsions:
REMARK  status: ('A' for Active; 'I' for Inactive)
REMARK    1  A    between atoms: O_2  and  C_17
REMARK    2  A    between atoms: O_2  and  C_36
REMARK    3  A    between atoms: O_3  and  C_20
REMARK    4  A    between atoms: O_3  and  C_37
REMARK    5  A    between atoms: O_4  and  C_21
REMARK    6  A    between atoms: O_5  and  C_22
REMARK    7  A    between atoms: O_6  and  C_30
REMARK    8  A    between atoms: O_6  and  C_39
REMARK    9  A    between atoms: O_8  and  C_31
REMARK   10  A    between atoms: O_8  and  C_40
REMARK   11  A    between atoms: O_13  and  C_42
REMARK   12  A    between atoms: N_15  and  C_46
REMARK   13  A    between atoms: C_18  and  C_29
REMARK   14  A    between atoms: C_24  and  C_33
REMARK   15  A    between atoms: C_24  and  C_34
REMARK   16  A    between atoms: C_32  and  C_35
REMARK   17  A    between atoms: C_36  and  C_38
REMARK   18  A    between atoms: C_37  and  C_41
REMARK   19  A    between atoms: C_39  and  C_43
REMARK   20  A    between atoms: C_40  and  C_42
REMARK   21  A    between atoms: C_42  and  C_46
REMARK   22  A    between atoms: C_46  and  C_50
REMARK   23  A    between atoms: C_53  and  C_56
REMARK                            x       y       z     vdW  Elec       q    Type
REMARK                         _______ _______ _______ _____ _____    ______ ____
ROOT
ATOM      1  O   UNL     1       8.839  49.757   6.486  0.00  0.00    +0.000 OA
ATOM      2  O   UNL     1      13.428  48.901  11.247  0.00  0.00    +0.000 OA
ATOM      3  C   UNL     1      11.370  47.708   7.597  0.00  0.00    +0.000 C 
ATOM      4  C   UNL     1       9.897  48.051   7.228  0.00  0.00    +0.000 C 
ATOM      5  C   UNL     1      11.620  48.211   9.409  0.00  0.00    +0.000 C 
ATOM      6  C   UNL     1      10.031  49.626   7.309  0.00  0.00    +0.000 C 
ATOM      7  C   UNL     1      11.876  46.030   6.959  0.00  0.00    +0.000 C 
ATOM      8  C   UNL     1      13.334  44.820   6.964  0.00  0.00    +0.000 C 
ATOM      9  C   UNL     1      11.330  49.771   9.421  0.00  0.00    +0.000 C 
ATOM     10  C   UNL     1      10.023  50.219   8.699  0.00  0.00    +0.000 C 
ATOM     11  C   UNL     1      14.810  44.870   7.946  0.00  0.00    +0.000 C 
ATOM     12  C   UNL     1       9.264  48.490   5.849  0.00  0.00    +0.000 C 
ATOM     13  C   UNL     1      13.160  47.966  10.461  0.00  0.00    +0.000 C 
ATOM     14  C   UNL     1      12.735  43.419   7.445  0.00  0.00    +0.000 C 
ATOM     15  C   UNL     1      14.480  44.975   9.514  0.00  0.00    +0.000 C 
ATOM     16  C   UNL     1      10.491  47.635  10.362  0.00  0.00    +0.000 C 
ATOM     17  C   UNL     1      14.389  46.490  10.478  0.00  0.00    +0.000 C 
ATOM     18  C   UNL     1      12.867  43.027   8.986  0.00  0.00    +0.000 C 
ATOM     19  C   UNL     1      13.758  43.890   9.953  0.00  0.00    +0.000 C 
ATOM     20  C   UNL     1      15.558  43.463   7.711  0.00  0.00    +0.000 C 
ATOM     21  C   UNL     1      16.014  45.746   7.470  0.00  0.00    +0.000 C 
ATOM     22  C   UNL     1      13.539  43.601  11.417  0.00  0.00    +0.000 C 
ENDROOT
BRANCH   9  23
ATOM     23  O   UNL     1      12.411  50.450   8.783  0.00  0.00    +0.000 OA
ATOM     24  H   UNL     1      12.893  49.775   8.265  0.00  0.00    +0.000 HD
ENDBRANCH   9  23
BRANCH   8  25
ATOM     25  O   UNL     1      13.705  44.656   5.582  0.00  0.00    +0.000 OA
ATOM     26  H   UNL     1      12.995  45.015   5.022  0.00  0.00    +0.000 HD
ENDBRANCH   8  25
BRANCH  18  27
ATOM     27  O   UNL     1      11.528  43.014   9.562  0.00  0.00    +0.000 OA
BRANCH  27  29
ATOM     28  O   UNL     1      11.519  40.772   9.869  0.00  0.00    +0.000 OA
ATOM     29  C   UNL     1      10.906  41.810   9.643  0.00  0.00    +0.000 C 
BRANCH  29  30
ATOM     30  C   UNL     1       9.420  41.836   9.271  0.00  0.00    +0.000 C 
BRANCH  30  31
ATOM     31  O   UNL     1       8.519  42.060  10.362  0.00  0.00    +0.000 OA
ATOM     32  H   UNL     1       7.851  42.691  10.035  0.00  0.00    +0.000 HD
ENDBRANCH  30  31
BRANCH  30  33
ATOM     33  C   UNL     1       9.080  40.504   8.547  0.00  0.00    +0.000 C 
BRANCH  33  34
ATOM     34  C   UNL     1       8.391  40.777   7.217  0.00  0.00    +0.000 A 
ATOM     35  C   UNL     1       8.519  39.848   6.170  0.00  0.00    +0.000 A 
ATOM     36  C   UNL     1       7.652  41.948   6.988  0.00  0.00    +0.000 A 
ATOM     37  C   UNL     1       7.910  40.076   4.935  0.00  0.00    +0.000 A 
ATOM     38  C   UNL     1       7.042  42.174   5.753  0.00  0.00    +0.000 A 
ATOM     39  C   UNL     1       7.169  41.237   4.728  0.00  0.00    +0.000 A 
ENDBRANCH  33  34
BRANCH  33  41
ATOM     40  O   UNL     1       7.945  38.221  11.112  0.00  0.00    +0.000 OA
ATOM     41  N   UNL     1       8.247  39.652   9.406  0.00  0.00    +0.000 N 
ATOM     42  C   UNL     1       8.605  38.548  10.130  0.00  0.00    +0.000 C 
ATOM     43  H   UNL     1       7.382  40.082   9.719  0.00  0.00    +0.000 HD
BRANCH  42  44
ATOM     44  C   UNL     1       9.810  37.769   9.765  0.00  0.00    +0.000 A 
ATOM     45  C   UNL     1       9.939  37.172   8.507  0.00  0.00    +0.000 A 
ATOM     46  C   UNL     1      10.801  37.577  10.735  0.00  0.00    +0.000 A 
ATOM     47  C   UNL     1      11.086  36.437   8.201  0.00  0.00    +0.000 A 
ATOM     48  C   UNL     1      11.944  36.839  10.428  0.00  0.00    +0.000 A 
ATOM     49  C   UNL     1      12.089  36.278   9.158  0.00  0.00    +0.000 A 
ENDBRANCH  42  44
ENDBRANCH  33  41
ENDBRANCH  30  33
ENDBRANCH  29  30
ENDBRANCH  27  29
ENDBRANCH  18  27
BRANCH  17  50
ATOM     50  O   UNL     1      15.765  46.916  10.568  0.00  0.00    +0.000 OA
BRANCH  50  52
ATOM     51  O   UNL     1      16.546  47.848  12.447  0.00  0.00    +0.000 OA
ATOM     52  C   UNL     1      16.481  46.866  11.714  0.00  0.00    +0.000 C 
ATOM     53  C   UNL     1      17.251  45.613  12.005  0.00  0.00    +0.000 C 
ENDBRANCH  50  52
ENDBRANCH  17  50
BRANCH   7  54
ATOM     54  O   UNL     1      11.540  45.579   8.149  0.00  0.00    +0.000 OA
BRANCH  54  56
ATOM     55  O   UNL     1       9.714  44.936   8.689  0.00  0.00    +0.000 OA
ATOM     56  C   UNL     1      10.351  45.098   7.653  0.00  0.00    +0.000 C 
BRANCH  56  57
ATOM     57  C   UNL     1      10.081  44.565   5.835  0.00  0.00    +0.000 A 
ATOM     58  C   UNL     1      10.566  43.322   5.239  0.00  0.00    +0.000 A 
ATOM     59  C   UNL     1       9.277  45.214   4.849  0.00  0.00    +0.000 A 
ATOM     60  C   UNL     1      10.297  42.833   3.936  0.00  0.00    +0.000 A 
ATOM     61  C   UNL     1       8.997  44.741   3.536  0.00  0.00    +0.000 A 
ATOM     62  C   UNL     1       9.503  43.549   3.077  0.00  0.00    +0.000 A 
ENDBRANCH  56  57
ENDBRANCH  54  56
ENDBRANCH   7  54
BRANCH   4  63
ATOM     63  O   UNL     1       8.951  47.483   8.164  0.00  0.00    +0.000 OA
BRANCH  63  65
ATOM     64  O   UNL     1       7.122  46.792   7.080  0.00  0.00    +0.000 OA
ATOM     65  C   UNL     1       7.611  47.466   7.984  0.00  0.00    +0.000 C 
ATOM     66  C   UNL     1       6.747  48.362   8.814  0.00  0.00    +0.000 C 
ENDBRANCH  63  65
ENDBRANCH   4  63
TORSDOF 17
ENDMDL
