MODEL 1
REMARK VINA RESULT:      -8.0      0.000      0.000
REMARK  Name = 
REMARK  5 active torsions:
REMARK  status: ('A' for Active; 'I' for Inactive)
REMARK    1  A    between atoms: O_1  and  C_16
REMARK    2  A    between atoms: O_3  and  C_25
REMARK    3  A    between atoms: C_11  and  C_22
REMARK    4  A    between atoms: C_16  and  C_28
REMARK    5  A    between atoms: C_29  and  C_31
REMARK                            x       y       z     vdW  Elec       q    Type
REMARK                         _______ _______ _______ _____ _____    ______ ____
ROOT
ATOM      1  O   UNL     1       2.903  50.123  28.347  0.00  0.00    +0.000 OA
ATOM      2  N   UNL     1      -6.157  48.539  25.987  0.00  0.00    +0.000 NA
ATOM      3  C   UNL     1      -2.951  49.133  28.036  0.00  0.00    +0.000 C 
ATOM      4  C   UNL     1      -1.656  48.327  28.323  0.00  0.00    +0.000 C 
ATOM      5  C   UNL     1      -1.139  50.676  28.313  0.00  0.00    +0.000 C 
ATOM      6  C   UNL     1      -0.511  49.308  28.020  0.00  0.00    +0.000 C 
ATOM      7  C   UNL     1      -3.896  48.442  27.033  0.00  0.00    +0.000 C 
ATOM      8  C   UNL     1      -2.486  50.541  27.610  0.00  0.00    +0.000 C 
ATOM      9  C   UNL     1      -0.198  51.853  27.943  0.00  0.00    +0.000 C 
ATOM     10  C   UNL     1      -4.148  46.988  27.489  0.00  0.00    +0.000 C 
ATOM     11  C   UNL     1      -1.554  47.042  27.508  0.00  0.00    +0.000 C 
ATOM     12  C   UNL     1       1.089  51.664  28.803  0.00  0.00    +0.000 C 
ATOM     13  C   UNL     1      -2.821  46.193  27.589  0.00  0.00    +0.000 C 
ATOM     14  C   UNL     1      -5.217  46.296  26.595  0.00  0.00    +0.000 C 
ATOM     15  C   UNL     1       0.778  49.095  28.800  0.00  0.00    +0.000 C 
ATOM     16  C   UNL     1      -5.217  49.211  26.901  0.00  0.00    +0.000 C 
ATOM     17  C   UNL     1      -6.514  47.184  26.494  0.00  0.00    +0.000 C 
ATOM     18  C   UNL     1      -0.848  53.202  28.342  0.00  0.00    +0.000 C 
ATOM     19  C   UNL     1       1.706  50.282  28.580  0.00  0.00    +0.000 C 
ATOM     20  C   UNL     1       0.125  51.880  26.428  0.00  0.00    +0.000 C 
ATOM     21  C   UNL     1       2.082  52.814  28.632  0.00  0.00    +0.000 C 
ATOM     22  C   UNL     1       0.117  54.387  28.244  0.00  0.00    +0.000 C 
ATOM     23  C   UNL     1       1.427  54.148  28.996  0.00  0.00    +0.000 C 
ATOM     24  C   UNL     1      -7.573  46.527  25.573  0.00  0.00    +0.000 C 
ATOM     25  C   UNL     1      -7.351  49.394  25.834  0.00  0.00    +0.000 C 
ATOM     26  C   UNL     1      -5.542  44.891  27.122  0.00  0.00    +0.000 C 
ATOM     27  C   UNL     1      -8.381  48.811  24.861  0.00  0.00    +0.000 C 
ATOM     28  C   UNL     1      -8.787  47.417  25.332  0.00  0.00    +0.000 C 
ATOM     29  C   UNL     1      -7.864  48.804  23.420  0.00  0.00    +0.000 C 
ENDROOT
BRANCH  14  30
ATOM     30  O   UNL     1      -4.665  46.145  25.276  0.00  0.00    +0.000 OA
ATOM     31  H   UNL     1      -4.941  46.949  24.791  0.00  0.00    +0.000 HD
ENDBRANCH  14  30
BRANCH  23  32
ATOM     32  O   UNL     1       2.316  55.219  28.700  0.00  0.00    +0.000 OA
ATOM     33  H   UNL     1       1.784  55.967  28.378  0.00  0.00    +0.000 HD
ENDBRANCH  23  32
TORSDOF 2
ENDMDL
MODEL 2
REMARK VINA RESULT:      -7.6     27.597     29.879
REMARK  Name = 
REMARK  5 active torsions:
REMARK  status: ('A' for Active; 'I' for Inactive)
REMARK    1  A    between atoms: O_1  and  C_16
REMARK    2  A    between atoms: O_3  and  C_25
REMARK    3  A    between atoms: C_11  and  C_22
REMARK    4  A    between atoms: C_16  and  C_28
REMARK    5  A    between atoms: C_29  and  C_31
REMARK                            x       y       z     vdW  Elec       q    Type
REMARK                         _______ _______ _______ _____ _____    ______ ____
ROOT
ATOM      1  O   UNL     1     -15.011  39.930   5.112  0.00  0.00    +0.000 OA
ATOM      2  N   UNL     1     -22.451  34.268   6.768  0.00  0.00    +0.000 NA
ATOM      3  C   UNL     1     -19.563  36.766   7.261  0.00  0.00    +0.000 C 
ATOM      4  C   UNL     1     -18.013  36.687   7.227  0.00  0.00    +0.000 C 
ATOM      5  C   UNL     1     -18.709  38.857   6.461  0.00  0.00    +0.000 C 
ATOM      6  C   UNL     1     -17.583  37.829   6.292  0.00  0.00    +0.000 C 
ATOM      7  C   UNL     1     -20.255  35.442   6.882  0.00  0.00    +0.000 C 
ATOM      8  C   UNL     1     -19.943  37.965   6.366  0.00  0.00    +0.000 C 
ATOM      9  C   UNL     1     -18.562  40.062   5.493  0.00  0.00    +0.000 C 
ATOM     10  C   UNL     1     -19.666  34.297   7.735  0.00  0.00    +0.000 C 
ATOM     11  C   UNL     1     -17.490  35.330   6.768  0.00  0.00    +0.000 C 
ATOM     12  C   UNL     1     -17.189  40.719   5.828  0.00  0.00    +0.000 C 
ATOM     13  C   UNL     1     -18.136  34.167   7.520  0.00  0.00    +0.000 C 
ATOM     14  C   UNL     1     -20.438  32.967   7.500  0.00  0.00    +0.000 C 
ATOM     15  C   UNL     1     -16.215  38.437   6.560  0.00  0.00    +0.000 C 
ATOM     16  C   UNL     1     -21.774  35.540   7.073  0.00  0.00    +0.000 C 
ATOM     17  C   UNL     1     -21.987  33.187   7.681  0.00  0.00    +0.000 C 
ATOM     18  C   UNL     1     -19.674  41.106   5.769  0.00  0.00    +0.000 C 
ATOM     19  C   UNL     1     -16.050  39.702   5.730  0.00  0.00    +0.000 C 
ATOM     20  C   UNL     1     -18.642  39.625   4.009  0.00  0.00    +0.000 C 
ATOM     21  C   UNL     1     -16.940  41.997   5.027  0.00  0.00    +0.000 C 
ATOM     22  C   UNL     1     -19.449  42.431   5.036  0.00  0.00    +0.000 C 
ATOM     23  C   UNL     1     -18.056  43.013   5.277  0.00  0.00    +0.000 C 
ATOM     24  C   UNL     1     -22.774  31.879   7.410  0.00  0.00    +0.000 C 
ATOM     25  C   UNL     1     -23.909  34.479   6.871  0.00  0.00    +0.000 C 
ATOM     26  C   UNL     1     -19.918  31.863   8.432  0.00  0.00    +0.000 C 
ATOM     27  C   UNL     1     -24.719  33.226   6.525  0.00  0.00    +0.000 C 
ATOM     28  C   UNL     1     -24.285  32.078   7.434  0.00  0.00    +0.000 C 
ATOM     29  C   UNL     1     -24.600  32.861   5.043  0.00  0.00    +0.000 C 
ENDROOT
BRANCH  14  30
ATOM     30  O   UNL     1     -20.193  32.541   6.149  0.00  0.00    +0.000 OA
ATOM     31  H   UNL     1     -19.490  33.136   5.819  0.00  0.00    +0.000 HD
ENDBRANCH  14  30
BRANCH  23  32
ATOM     32  O   UNL     1     -17.885  44.138   4.422  0.00  0.00    +0.000 OA
ATOM     33  H   UNL     1     -17.083  44.610   4.707  0.00  0.00    +0.000 HD
ENDBRANCH  23  32
TORSDOF 2
ENDMDL
MODEL 3
REMARK VINA RESULT:      -7.2     27.089     29.480
REMARK  Name = 
REMARK  5 active torsions:
REMARK  status: ('A' for Active; 'I' for Inactive)
REMARK    1  A    between atoms: O_1  and  C_16
REMARK    2  A    between atoms: O_3  and  C_25
REMARK    3  A    between atoms: C_11  and  C_22
REMARK    4  A    between atoms: C_16  and  C_28
REMARK    5  A    between atoms: C_29  and  C_31
REMARK                            x       y       z     vdW  Elec       q    Type
REMARK                         _______ _______ _______ _____ _____    ______ ____
ROOT
ATOM      1  O   UNL     1     -14.671  31.515   3.138  0.00  0.00    +0.000 OA
ATOM      2  N   UNL     1     -16.780  40.493   5.396  0.00  0.00    +0.000 NA
ATOM      3  C   UNL     1     -16.088  36.714   5.650  0.00  0.00    +0.000 C 
ATOM      4  C   UNL     1     -16.808  35.423   5.179  0.00  0.00    +0.000 C 
ATOM      5  C   UNL     1     -14.433  35.054   5.154  0.00  0.00    +0.000 C 
ATOM      6  C   UNL     1     -15.723  34.612   4.452  0.00  0.00    +0.000 C 
ATOM      7  C   UNL     1     -16.775  38.010   5.178  0.00  0.00    +0.000 C 
ATOM      8  C   UNL     1     -14.620  36.567   5.195  0.00  0.00    +0.000 C 
ATOM      9  C   UNL     1     -13.162  34.459   4.489  0.00  0.00    +0.000 C 
ATOM     10  C   UNL     1     -18.274  37.955   5.549  0.00  0.00    +0.000 C 
ATOM     11  C   UNL     1     -18.019  35.699   4.294  0.00  0.00    +0.000 C 
ATOM     12  C   UNL     1     -13.312  32.910   4.581  0.00  0.00    +0.000 C 
ATOM     13  C   UNL     1     -18.968  36.730   4.902  0.00  0.00    +0.000 C 
ATOM     14  C   UNL     1     -18.980  39.305   5.232  0.00  0.00    +0.000 C 
ATOM     15  C   UNL     1     -15.890  33.099   4.471  0.00  0.00    +0.000 C 
ATOM     16  C   UNL     1     -16.105  39.245   5.792  0.00  0.00    +0.000 C 
ATOM     17  C   UNL     1     -18.191  40.507   5.873  0.00  0.00    +0.000 C 
ATOM     18  C   UNL     1     -11.900  34.867   5.291  0.00  0.00    +0.000 C 
ATOM     19  C   UNL     1     -14.622  32.442   3.944  0.00  0.00    +0.000 C 
ATOM     20  C   UNL     1     -13.000  34.934   3.024  0.00  0.00    +0.000 C 
ATOM     21  C   UNL     1     -12.079  32.170   4.061  0.00  0.00    +0.000 C 
ATOM     22  C   UNL     1     -10.640  34.116   4.851  0.00  0.00    +0.000 C 
ATOM     23  C   UNL     1     -10.830  32.600   4.833  0.00  0.00    +0.000 C 
ATOM     24  C   UNL     1     -18.860  41.863   5.531  0.00  0.00    +0.000 C 
ATOM     25  C   UNL     1     -16.010  41.632   5.938  0.00  0.00    +0.000 C 
ATOM     26  C   UNL     1     -20.441  39.280   5.705  0.00  0.00    +0.000 C 
ATOM     27  C   UNL     1     -16.600  42.990   5.545  0.00  0.00    +0.000 C 
ATOM     28  C   UNL     1     -18.053  43.064   6.010  0.00  0.00    +0.000 C 
ATOM     29  C   UNL     1     -16.463  43.258   4.043  0.00  0.00    +0.000 C 
ENDROOT
BRANCH  14  30
ATOM     30  O   UNL     1     -18.993  39.478   3.805  0.00  0.00    +0.000 OA
ATOM     31  H   UNL     1     -19.319  38.626   3.449  0.00  0.00    +0.000 HD
ENDBRANCH  14  30
BRANCH  23  32
ATOM     32  O   UNL     1      -9.674  32.010   4.248  0.00  0.00    +0.000 OA
ATOM     33  H   UNL     1      -9.491  31.181   4.724  0.00  0.00    +0.000 HD
ENDBRANCH  23  32
TORSDOF 2
ENDMDL
MODEL 4
REMARK VINA RESULT:      -6.5      6.789     10.824
REMARK  Name = 
REMARK  5 active torsions:
REMARK  status: ('A' for Active; 'I' for Inactive)
REMARK    1  A    between atoms: O_1  and  C_16
REMARK    2  A    between atoms: O_3  and  C_25
REMARK    3  A    between atoms: C_11  and  C_22
REMARK    4  A    between atoms: C_16  and  C_28
REMARK    5  A    between atoms: C_29  and  C_31
REMARK                            x       y       z     vdW  Elec       q    Type
REMARK                         _______ _______ _______ _____ _____    ______ ____
ROOT
ATOM      1  O   UNL     1     -14.736  47.301  33.438  0.00  0.00    +0.000 OA
ATOM      2  N   UNL     1      -8.296  48.472  26.560  0.00  0.00    +0.000 NA
ATOM      3  C   UNL     1     -10.970  49.179  29.239  0.00  0.00    +0.000 C 
ATOM      4  C   UNL     1     -12.489  48.898  29.388  0.00  0.00    +0.000 C 
ATOM      5  C   UNL     1     -11.460  48.846  31.561  0.00  0.00    +0.000 C 
ATOM      6  C   UNL     1     -12.632  48.246  30.773  0.00  0.00    +0.000 C 
ATOM      7  C   UNL     1     -10.353  48.569  27.965  0.00  0.00    +0.000 C 
ATOM      8  C   UNL     1     -10.322  48.701  30.555  0.00  0.00    +0.000 C 
ATOM      9  C   UNL     1     -11.315  48.222  32.974  0.00  0.00    +0.000 C 
ATOM     10  C   UNL     1     -11.194  48.991  26.740  0.00  0.00    +0.000 C 
ATOM     11  C   UNL     1     -13.051  48.024  28.272  0.00  0.00    +0.000 C 
ATOM     12  C   UNL     1     -12.655  48.513  33.715  0.00  0.00    +0.000 C 
ATOM     13  C   UNL     1     -12.666  48.526  26.882  0.00  0.00    +0.000 C 
ATOM     14  C   UNL     1     -10.524  48.529  25.413  0.00  0.00    +0.000 C 
ATOM     15  C   UNL     1     -13.961  48.461  31.482  0.00  0.00    +0.000 C 
ATOM     16  C   UNL     1      -8.890  49.001  27.800  0.00  0.00    +0.000 C 
ATOM     17  C   UNL     1      -9.019  48.988  25.363  0.00  0.00    +0.000 C 
ATOM     18  C   UNL     1     -10.174  48.925  33.753  0.00  0.00    +0.000 C 
ATOM     19  C   UNL     1     -13.852  47.982  32.923  0.00  0.00    +0.000 C 
ATOM     20  C   UNL     1     -11.014  46.704  32.908  0.00  0.00    +0.000 C 
ATOM     21  C   UNL     1     -12.632  48.052  35.172  0.00  0.00    +0.000 C 
ATOM     22  C   UNL     1     -10.135  48.545  35.236  0.00  0.00    +0.000 C 
ATOM     23  C   UNL     1     -11.485  48.724  35.930  0.00  0.00    +0.000 C 
ATOM     24  C   UNL     1      -8.327  48.498  24.065  0.00  0.00    +0.000 C 
ATOM     25  C   UNL     1      -6.867  48.841  26.533  0.00  0.00    +0.000 C 
ATOM     26  C   UNL     1     -11.308  49.047  24.198  0.00  0.00    +0.000 C 
ATOM     27  C   UNL     1      -6.134  48.299  25.302  0.00  0.00    +0.000 C 
ATOM     28  C   UNL     1      -6.832  48.797  24.039  0.00  0.00    +0.000 C 
ATOM     29  C   UNL     1      -6.021  46.772  25.333  0.00  0.00    +0.000 C 
ENDROOT
BRANCH  14  30
ATOM     30  O   UNL     1     -10.564  47.092  25.371  0.00  0.00    +0.000 OA
ATOM     31  H   UNL     1     -11.395  46.875  24.903  0.00  0.00    +0.000 HD
ENDBRANCH  14  30
BRANCH  23  32
ATOM     32  O   UNL     1     -11.391  48.182  37.242  0.00  0.00    +0.000 OA
ATOM     33  H   UNL     1     -11.011  47.289  37.169  0.00  0.00    +0.000 HD
ENDBRANCH  23  32
TORSDOF 2
ENDMDL
MODEL 5
REMARK VINA RESULT:      -6.2     27.870     29.904
REMARK  Name = 
REMARK  5 active torsions:
REMARK  status: ('A' for Active; 'I' for Inactive)
REMARK    1  A    between atoms: O_1  and  C_16
REMARK    2  A    between atoms: O_3  and  C_25
REMARK    3  A    between atoms: C_11  and  C_22
REMARK    4  A    between atoms: C_16  and  C_28
REMARK    5  A    between atoms: C_29  and  C_31
REMARK                            x       y       z     vdW  Elec       q    Type
REMARK                         _______ _______ _______ _____ _____    ______ ____
ROOT
ATOM      1  O   UNL     1     -18.516  45.443   0.830  0.00  0.00    +0.000 OA
ATOM      2  N   UNL     1     -18.982  37.701   6.307  0.00  0.00    +0.000 NA
ATOM      3  C   UNL     1     -18.457  41.326   5.118  0.00  0.00    +0.000 C 
ATOM      4  C   UNL     1     -17.440  42.053   4.199  0.00  0.00    +0.000 C 
ATOM      5  C   UNL     1     -19.576  43.142   4.028  0.00  0.00    +0.000 C 
ATOM      6  C   UNL     1     -18.306  42.858   3.217  0.00  0.00    +0.000 C 
ATOM      7  C   UNL     1     -18.257  39.799   5.171  0.00  0.00    +0.000 C 
ATOM      8  C   UNL     1     -19.854  41.771   4.635  0.00  0.00    +0.000 C 
ATOM      9  C   UNL     1     -20.676  43.840   3.183  0.00  0.00    +0.000 C 
ATOM     10  C   UNL     1     -16.780  39.490   5.501  0.00  0.00    +0.000 C 
ATOM     11  C   UNL     1     -16.484  41.100   3.488  0.00  0.00    +0.000 C 
ATOM     12  C   UNL     1     -20.053  45.180   2.686  0.00  0.00    +0.000 C 
ATOM     13  C   UNL     1     -15.828  40.105   4.443  0.00  0.00    +0.000 C 
ATOM     14  C   UNL     1     -16.560  37.964   5.718  0.00  0.00    +0.000 C 
ATOM     15  C   UNL     1     -17.686  44.134   2.666  0.00  0.00    +0.000 C 
ATOM     16  C   UNL     1     -19.194  39.155   6.202  0.00  0.00    +0.000 C 
ATOM     17  C   UNL     1     -17.595  37.398   6.760  0.00  0.00    +0.000 C 
ATOM     18  C   UNL     1     -21.897  44.180   4.073  0.00  0.00    +0.000 C 
ATOM     19  C   UNL     1     -18.748  44.935   1.925  0.00  0.00    +0.000 C 
ATOM     20  C   UNL     1     -21.147  42.954   2.003  0.00  0.00    +0.000 C 
ATOM     21  C   UNL     1     -21.055  46.044   1.920  0.00  0.00    +0.000 C 
ATOM     22  C   UNL     1     -22.913  45.092   3.379  0.00  0.00    +0.000 C 
ATOM     23  C   UNL     1     -22.274  46.351   2.792  0.00  0.00    +0.000 C 
ATOM     24  C   UNL     1     -17.415  35.871   6.956  0.00  0.00    +0.000 C 
ATOM     25  C   UNL     1     -19.990  37.148   7.234  0.00  0.00    +0.000 C 
ATOM     26  C   UNL     1     -15.115  37.679   6.153  0.00  0.00    +0.000 C 
ATOM     27  C   UNL     1     -19.892  35.627   7.383  0.00  0.00    +0.000 C 
ATOM     28  C   UNL     1     -18.486  35.255   7.848  0.00  0.00    +0.000 C 
ATOM     29  C   UNL     1     -20.282  34.901   6.092  0.00  0.00    +0.000 C 
ENDROOT
BRANCH  14  30
ATOM     30  O   UNL     1     -16.771  37.300   4.460  0.00  0.00    +0.000 OA
ATOM     31  H   UNL     1     -16.668  37.999   3.783  0.00  0.00    +0.000 HD
ENDBRANCH  14  30
BRANCH  23  32
ATOM     32  O   UNL     1     -23.257  47.036   2.023  0.00  0.00    +0.000 OA
ATOM     33  H   UNL     1     -22.823  47.792   1.592  0.00  0.00    +0.000 HD
ENDBRANCH  23  32
TORSDOF 2
ENDMDL
MODEL 6
REMARK VINA RESULT:      -6.2     25.282     27.289
REMARK  Name = 
REMARK  5 active torsions:
REMARK  status: ('A' for Active; 'I' for Inactive)
REMARK    1  A    between atoms: O_1  and  C_16
REMARK    2  A    between atoms: O_3  and  C_25
REMARK    3  A    between atoms: C_11  and  C_22
REMARK    4  A    between atoms: C_16  and  C_28
REMARK    5  A    between atoms: C_29  and  C_31
REMARK                            x       y       z     vdW  Elec       q    Type
REMARK                         _______ _______ _______ _____ _____    ______ ____
ROOT
ATOM      1  O   UNL     1     -27.552  45.271  21.927  0.00  0.00    +0.000 OA
ATOM      2  N   UNL     1     -26.165  36.039  20.199  0.00  0.00    +0.000 NA
ATOM      3  C   UNL     1     -25.918  39.559  21.741  0.00  0.00    +0.000 C 
ATOM      4  C   UNL     1     -25.369  40.934  21.277  0.00  0.00    +0.000 C 
ATOM      5  C   UNL     1     -27.243  41.286  22.741  0.00  0.00    +0.000 C 
ATOM      6  C   UNL     1     -26.511  41.925  21.554  0.00  0.00    +0.000 C 
ATOM      7  C   UNL     1     -25.852  38.471  20.652  0.00  0.00    +0.000 C 
ATOM      8  C   UNL     1     -27.335  39.833  22.286  0.00  0.00    +0.000 C 
ATOM      9  C   UNL     1     -28.539  42.051  23.120  0.00  0.00    +0.000 C 
ATOM     10  C   UNL     1     -24.421  38.414  20.074  0.00  0.00    +0.000 C 
ATOM     11  C   UNL     1     -24.930  40.945  19.816  0.00  0.00    +0.000 C 
ATOM     12  C   UNL     1     -28.094  43.499  23.489  0.00  0.00    +0.000 C 
ATOM     13  C   UNL     1     -24.003  39.780  19.473  0.00  0.00    +0.000 C 
ATOM     14  C   UNL     1     -24.263  37.227  19.080  0.00  0.00    +0.000 C 
ATOM     15  C   UNL     1     -26.099  43.360  21.848  0.00  0.00    +0.000 C 
ATOM     16  C   UNL     1     -26.271  37.105  21.210  0.00  0.00    +0.000 C 
ATOM     17  C   UNL     1     -24.757  35.884  19.737  0.00  0.00    +0.000 C 
ATOM     18  C   UNL     1     -29.187  41.414  24.376  0.00  0.00    +0.000 C 
ATOM     19  C   UNL     1     -27.305  44.143  22.347  0.00  0.00    +0.000 C 
ATOM     20  C   UNL     1     -29.573  42.046  21.966  0.00  0.00    +0.000 C 
ATOM     21  C   UNL     1     -29.253  44.358  23.994  0.00  0.00    +0.000 C 
ATOM     22  C   UNL     1     -30.321  42.259  24.962  0.00  0.00    +0.000 C 
ATOM     23  C   UNL     1     -29.910  43.710  25.214  0.00  0.00    +0.000 C 
ATOM     24  C   UNL     1     -24.644  34.700  18.744  0.00  0.00    +0.000 C 
ATOM     25  C   UNL     1     -26.686  34.787  20.784  0.00  0.00    +0.000 C 
ATOM     26  C   UNL     1     -22.810  37.111  18.596  0.00  0.00    +0.000 C 
ATOM     27  C   UNL     1     -26.667  33.615  19.797  0.00  0.00    +0.000 C 
ATOM     28  C   UNL     1     -25.243  33.407  19.288  0.00  0.00    +0.000 C 
ATOM     29  C   UNL     1     -27.664  33.818  18.653  0.00  0.00    +0.000 C 
ENDROOT
BRANCH  14  30
ATOM     30  O   UNL     1     -25.080  37.498  17.928  0.00  0.00    +0.000 OA
ATOM     31  H   UNL     1     -24.480  37.402  17.162  0.00  0.00    +0.000 HD
ENDBRANCH  14  30
BRANCH  23  32
ATOM     32  O   UNL     1     -31.070  44.447  25.586  0.00  0.00    +0.000 OA
ATOM     33  H   UNL     1     -31.847  43.891  25.402  0.00  0.00    +0.000 HD
ENDBRANCH  23  32
TORSDOF 2
ENDMDL
MODEL 7
REMARK VINA RESULT:      -6.1     26.895     30.292
REMARK  Name = 
REMARK  5 active torsions:
REMARK  status: ('A' for Active; 'I' for Inactive)
REMARK    1  A    between atoms: O_1  and  C_16
REMARK    2  A    between atoms: O_3  and  C_25
REMARK    3  A    between atoms: C_11  and  C_22
REMARK    4  A    between atoms: C_16  and  C_28
REMARK    5  A    between atoms: C_29  and  C_31
REMARK                            x       y       z     vdW  Elec       q    Type
REMARK                         _______ _______ _______ _____ _____    ______ ____
ROOT
ATOM      1  O   UNL     1     -13.633  46.356  -1.720  0.00  0.00    +0.000 OA
ATOM      2  N   UNL     1     -15.895  39.348   4.275  0.00  0.00    +0.000 NA
ATOM      3  C   UNL     1     -16.144  42.128   1.621  0.00  0.00    +0.000 C 
ATOM      4  C   UNL     1     -16.009  43.674   1.622  0.00  0.00    +0.000 C 
ATOM      5  C   UNL     1     -15.246  42.816  -0.491  0.00  0.00    +0.000 C 
ATOM      6  C   UNL     1     -15.024  43.981   0.482  0.00  0.00    +0.000 C 
ATOM      7  C   UNL     1     -15.839  41.483   2.987  0.00  0.00    +0.000 C 
ATOM      8  C   UNL     1     -15.253  41.627   0.465  0.00  0.00    +0.000 C 
ATOM      9  C   UNL     1     -14.247  42.836  -1.679  0.00  0.00    +0.000 C 
ATOM     10  C   UNL     1     -16.673  42.186   4.080  0.00  0.00    +0.000 C 
ATOM     11  C   UNL     1     -15.543  44.236   2.961  0.00  0.00    +0.000 C 
ATOM     12  C   UNL     1     -14.477  44.192  -2.413  0.00  0.00    +0.000 C 
ATOM     13  C   UNL     1     -16.359  43.703   4.137  0.00  0.00    +0.000 C 
ATOM     14  C   UNL     1     -16.518  41.471   5.453  0.00  0.00    +0.000 C 
ATOM     15  C   UNL     1     -15.188  45.331  -0.201  0.00  0.00    +0.000 C 
ATOM     16  C   UNL     1     -16.129  39.976   2.963  0.00  0.00    +0.000 C 
ATOM     17  C   UNL     1     -16.797  39.928   5.309  0.00  0.00    +0.000 C 
ATOM     18  C   UNL     1     -14.576  41.692  -2.671  0.00  0.00    +0.000 C 
ATOM     19  C   UNL     1     -14.323  45.374  -1.454  0.00  0.00    +0.000 C 
ATOM     20  C   UNL     1     -12.781  42.682  -1.204  0.00  0.00    +0.000 C 
ATOM     21  C   UNL     1     -13.635  44.320  -3.683  0.00  0.00    +0.000 C 
ATOM     22  C   UNL     1     -13.802  41.798  -3.988  0.00  0.00    +0.000 C 
ATOM     23  C   UNL     1     -13.938  43.171  -4.646  0.00  0.00    +0.000 C 
ATOM     24  C   UNL     1     -16.605  39.195   6.661  0.00  0.00    +0.000 C 
ATOM     25  C   UNL     1     -16.091  37.891   4.136  0.00  0.00    +0.000 C 
ATOM     26  C   UNL     1     -17.435  42.109   6.507  0.00  0.00    +0.000 C 
ATOM     27  C   UNL     1     -15.825  37.128   5.437  0.00  0.00    +0.000 C 
ATOM     28  C   UNL     1     -16.726  37.680   6.539  0.00  0.00    +0.000 C 
ATOM     29  C   UNL     1     -14.346  37.168   5.830  0.00  0.00    +0.000 C 
ENDROOT
BRANCH  14  30
ATOM     30  O   UNL     1     -15.162  41.649   5.898  0.00  0.00    +0.000 OA
ATOM     31  H   UNL     1     -14.875  42.498   5.505  0.00  0.00    +0.000 HD
ENDBRANCH  14  30
BRANCH  23  32
ATOM     32  O   UNL     1     -13.051  43.226  -5.758  0.00  0.00    +0.000 OA
ATOM     33  H   UNL     1     -13.013  42.338  -6.152  0.00  0.00    +0.000 HD
ENDBRANCH  23  32
TORSDOF 2
ENDMDL
MODEL 8
REMARK VINA RESULT:      -6.1     27.474     30.229
REMARK  Name = 
REMARK  5 active torsions:
REMARK  status: ('A' for Active; 'I' for Inactive)
REMARK    1  A    between atoms: O_1  and  C_16
REMARK    2  A    between atoms: O_3  and  C_25
REMARK    3  A    between atoms: C_11  and  C_22
REMARK    4  A    between atoms: C_16  and  C_28
REMARK    5  A    between atoms: C_29  and  C_31
REMARK                            x       y       z     vdW  Elec       q    Type
REMARK                         _______ _______ _______ _____ _____    ______ ____
ROOT
ATOM      1  O   UNL     1     -17.881  31.256   4.041  0.00  0.00    +0.000 OA
ATOM      2  N   UNL     1     -16.221  40.577   4.767  0.00  0.00    +0.000 NA
ATOM      3  C   UNL     1     -16.722  36.862   5.647  0.00  0.00    +0.000 C 
ATOM      4  C   UNL     1     -17.924  35.880   5.661  0.00  0.00    +0.000 C 
ATOM      5  C   UNL     1     -15.919  34.666   5.122  0.00  0.00    +0.000 C 
ATOM      6  C   UNL     1     -17.433  34.650   4.878  0.00  0.00    +0.000 C 
ATOM      7  C   UNL     1     -17.073  38.257   5.095  0.00  0.00    +0.000 C 
ATOM      8  C   UNL     1     -15.594  36.137   4.882  0.00  0.00    +0.000 C 
ATOM      9  C   UNL     1     -15.176  33.575   4.305  0.00  0.00    +0.000 C 
ATOM     10  C   UNL     1     -18.318  38.797   5.832  0.00  0.00    +0.000 C 
ATOM     11  C   UNL     1     -19.196  36.478   5.069  0.00  0.00    +0.000 C 
ATOM     12  C   UNL     1     -15.773  32.210   4.763  0.00  0.00    +0.000 C 
ATOM     13  C   UNL     1     -19.530  37.846   5.659  0.00  0.00    +0.000 C 
ATOM     14  C   UNL     1     -18.622  40.267   5.419  0.00  0.00    +0.000 C 
ATOM     15  C   UNL     1     -18.057  33.317   5.264  0.00  0.00    +0.000 C 
ATOM     16  C   UNL     1     -15.890  39.222   5.240  0.00  0.00    +0.000 C 
ATOM     17  C   UNL     1     -17.334  41.161   5.567  0.00  0.00    +0.000 C 
ATOM     18  C   UNL     1     -13.667  33.581   4.658  0.00  0.00    +0.000 C 
ATOM     19  C   UNL     1     -17.293  32.186   4.590  0.00  0.00    +0.000 C 
ATOM     20  C   UNL     1     -15.334  33.788   2.779  0.00  0.00    +0.000 C 
ATOM     21  C   UNL     1     -15.064  31.017   4.122  0.00  0.00    +0.000 C 
ATOM     22  C   UNL     1     -12.912  32.376   4.089  0.00  0.00    +0.000 C 
ATOM     23  C   UNL     1     -13.569  31.043   4.446  0.00  0.00    +0.000 C 
ATOM     24  C   UNL     1     -17.610  42.619   5.120  0.00  0.00    +0.000 C 
ATOM     25  C   UNL     1     -15.003  41.408   4.841  0.00  0.00    +0.000 C 
ATOM     26  C   UNL     1     -19.792  40.832   6.237  0.00  0.00    +0.000 C 
ATOM     27  C   UNL     1     -15.222  42.833   4.325  0.00  0.00    +0.000 C 
ATOM     28  C   UNL     1     -16.356  43.486   5.112  0.00  0.00    +0.000 C 
ATOM     29  C   UNL     1     -15.479  42.860   2.816  0.00  0.00    +0.000 C 
ENDROOT
BRANCH  14  30
ATOM     30  O   UNL     1     -19.020  40.269   4.038  0.00  0.00    +0.000 OA
ATOM     31  H   UNL     1     -18.582  39.486   3.646  0.00  0.00    +0.000 HD
ENDBRANCH  14  30
BRANCH  23  32
ATOM     32  O   UNL     1     -12.902  30.008   3.732  0.00  0.00    +0.000 OA
ATOM     33  H   UNL     1     -11.994  29.948   4.075  0.00  0.00    +0.000 HD
ENDBRANCH  23  32
TORSDOF 2
ENDMDL
MODEL 9
REMARK VINA RESULT:      -5.9     27.504     29.435
REMARK  Name = 
REMARK  5 active torsions:
REMARK  status: ('A' for Active; 'I' for Inactive)
REMARK    1  A    between atoms: O_1  and  C_16
REMARK    2  A    between atoms: O_3  and  C_25
REMARK    3  A    between atoms: C_11  and  C_22
REMARK    4  A    between atoms: C_16  and  C_28
REMARK    5  A    between atoms: C_29  and  C_31
REMARK                            x       y       z     vdW  Elec       q    Type
REMARK                         _______ _______ _______ _____ _____    ______ ____
ROOT
ATOM      1  O   UNL     1      -8.756  31.648   1.044  0.00  0.00    +0.000 OA
ATOM      2  N   UNL     1     -15.305  36.927   5.447  0.00  0.00    +0.000 NA
ATOM      3  C   UNL     1     -12.536  34.341   4.758  0.00  0.00    +0.000 C 
ATOM      4  C   UNL     1     -12.440  33.005   3.974  0.00  0.00    +0.000 C 
ATOM      5  C   UNL     1     -10.317  34.131   3.879  0.00  0.00    +0.000 C 
ATOM      6  C   UNL     1     -11.201  33.166   3.079  0.00  0.00    +0.000 C 
ATOM      7  C   UNL     1     -13.903  35.040   4.617  0.00  0.00    +0.000 C 
ATOM      8  C   UNL     1     -11.334  35.190   4.294  0.00  0.00    +0.000 C 
ATOM      9  C   UNL     1      -9.045  34.557   3.099  0.00  0.00    +0.000 C 
ATOM     10  C   UNL     1     -15.026  34.034   4.950  0.00  0.00    +0.000 C 
ATOM     11  C   UNL     1     -13.699  32.685   3.175  0.00  0.00    +0.000 C 
ATOM     12  C   UNL     1      -8.261  33.243   2.801  0.00  0.00    +0.000 C 
ATOM     13  C   UNL     1     -14.971  32.801   4.012  0.00  0.00    +0.000 C 
ATOM     14  C   UNL     1     -16.417  34.732   4.973  0.00  0.00    +0.000 C 
ATOM     15  C   UNL     1     -10.462  31.885   2.719  0.00  0.00    +0.000 C 
ATOM     16  C   UNL     1     -13.987  36.274   5.525  0.00  0.00    +0.000 C 
ATOM     17  C   UNL     1     -16.383  36.004   5.900  0.00  0.00    +0.000 C 
ATOM     18  C   UNL     1      -8.151  35.458   3.988  0.00  0.00    +0.000 C 
ATOM     19  C   UNL     1      -9.136  32.233   2.056  0.00  0.00    +0.000 C 
ATOM     20  C   UNL     1      -9.394  35.324   1.799  0.00  0.00    +0.000 C 
ATOM     21  C   UNL     1      -6.915  33.504   2.124  0.00  0.00    +0.000 C 
ATOM     22  C   UNL     1      -6.765  35.710   3.386  0.00  0.00    +0.000 C 
ATOM     23  C   UNL     1      -6.048  34.420   2.989  0.00  0.00    +0.000 C 
ATOM     24  C   UNL     1     -17.751  36.733   5.900  0.00  0.00    +0.000 C 
ATOM     25  C   UNL     1     -15.265  38.158   6.262  0.00  0.00    +0.000 C 
ATOM     26  C   UNL     1     -17.512  33.749   5.412  0.00  0.00    +0.000 C 
ATOM     27  C   UNL     1     -16.577  38.948   6.214  0.00  0.00    +0.000 C 
ATOM     28  C   UNL     1     -17.724  38.049   6.670  0.00  0.00    +0.000 C 
ATOM     29  C   UNL     1     -16.832  39.546   4.828  0.00  0.00    +0.000 C 
ENDROOT
BRANCH  14  30
ATOM     30  O   UNL     1     -16.727  35.152   3.633  0.00  0.00    +0.000 OA
ATOM     31  H   UNL     1     -17.685  35.351   3.645  0.00  0.00    +0.000 HD
ENDBRANCH  14  30
BRANCH  23  32
ATOM     32  O   UNL     1      -4.860  34.765   2.286  0.00  0.00    +0.000 OA
ATOM     33  H   UNL     1      -4.942  35.692   2.001  0.00  0.00    +0.000 HD
ENDBRANCH  23  32
TORSDOF 2
ENDMDL
