MODEL 1
REMARK VINA RESULT:      -5.9      0.000      0.000
REMARK  Name = PhIP.pdbqt.pdb
REMARK  2 active torsions:
REMARK  status: ('A' for Active; 'I' for Inactive)
REMARK    1  A    between atoms: N_4  and  C_9
REMARK    2  A    between atoms: C_7  and  C_10
REMARK                            x       y       z     vdW  Elec       q    Type
REMARK                         _______ _______ _______ _____ _____    ______ ____
ROOT
ATOM      1  N   UNL     1     -19.994  37.463   7.130  0.00  0.00    +0.000 N 
ATOM      2  N   UNL     1     -18.264  35.852   7.429  0.00  0.00    +0.000 NA
ATOM      3  N   UNL     1     -16.403  37.322   6.913  0.00  0.00    +0.000 NA
ATOM      4  C   UNL     1     -18.813  38.111   6.925  0.00  0.00    +0.000 C 
ATOM      5  C   UNL     1     -17.754  37.018   7.128  0.00  0.00    +0.000 C 
ATOM      6  C   UNL     1     -17.055  39.561   6.068  0.00  0.00    +0.000 C 
ATOM      7  C   UNL     1     -18.407  39.219   6.383  0.00  0.00    +0.000 C 
ATOM      8  C   UNL     1     -19.618  36.143   7.393  0.00  0.00    +0.000 C 
ATOM      9  C   UNL     1     -21.206  37.800   6.404  0.00  0.00    +0.000 C 
ATOM     10  C   UNL     1     -16.297  38.404   6.457  0.00  0.00    +0.000 C 
ENDROOT
BRANCH   6  11
ATOM     11  C   UNL     1     -16.551  40.819   5.551  0.00  0.00    +0.000 A 
ATOM     12  C   UNL     1     -15.184  41.003   5.332  0.00  0.00    +0.000 A 
ATOM     13  C   UNL     1     -17.425  41.869   5.260  0.00  0.00    +0.000 A 
ATOM     14  C   UNL     1     -14.698  42.211   4.835  0.00  0.00    +0.000 A 
ATOM     15  C   UNL     1     -16.944  43.079   4.762  0.00  0.00    +0.000 A 
ATOM     16  C   UNL     1     -15.579  43.249   4.550  0.00  0.00    +0.000 A 
ENDBRANCH   6  11
BRANCH   8  17
ATOM     17  N   UNL     1     -20.504  35.062   7.531  0.00  0.00    +0.000 NA
ATOM     18  H   UNL     1     -20.858  34.946   8.474  0.00  0.00    +0.000 HD
ATOM     19  H   UNL     1     -21.222  35.048   6.817  0.00  0.00    +0.000 HD
ENDBRANCH   8  17
TORSDOF 2
ENDMDL
MODEL 2
REMARK VINA RESULT:      -5.8     24.571     25.813
REMARK  Name = PhIP.pdbqt.pdb
REMARK  2 active torsions:
REMARK  status: ('A' for Active; 'I' for Inactive)
REMARK    1  A    between atoms: N_4  and  C_9
REMARK    2  A    between atoms: C_7  and  C_10
REMARK                            x       y       z     vdW  Elec       q    Type
REMARK                         _______ _______ _______ _____ _____    ______ ____
ROOT
ATOM      1  N   UNL     1      -2.368  48.694  27.680  0.00  0.00    +0.000 N 
ATOM      2  N   UNL     1      -1.655  46.432  27.464  0.00  0.00    +0.000 NA
ATOM      3  N   UNL     1      -3.484  45.683  26.055  0.00  0.00    +0.000 NA
ATOM      4  C   UNL     1      -3.263  48.078  26.858  0.00  0.00    +0.000 C 
ATOM      5  C   UNL     1      -2.746  46.634  26.771  0.00  0.00    +0.000 C 
ATOM      6  C   UNL     1      -5.297  47.345  25.739  0.00  0.00    +0.000 C 
ATOM      7  C   UNL     1      -4.463  48.293  26.411  0.00  0.00    +0.000 C 
ATOM      8  C   UNL     1      -1.468  47.684  28.026  0.00  0.00    +0.000 C 
ATOM      9  C   UNL     1      -2.754  49.747  28.604  0.00  0.00    +0.000 C 
ATOM     10  C   UNL     1      -4.518  46.138  25.717  0.00  0.00    +0.000 C 
ENDROOT
BRANCH   6  11
ATOM     11  C   UNL     1      -6.600  47.571  25.144  0.00  0.00    +0.000 A 
ATOM     12  C   UNL     1      -6.824  48.676  24.320  0.00  0.00    +0.000 A 
ATOM     13  C   UNL     1      -7.654  46.686  25.381  0.00  0.00    +0.000 A 
ATOM     14  C   UNL     1      -8.076  48.895  23.746  0.00  0.00    +0.000 A 
ATOM     15  C   UNL     1      -8.907  46.900  24.810  0.00  0.00    +0.000 A 
ATOM     16  C   UNL     1      -9.117  48.007  23.992  0.00  0.00    +0.000 A 
ENDBRANCH   6  11
BRANCH   8  17
ATOM     17  N   UNL     1      -0.440  47.806  28.976  0.00  0.00    +0.000 NA
ATOM     18  H   UNL     1       0.274  47.090  28.895  0.00  0.00    +0.000 HD
ATOM     19  H   UNL     1      -0.074  48.748  29.041  0.00  0.00    +0.000 HD
ENDBRANCH   8  17
TORSDOF 2
ENDMDL
MODEL 3
REMARK VINA RESULT:      -5.2      2.638      4.851
REMARK  Name = PhIP.pdbqt.pdb
REMARK  2 active torsions:
REMARK  status: ('A' for Active; 'I' for Inactive)
REMARK    1  A    between atoms: N_4  and  C_9
REMARK    2  A    between atoms: C_7  and  C_10
REMARK                            x       y       z     vdW  Elec       q    Type
REMARK                         _______ _______ _______ _____ _____    ______ ____
ROOT
ATOM      1  N   UNL     1     -19.257  40.151   5.928  0.00  0.00    +0.000 N 
ATOM      2  N   UNL     1     -20.554  38.888   7.476  0.00  0.00    +0.000 NA
ATOM      3  N   UNL     1     -19.011  37.029   7.703  0.00  0.00    +0.000 NA
ATOM      4  C   UNL     1     -18.528  39.043   6.239  0.00  0.00    +0.000 C 
ATOM      5  C   UNL     1     -19.422  38.281   7.228  0.00  0.00    +0.000 C 
ATOM      6  C   UNL     1     -17.086  37.083   6.139  0.00  0.00    +0.000 C 
ATOM      7  C   UNL     1     -17.515  38.392   5.753  0.00  0.00    +0.000 C 
ATOM      8  C   UNL     1     -20.440  39.998   6.654  0.00  0.00    +0.000 C 
ATOM      9  C   UNL     1     -19.223  40.764   4.611  0.00  0.00    +0.000 C 
ATOM     10  C   UNL     1     -18.040  36.676   7.133  0.00  0.00    +0.000 C 
ENDROOT
BRANCH   6  11
ATOM     11  C   UNL     1     -15.910  36.363   5.691  0.00  0.00    +0.000 A 
ATOM     12  C   UNL     1     -16.034  35.132   5.043  0.00  0.00    +0.000 A 
ATOM     13  C   UNL     1     -14.632  36.888   5.896  0.00  0.00    +0.000 A 
ATOM     14  C   UNL     1     -14.906  34.437   4.610  0.00  0.00    +0.000 A 
ATOM     15  C   UNL     1     -13.500  36.197   5.466  0.00  0.00    +0.000 A 
ATOM     16  C   UNL     1     -13.639  34.970   4.822  0.00  0.00    +0.000 A 
ENDBRANCH   6  11
BRANCH   8  17
ATOM     17  N   UNL     1     -21.568  40.829   6.549  0.00  0.00    +0.000 NA
ATOM     18  H   UNL     1     -21.392  41.788   6.827  0.00  0.00    +0.000 HD
ATOM     19  H   UNL     1     -22.042  40.737   5.659  0.00  0.00    +0.000 HD
ENDBRANCH   8  17
TORSDOF 2
ENDMDL
MODEL 4
REMARK VINA RESULT:      -4.6     31.898     33.524
REMARK  Name = PhIP.pdbqt.pdb
REMARK  2 active torsions:
REMARK  status: ('A' for Active; 'I' for Inactive)
REMARK    1  A    between atoms: N_4  and  C_9
REMARK    2  A    between atoms: C_7  and  C_10
REMARK                            x       y       z     vdW  Elec       q    Type
REMARK                         _______ _______ _______ _____ _____    ______ ____
ROOT
ATOM      1  N   UNL     1       8.292  35.261  30.509  0.00  0.00    +0.000 N 
ATOM      2  N   UNL     1       7.188  37.360  30.735  0.00  0.00    +0.000 NA
ATOM      3  N   UNL     1       5.103  36.708  29.678  0.00  0.00    +0.000 NA
ATOM      4  C   UNL     1       7.038  35.101  30.001  0.00  0.00    +0.000 C 
ATOM      5  C   UNL     1       6.394  36.484  30.174  0.00  0.00    +0.000 C 
ATOM      6  C   UNL     1       5.128  34.458  28.635  0.00  0.00    +0.000 C 
ATOM      7  C   UNL     1       6.412  34.261  29.234  0.00  0.00    +0.000 C 
ATOM      8  C   UNL     1       8.337  36.602  30.897  0.00  0.00    +0.000 C 
ATOM      9  C   UNL     1       9.447  34.565  29.968  0.00  0.00    +0.000 C 
ATOM     10  C   UNL     1       4.740  35.777  29.052  0.00  0.00    +0.000 C 
ENDROOT
BRANCH   6  11
ATOM     11  C   UNL     1       4.356  33.512  27.852  0.00  0.00    +0.000 A 
ATOM     12  C   UNL     1       4.887  32.952  26.688  0.00  0.00    +0.000 A 
ATOM     13  C   UNL     1       3.069  33.142  28.249  0.00  0.00    +0.000 A 
ATOM     14  C   UNL     1       4.147  32.043  25.934  0.00  0.00    +0.000 A 
ATOM     15  C   UNL     1       2.325  32.234  27.498  0.00  0.00    +0.000 A 
ATOM     16  C   UNL     1       2.866  31.684  26.340  0.00  0.00    +0.000 A 
ENDBRANCH   6  11
BRANCH   8  17
ATOM     17  N   UNL     1       9.483  37.275  31.353  0.00  0.00    +0.000 NA
ATOM     18  H   UNL     1      10.334  36.989  30.882  0.00  0.00    +0.000 HD
ATOM     19  H   UNL     1       9.356  38.278  31.402  0.00  0.00    +0.000 HD
ENDBRANCH   8  17
TORSDOF 2
ENDMDL
MODEL 5
REMARK VINA RESULT:      -4.5     27.170     28.627
REMARK  Name = PhIP.pdbqt.pdb
REMARK  2 active torsions:
REMARK  status: ('A' for Active; 'I' for Inactive)
REMARK    1  A    between atoms: N_4  and  C_9
REMARK    2  A    between atoms: C_7  and  C_10
REMARK                            x       y       z     vdW  Elec       q    Type
REMARK                         _______ _______ _______ _____ _____    ______ ____
ROOT
ATOM      1  N   UNL     1      -1.502  52.298  28.279  0.00  0.00    +0.000 N 
ATOM      2  N   UNL     1       0.261  50.836  28.936  0.00  0.00    +0.000 NA
ATOM      3  N   UNL     1      -0.671  48.808  27.983  0.00  0.00    +0.000 NA
ATOM      4  C   UNL     1      -1.810  51.066  27.787  0.00  0.00    +0.000 C 
ATOM      5  C   UNL     1      -0.643  50.183  28.251  0.00  0.00    +0.000 C 
ATOM      6  C   UNL     1      -2.978  49.042  27.101  0.00  0.00    +0.000 C 
ATOM      7  C   UNL     1      -2.857  50.449  27.328  0.00  0.00    +0.000 C 
ATOM      8  C   UNL     1      -0.300  52.103  28.963  0.00  0.00    +0.000 C 
ATOM      9  C   UNL     1      -2.516  53.234  28.733  0.00  0.00    +0.000 C 
ATOM     10  C   UNL     1      -1.716  48.504  27.526  0.00  0.00    +0.000 C 
ENDROOT
BRANCH   6  11
ATOM     11  C   UNL     1      -4.091  48.329  26.504  0.00  0.00    +0.000 A 
ATOM     12  C   UNL     1      -4.029  46.947  26.313  0.00  0.00    +0.000 A 
ATOM     13  C   UNL     1      -5.244  49.011  26.112  0.00  0.00    +0.000 A 
ATOM     14  C   UNL     1      -5.098  46.259  25.739  0.00  0.00    +0.000 A 
ATOM     15  C   UNL     1      -6.315  48.328  25.537  0.00  0.00    +0.000 A 
ATOM     16  C   UNL     1      -6.241  46.950  25.351  0.00  0.00    +0.000 A 
ENDBRANCH   6  11
BRANCH   8  17
ATOM     17  N   UNL     1       0.344  53.065  29.759  0.00  0.00    +0.000 NA
ATOM     18  H   UNL     1       1.319  52.854  29.941  0.00  0.00    +0.000 HD
ATOM     19  H   UNL     1       0.178  54.012  29.443  0.00  0.00    +0.000 HD
ENDBRANCH   8  17
TORSDOF 2
ENDMDL
MODEL 6
REMARK VINA RESULT:      -4.5      2.827      7.301
REMARK  Name = PhIP.pdbqt.pdb
REMARK  2 active torsions:
REMARK  status: ('A' for Active; 'I' for Inactive)
REMARK    1  A    between atoms: N_4  and  C_9
REMARK    2  A    between atoms: C_7  and  C_10
REMARK                            x       y       z     vdW  Elec       q    Type
REMARK                         _______ _______ _______ _____ _____    ______ ____
ROOT
ATOM      1  N   UNL     1     -16.264  37.793   6.611  0.00  0.00    +0.000 N 
ATOM      2  N   UNL     1     -18.324  38.989   6.567  0.00  0.00    +0.000 NA
ATOM      3  N   UNL     1     -19.765  37.110   7.101  0.00  0.00    +0.000 NA
ATOM      4  C   UNL     1     -17.242  36.903   6.941  0.00  0.00    +0.000 C 
ATOM      5  C   UNL     1     -18.531  37.737   6.888  0.00  0.00    +0.000 C 
ATOM      6  C   UNL     1     -18.623  34.908   7.144  0.00  0.00    +0.000 C 
ATOM      7  C   UNL     1     -17.387  35.614   7.002  0.00  0.00    +0.000 C 
ATOM      8  C   UNL     1     -16.952  38.986   6.376  0.00  0.00    +0.000 C 
ATOM      9  C   UNL     1     -15.084  37.410   5.856  0.00  0.00    +0.000 C 
ATOM     10  C   UNL     1     -19.621  35.941   7.166  0.00  0.00    +0.000 C 
ENDROOT
BRANCH   6  11
ATOM     11  C   UNL     1     -18.819  33.481   7.309  0.00  0.00    +0.000 A 
ATOM     12  C   UNL     1     -18.189  32.573   6.455  0.00  0.00    +0.000 A 
ATOM     13  C   UNL     1     -19.640  32.988   8.326  0.00  0.00    +0.000 A 
ATOM     14  C   UNL     1     -18.376  31.200   6.612  0.00  0.00    +0.000 A 
ATOM     15  C   UNL     1     -19.830  31.617   8.487  0.00  0.00    +0.000 A 
ATOM     16  C   UNL     1     -19.197  30.723   7.628  0.00  0.00    +0.000 A 
ENDBRANCH   6  11
BRANCH   8  17
ATOM     17  N   UNL     1     -16.379  40.164   5.868  0.00  0.00    +0.000 NA
ATOM     18  H   UNL     1     -16.441  40.242   4.859  0.00  0.00    +0.000 HD
ATOM     19  H   UNL     1     -16.679  40.993   6.365  0.00  0.00    +0.000 HD
ENDBRANCH   8  17
TORSDOF 2
ENDMDL
MODEL 7
REMARK VINA RESULT:      -4.5     29.002     30.253
REMARK  Name = PhIP.pdbqt.pdb
REMARK  2 active torsions:
REMARK  status: ('A' for Active; 'I' for Inactive)
REMARK    1  A    between atoms: N_4  and  C_9
REMARK    2  A    between atoms: C_7  and  C_10
REMARK                            x       y       z     vdW  Elec       q    Type
REMARK                         _______ _______ _______ _____ _____    ______ ____
ROOT
ATOM      1  N   UNL     1       1.829  46.473  31.355  0.00  0.00    +0.000 N 
ATOM      2  N   UNL     1       2.432  44.633  29.966  0.00  0.00    +0.000 NA
ATOM      3  N   UNL     1       1.140  45.299  28.022  0.00  0.00    +0.000 NA
ATOM      4  C   UNL     1       1.227  46.676  30.150  0.00  0.00    +0.000 C 
ATOM      5  C   UNL     1       1.652  45.459  29.316  0.00  0.00    +0.000 C 
ATOM      6  C   UNL     1      -0.354  47.244  28.387  0.00  0.00    +0.000 C 
ATOM      7  C   UNL     1       0.263  47.401  29.668  0.00  0.00    +0.000 C 
ATOM      8  C   UNL     1       2.496  45.255  31.203  0.00  0.00    +0.000 C 
ATOM      9  C   UNL     1       1.222  46.879  32.610  0.00  0.00    +0.000 C 
ATOM     10  C   UNL     1       0.310  46.109  27.810  0.00  0.00    +0.000 C 
ENDROOT
BRANCH   6  11
ATOM     11  C   UNL     1      -1.365  48.087  27.777  0.00  0.00    +0.000 A 
ATOM     12  C   UNL     1      -2.555  47.537  27.297  0.00  0.00    +0.000 A 
ATOM     13  C   UNL     1      -1.166  49.464  27.659  0.00  0.00    +0.000 A 
ATOM     14  C   UNL     1      -3.528  48.344  26.710  0.00  0.00    +0.000 A 
ATOM     15  C   UNL     1      -2.135  50.277  27.072  0.00  0.00    +0.000 A 
ATOM     16  C   UNL     1      -3.317  49.715  26.598  0.00  0.00    +0.000 A 
ENDBRANCH   6  11
BRANCH   8  17
ATOM     17  N   UNL     1       3.151  44.557  32.231  0.00  0.00    +0.000 NA
ATOM     18  H   UNL     1       2.885  43.579  32.290  0.00  0.00    +0.000 HD
ATOM     19  H   UNL     1       4.151  44.713  32.238  0.00  0.00    +0.000 HD
ENDBRANCH   8  17
TORSDOF 2
ENDMDL
MODEL 8
REMARK VINA RESULT:      -4.3     29.732     30.931
REMARK  Name = PhIP.pdbqt.pdb
REMARK  2 active torsions:
REMARK  status: ('A' for Active; 'I' for Inactive)
REMARK    1  A    between atoms: N_4  and  C_9
REMARK    2  A    between atoms: C_7  and  C_10
REMARK                            x       y       z     vdW  Elec       q    Type
REMARK                         _______ _______ _______ _____ _____    ______ ____
ROOT
ATOM      1  N   UNL     1       1.929  46.897  32.246  0.00  0.00    +0.000 N 
ATOM      2  N   UNL     1       2.909  44.736  32.023  0.00  0.00    +0.000 NA
ATOM      3  N   UNL     1       1.719  44.082  30.012  0.00  0.00    +0.000 NA
ATOM      4  C   UNL     1       1.416  46.348  31.110  0.00  0.00    +0.000 C 
ATOM      5  C   UNL     1       2.083  44.967  31.035  0.00  0.00    +0.000 C 
ATOM      6  C   UNL     1      -0.063  45.655  29.304  0.00  0.00    +0.000 C 
ATOM      7  C   UNL     1       0.407  46.549  30.317  0.00  0.00    +0.000 C 
ATOM      8  C   UNL     1       2.772  45.905  32.754  0.00  0.00    +0.000 C 
ATOM      9  C   UNL     1       1.159  47.781  33.103  0.00  0.00    +0.000 C 
ATOM     10  C   UNL     1       0.805  44.515  29.405  0.00  0.00    +0.000 C 
ENDROOT
BRANCH   6  11
ATOM     11  C   UNL     1      -1.122  45.881  28.339  0.00  0.00    +0.000 A 
ATOM     12  C   UNL     1      -2.445  45.551  28.645  0.00  0.00    +0.000 A 
ATOM     13  C   UNL     1      -0.840  46.435  27.089  0.00  0.00    +0.000 A 
ATOM     14  C   UNL     1      -3.465  45.767  27.720  0.00  0.00    +0.000 A 
ATOM     15  C   UNL     1      -1.857  46.653  26.160  0.00  0.00    +0.000 A 
ATOM     16  C   UNL     1      -3.170  46.318  26.477  0.00  0.00    +0.000 A 
ENDBRANCH   6  11
BRANCH   8  17
ATOM     17  N   UNL     1       3.423  45.956  33.998  0.00  0.00    +0.000 NA
ATOM     18  H   UNL     1       2.900  46.457  34.709  0.00  0.00    +0.000 HD
ATOM     19  H   UNL     1       3.767  45.053  34.299  0.00  0.00    +0.000 HD
ENDBRANCH   8  17
TORSDOF 2
ENDMDL
MODEL 9
REMARK VINA RESULT:      -4.2     26.824     29.089
REMARK  Name = PhIP.pdbqt.pdb
REMARK  2 active torsions:
REMARK  status: ('A' for Active; 'I' for Inactive)
REMARK    1  A    between atoms: N_4  and  C_9
REMARK    2  A    between atoms: C_7  and  C_10
REMARK                            x       y       z     vdW  Elec       q    Type
REMARK                         _______ _______ _______ _____ _____    ______ ____
ROOT
ATOM      1  N   UNL     1      10.579  41.377   9.472  0.00  0.00    +0.000 N 
ATOM      2  N   UNL     1       8.236  40.974   9.316  0.00  0.00    +0.000 NA
ATOM      3  N   UNL     1       8.278  38.684  10.117  0.00  0.00    +0.000 NA
ATOM      4  C   UNL     1      10.365  40.113   9.934  0.00  0.00    +0.000 C 
ATOM      5  C   UNL     1       8.848  39.924   9.799  0.00  0.00    +0.000 C 
ATOM      6  C   UNL     1      10.550  37.734  10.420  0.00  0.00    +0.000 C 
ATOM      7  C   UNL     1      11.065  39.043  10.163  0.00  0.00    +0.000 C 
ATOM      8  C   UNL     1       9.309  41.823   9.099  0.00  0.00    +0.000 C 
ATOM      9  C   UNL     1      11.781  41.751   8.748  0.00  0.00    +0.000 C 
ATOM     10  C   UNL     1       9.125  37.890  10.329  0.00  0.00    +0.000 C 
ENDROOT
BRANCH   6  11
ATOM     11  C   UNL     1      11.291  36.538  10.772  0.00  0.00    +0.000 A 
ATOM     12  C   UNL     1      12.383  36.608  11.641  0.00  0.00    +0.000 A 
ATOM     13  C   UNL     1      10.926  35.296  10.250  0.00  0.00    +0.000 A 
ATOM     14  C   UNL     1      13.097  35.460  11.981  0.00  0.00    +0.000 A 
ATOM     15  C   UNL     1      11.637  34.145  10.587  0.00  0.00    +0.000 A 
ATOM     16  C   UNL     1      12.724  34.228  11.453  0.00  0.00    +0.000 A 
ENDBRANCH   6  11
BRANCH   8  17
ATOM     17  N   UNL     1       9.039  43.030   8.432  0.00  0.00    +0.000 NA
ATOM     18  H   UNL     1       9.704  43.767   8.642  0.00  0.00    +0.000 HD
ATOM     19  H   UNL     1       8.863  42.902   7.443  0.00  0.00    +0.000 HD
ENDBRANCH   8  17
TORSDOF 2
ENDMDL
