MODEL 1
REMARK VINA RESULT:      -6.0      0.000      0.000
REMARK  Name = Piroxicam.pdbqt.pdb
REMARK  3 active torsions:
REMARK  status: ('A' for Active; 'I' for Inactive)
REMARK    1  A    between atoms: C_7  and  C_14
REMARK    2  A    between atoms: C_8  and  O_24
REMARK    3  A    between atoms: N_16  and  C_18
REMARK                            x       y       z     vdW  Elec       q    Type
REMARK                         _______ _______ _______ _____ _____    ______ ____
ROOT
ATOM      1  S   UNL     1     -15.571  34.297   3.942  0.00  0.00    +0.000 S 
ATOM      2  O   UNL     1     -16.429  34.003   5.075  0.00  0.00    +0.000 OA
ATOM      3  O   UNL     1     -15.647  33.503   2.731  0.00  0.00    +0.000 OA
ATOM      4  N   UNL     1     -15.709  35.973   3.571  0.00  0.00    +0.000 N 
ATOM      5  C   UNL     1     -13.926  34.222   4.537  0.00  0.00    +0.000 A 
ATOM      6  C   UNL     1     -13.436  35.336   5.215  0.00  0.00    +0.000 A 
ATOM      7  C   UNL     1     -15.344  36.833   4.661  0.00  0.00    +0.000 C 
ATOM      8  C   UNL     1     -14.277  36.528   5.437  0.00  0.00    +0.000 C 
ATOM      9  C   UNL     1     -13.157  33.090   4.296  0.00  0.00    +0.000 A 
ATOM     10  C   UNL     1     -15.182  36.456   2.283  0.00  0.00    +0.000 C 
ATOM     11  C   UNL     1     -12.128  35.273   5.698  0.00  0.00    +0.000 A 
ATOM     12  C   UNL     1     -11.853  33.056   4.775  0.00  0.00    +0.000 A 
ATOM     13  C   UNL     1     -11.339  34.142   5.480  0.00  0.00    +0.000 A 
ENDROOT
BRANCH   7  14
ATOM     14  C   UNL     1     -16.177  38.052   4.925  0.00  0.00    +0.000 C 
ATOM     15  O   UNL     1     -17.371  37.920   5.187  0.00  0.00    +0.000 OA
ATOM     16  N   UNL     1     -15.505  39.244   4.838  0.00  0.00    +0.000 N 
ATOM     17  H   UNL     1     -14.504  39.260   4.682  0.00  0.00    +0.000 HD
BRANCH  16  18
ATOM     18  C   UNL     1     -16.049  40.518   5.010  0.00  0.00    +0.000 A 
ATOM     19  N   UNL     1     -16.517  41.078   3.876  0.00  0.00    +0.000 NA
ATOM     20  C   UNL     1     -17.060  42.313   3.985  0.00  0.00    +0.000 A 
ATOM     21  C   UNL     1     -17.162  43.018   5.171  0.00  0.00    +0.000 A 
ATOM     22  C   UNL     1     -16.674  42.411   6.319  0.00  0.00    +0.000 A 
ATOM     23  C   UNL     1     -16.109  41.144   6.246  0.00  0.00    +0.000 A 
ENDBRANCH  16  18
ENDBRANCH   7  14
BRANCH   8  24
ATOM     24  O   UNL     1     -13.857  37.304   6.504  0.00  0.00    +0.000 OA
ATOM     25  H   UNL     1     -12.876  37.392   6.482  0.00  0.00    +0.000 HD
ENDBRANCH   8  24
TORSDOF 3
ENDMDL
MODEL 2
REMARK VINA RESULT:      -5.6      4.528      7.132
REMARK  Name = Piroxicam.pdbqt.pdb
REMARK  3 active torsions:
REMARK  status: ('A' for Active; 'I' for Inactive)
REMARK    1  A    between atoms: C_7  and  C_14
REMARK    2  A    between atoms: C_8  and  O_24
REMARK    3  A    between atoms: N_16  and  C_18
REMARK                            x       y       z     vdW  Elec       q    Type
REMARK                         _______ _______ _______ _____ _____    ______ ____
ROOT
ATOM      1  S   UNL     1     -18.746  39.649   3.972  0.00  0.00    +0.000 S 
ATOM      2  O   UNL     1     -18.403  38.408   3.303  0.00  0.00    +0.000 OA
ATOM      3  O   UNL     1     -19.610  40.621   3.332  0.00  0.00    +0.000 OA
ATOM      4  N   UNL     1     -19.326  39.277   5.551  0.00  0.00    +0.000 N 
ATOM      5  C   UNL     1     -17.230  40.438   4.352  0.00  0.00    +0.000 A 
ATOM      6  C   UNL     1     -16.543  40.001   5.483  0.00  0.00    +0.000 A 
ATOM      7  C   UNL     1     -18.375  38.564   6.357  0.00  0.00    +0.000 C 
ATOM      8  C   UNL     1     -17.066  38.904   6.319  0.00  0.00    +0.000 C 
ATOM      9  C   UNL     1     -16.776  41.480   3.552  0.00  0.00    +0.000 A 
ATOM     10  C   UNL     1     -20.022  40.329   6.312  0.00  0.00    +0.000 C 
ATOM     11  C   UNL     1     -15.330  40.624   5.781  0.00  0.00    +0.000 A 
ATOM     12  C   UNL     1     -15.572  42.094   3.876  0.00  0.00    +0.000 A 
ATOM     13  C   UNL     1     -14.846  41.664   4.985  0.00  0.00    +0.000 A 
ENDROOT
BRANCH   7  14
ATOM     14  C   UNL     1     -18.865  37.438   7.217  0.00  0.00    +0.000 C 
ATOM     15  O   UNL     1     -19.081  37.641   8.410  0.00  0.00    +0.000 OA
ATOM     16  N   UNL     1     -19.026  36.240   6.568  0.00  0.00    +0.000 N 
ATOM     17  H   UNL     1     -18.889  36.175   5.566  0.00  0.00    +0.000 HD
BRANCH  16  18
ATOM     18  C   UNL     1     -19.440  35.036   7.140  0.00  0.00    +0.000 A 
ATOM     19  N   UNL     1     -20.740  34.742   6.933  0.00  0.00    +0.000 NA
ATOM     20  C   UNL     1     -21.194  33.582   7.462  0.00  0.00    +0.000 A 
ATOM     21  C   UNL     1     -20.416  32.698   8.186  0.00  0.00    +0.000 A 
ATOM     22  C   UNL     1     -19.082  33.029   8.379  0.00  0.00    +0.000 A 
ATOM     23  C   UNL     1     -18.580  34.212   7.851  0.00  0.00    +0.000 A 
ENDBRANCH  16  18
ENDBRANCH   7  14
BRANCH   8  24
ATOM     24  O   UNL     1     -16.086  38.271   7.066  0.00  0.00    +0.000 OA
ATOM     25  H   UNL     1     -16.172  37.296   6.966  0.00  0.00    +0.000 HD
ENDBRANCH   8  24
TORSDOF 3
ENDMDL
MODEL 3
REMARK VINA RESULT:      -5.5      4.404      6.450
REMARK  Name = Piroxicam.pdbqt.pdb
REMARK  3 active torsions:
REMARK  status: ('A' for Active; 'I' for Inactive)
REMARK    1  A    between atoms: C_7  and  C_14
REMARK    2  A    between atoms: C_8  and  O_24
REMARK    3  A    between atoms: N_16  and  C_18
REMARK                            x       y       z     vdW  Elec       q    Type
REMARK                         _______ _______ _______ _____ _____    ______ ____
ROOT
ATOM      1  S   UNL     1     -15.795  39.688   5.121  0.00  0.00    +0.000 S 
ATOM      2  O   UNL     1     -15.843  39.200   3.755  0.00  0.00    +0.000 OA
ATOM      3  O   UNL     1     -14.683  39.349   5.988  0.00  0.00    +0.000 OA
ATOM      4  N   UNL     1     -16.046  41.391   5.104  0.00  0.00    +0.000 N 
ATOM      5  C   UNL     1     -17.269  39.141   5.892  0.00  0.00    +0.000 A 
ATOM      6  C   UNL     1     -18.429  39.877   5.656  0.00  0.00    +0.000 A 
ATOM      7  C   UNL     1     -17.299  41.779   4.520  0.00  0.00    +0.000 C 
ATOM      8  C   UNL     1     -18.418  41.062   4.777  0.00  0.00    +0.000 C 
ATOM      9  C   UNL     1     -17.239  38.030   6.727  0.00  0.00    +0.000 A 
ATOM     10  C   UNL     1     -15.739  42.162   6.321  0.00  0.00    +0.000 C 
ATOM     11  C   UNL     1     -19.606  39.436   6.263  0.00  0.00    +0.000 A 
ATOM     12  C   UNL     1     -18.422  37.619   7.331  0.00  0.00    +0.000 A 
ATOM     13  C   UNL     1     -19.605  38.315   7.095  0.00  0.00    +0.000 A 
ENDROOT
BRANCH   7  14
ATOM     14  C   UNL     1     -17.329  42.975   3.615  0.00  0.00    +0.000 C 
ATOM     15  O   UNL     1     -18.113  43.892   3.855  0.00  0.00    +0.000 OA
ATOM     16  N   UNL     1     -16.452  42.928   2.562  0.00  0.00    +0.000 N 
ATOM     17  H   UNL     1     -15.793  42.163   2.474  0.00  0.00    +0.000 HD
BRANCH  16  18
ATOM     18  C   UNL     1     -16.301  43.893   1.564  0.00  0.00    +0.000 A 
ATOM     19  N   UNL     1     -15.080  44.463   1.525  0.00  0.00    +0.000 NA
ATOM     20  C   UNL     1     -14.877  45.403   0.573  0.00  0.00    +0.000 A 
ATOM     21  C   UNL     1     -15.831  45.803  -0.345  0.00  0.00    +0.000 A 
ATOM     22  C   UNL     1     -17.076  45.194  -0.279  0.00  0.00    +0.000 A 
ATOM     23  C   UNL     1     -17.323  44.224   0.686  0.00  0.00    +0.000 A 
ENDBRANCH  16  18
ENDBRANCH   7  14
BRANCH   8  24
ATOM     24  O   UNL     1     -19.664  41.369   4.257  0.00  0.00    +0.000 OA
ATOM     25  H   UNL     1     -20.240  40.571   4.285  0.00  0.00    +0.000 HD
ENDBRANCH   8  24
TORSDOF 3
ENDMDL
MODEL 4
REMARK VINA RESULT:      -5.5     23.682     25.043
REMARK  Name = Piroxicam.pdbqt.pdb
REMARK  3 active torsions:
REMARK  status: ('A' for Active; 'I' for Inactive)
REMARK    1  A    between atoms: C_7  and  C_14
REMARK    2  A    between atoms: C_8  and  O_24
REMARK    3  A    between atoms: N_16  and  C_18
REMARK                            x       y       z     vdW  Elec       q    Type
REMARK                         _______ _______ _______ _____ _____    ______ ____
ROOT
ATOM      1  S   UNL     1      -8.754  50.421  26.271  0.00  0.00    +0.000 S 
ATOM      2  O   UNL     1      -9.240  50.909  24.994  0.00  0.00    +0.000 OA
ATOM      3  O   UNL     1      -7.953  51.270  27.132  0.00  0.00    +0.000 OA
ATOM      4  N   UNL     1     -10.082  49.761  27.146  0.00  0.00    +0.000 N 
ATOM      5  C   UNL     1      -7.830  48.974  25.927  0.00  0.00    +0.000 A 
ATOM      6  C   UNL     1      -8.539  47.791  25.728  0.00  0.00    +0.000 A 
ATOM      7  C   UNL     1     -10.741  48.685  26.461  0.00  0.00    +0.000 C 
ATOM      8  C   UNL     1     -10.013  47.762  25.790  0.00  0.00    +0.000 C 
ATOM      9  C   UNL     1      -6.442  49.034  25.892  0.00  0.00    +0.000 A 
ATOM     10  C   UNL     1      -9.912  49.483  28.583  0.00  0.00    +0.000 C 
ATOM     11  C   UNL     1      -7.803  46.639  25.444  0.00  0.00    +0.000 A 
ATOM     12  C   UNL     1      -5.731  47.872  25.620  0.00  0.00    +0.000 A 
ATOM     13  C   UNL     1      -6.409  46.677  25.391  0.00  0.00    +0.000 A 
ENDROOT
BRANCH   7  14
ATOM     14  C   UNL     1     -12.239  48.623  26.495  0.00  0.00    +0.000 C 
ATOM     15  O   UNL     1     -12.790  47.682  27.062  0.00  0.00    +0.000 OA
ATOM     16  N   UNL     1     -12.877  49.658  25.860  0.00  0.00    +0.000 N 
ATOM     17  H   UNL     1     -12.346  50.430  25.473  0.00  0.00    +0.000 HD
BRANCH  16  18
ATOM     18  C   UNL     1     -14.256  49.823  25.722  0.00  0.00    +0.000 A 
ATOM     19  N   UNL     1     -14.837  50.503  26.731  0.00  0.00    +0.000 NA
ATOM     20  C   UNL     1     -16.173  50.696  26.647  0.00  0.00    +0.000 A 
ATOM     21  C   UNL     1     -16.962  50.246  25.603  0.00  0.00    +0.000 A 
ATOM     22  C   UNL     1     -16.333  49.552  24.580  0.00  0.00    +0.000 A 
ATOM     23  C   UNL     1     -14.961  49.333  24.632  0.00  0.00    +0.000 A 
ENDBRANCH  16  18
ENDBRANCH   7  14
BRANCH   8  24
ATOM     24  O   UNL     1     -10.568  46.693  25.108  0.00  0.00    +0.000 OA
ATOM     25  H   UNL     1      -9.897  46.301  24.504  0.00  0.00    +0.000 HD
ENDBRANCH   8  24
TORSDOF 3
ENDMDL
MODEL 5
REMARK VINA RESULT:      -5.4     16.566     17.376
REMARK  Name = Piroxicam.pdbqt.pdb
REMARK  3 active torsions:
REMARK  status: ('A' for Active; 'I' for Inactive)
REMARK    1  A    between atoms: C_7  and  C_14
REMARK    2  A    between atoms: C_8  and  O_24
REMARK    3  A    between atoms: N_16  and  C_18
REMARK                            x       y       z     vdW  Elec       q    Type
REMARK                         _______ _______ _______ _____ _____    ______ ____
ROOT
ATOM      1  S   UNL     1     -27.211  38.051  17.876  0.00  0.00    +0.000 S 
ATOM      2  O   UNL     1     -27.980  38.342  19.072  0.00  0.00    +0.000 OA
ATOM      3  O   UNL     1     -27.825  37.383  16.746  0.00  0.00    +0.000 OA
ATOM      4  N   UNL     1     -26.427  39.497  17.365  0.00  0.00    +0.000 N 
ATOM      5  C   UNL     1     -25.839  37.093  18.392  0.00  0.00    +0.000 A 
ATOM      6  C   UNL     1     -24.753  37.770  18.943  0.00  0.00    +0.000 A 
ATOM      7  C   UNL     1     -25.548  40.053  18.355  0.00  0.00    +0.000 C 
ATOM      8  C   UNL     1     -24.765  39.237  19.100  0.00  0.00    +0.000 C 
ATOM      9  C   UNL     1     -25.855  35.715  18.214  0.00  0.00    +0.000 A 
ATOM     10  C   UNL     1     -25.841  39.542  16.014  0.00  0.00    +0.000 C 
ATOM     11  C   UNL     1     -23.663  37.006  19.363  0.00  0.00    +0.000 A 
ATOM     12  C   UNL     1     -24.753  34.976  18.628  0.00  0.00    +0.000 A 
ATOM     13  C   UNL     1     -23.661  35.619  19.207  0.00  0.00    +0.000 A 
ENDROOT
BRANCH   7  14
ATOM     14  C   UNL     1     -25.535  41.539  18.550  0.00  0.00    +0.000 C 
ATOM     15  O   UNL     1     -26.597  42.133  18.725  0.00  0.00    +0.000 OA
ATOM     16  N   UNL     1     -24.293  42.119  18.508  0.00  0.00    +0.000 N 
ATOM     17  H   UNL     1     -23.460  41.547  18.425  0.00  0.00    +0.000 HD
BRANCH  16  18
ATOM     18  C   UNL     1     -24.007  43.480  18.632  0.00  0.00    +0.000 A 
ATOM     19  N   UNL     1     -23.614  44.071  17.486  0.00  0.00    +0.000 NA
ATOM     20  C   UNL     1     -23.328  45.392  17.549  0.00  0.00    +0.000 A 
ATOM     21  C   UNL     1     -23.417  46.156  18.699  0.00  0.00    +0.000 A 
ATOM     22  C   UNL     1     -23.828  45.517  19.860  0.00  0.00    +0.000 A 
ATOM     23  C   UNL     1     -24.129  44.161  19.835  0.00  0.00    +0.000 A 
ENDBRANCH  16  18
ENDBRANCH   7  14
BRANCH   8  24
ATOM     24  O   UNL     1     -23.889  39.691  20.071  0.00  0.00    +0.000 OA
ATOM     25  H   UNL     1     -24.180  39.371  20.955  0.00  0.00    +0.000 HD
ENDBRANCH   8  24
TORSDOF 3
ENDMDL
MODEL 6
REMARK VINA RESULT:      -5.4      4.788      7.302
REMARK  Name = Piroxicam.pdbqt.pdb
REMARK  3 active torsions:
REMARK  status: ('A' for Active; 'I' for Inactive)
REMARK    1  A    between atoms: C_7  and  C_14
REMARK    2  A    between atoms: C_8  and  O_24
REMARK    3  A    between atoms: N_16  and  C_18
REMARK                            x       y       z     vdW  Elec       q    Type
REMARK                         _______ _______ _______ _____ _____    ______ ____
ROOT
ATOM      1  S   UNL     1     -19.590  39.424   5.419  0.00  0.00    +0.000 S 
ATOM      2  O   UNL     1     -20.209  39.560   6.724  0.00  0.00    +0.000 OA
ATOM      3  O   UNL     1     -19.561  38.141   4.744  0.00  0.00    +0.000 OA
ATOM      4  N   UNL     1     -20.235  40.635   4.378  0.00  0.00    +0.000 N 
ATOM      5  C   UNL     1     -17.940  39.981   5.595  0.00  0.00    +0.000 A 
ATOM      6  C   UNL     1     -17.719  41.356   5.572  0.00  0.00    +0.000 A 
ATOM      7  C   UNL     1     -20.019  41.973   4.853  0.00  0.00    +0.000 C 
ATOM      8  C   UNL     1     -18.836  42.308   5.419  0.00  0.00    +0.000 C 
ATOM      9  C   UNL     1     -16.909  39.056   5.720  0.00  0.00    +0.000 A 
ATOM     10  C   UNL     1     -20.001  40.516   2.928  0.00  0.00    +0.000 C 
ATOM     11  C   UNL     1     -16.404  41.801   5.722  0.00  0.00    +0.000 A 
ATOM     12  C   UNL     1     -15.607  39.522   5.855  0.00  0.00    +0.000 A 
ATOM     13  C   UNL     1     -15.354  40.892   5.862  0.00  0.00    +0.000 A 
ENDROOT
BRANCH   7  14
ATOM     14  C   UNL     1     -21.132  42.969   4.723  0.00  0.00    +0.000 C 
ATOM     15  O   UNL     1     -22.280  42.630   5.005  0.00  0.00    +0.000 OA
ATOM     16  N   UNL     1     -20.752  44.210   4.280  0.00  0.00    +0.000 N 
ATOM     17  H   UNL     1     -19.773  44.426   4.133  0.00  0.00    +0.000 HD
BRANCH  16  18
ATOM     18  C   UNL     1     -21.590  45.301   4.047  0.00  0.00    +0.000 A 
ATOM     19  N   UNL     1     -21.753  46.112   5.112  0.00  0.00    +0.000 NA
ATOM     20  C   UNL     1     -22.554  47.189   4.941  0.00  0.00    +0.000 A 
ATOM     21  C   UNL     1     -23.199  47.501   3.758  0.00  0.00    +0.000 A 
ATOM     22  C   UNL     1     -23.008  46.648   2.681  0.00  0.00    +0.000 A 
ATOM     23  C   UNL     1     -22.193  45.530   2.819  0.00  0.00    +0.000 A 
ENDBRANCH  16  18
ENDBRANCH   7  14
BRANCH   8  24
ATOM     24  O   UNL     1     -18.546  43.574   5.900  0.00  0.00    +0.000 OA
ATOM     25  H   UNL     1     -17.873  43.510   6.615  0.00  0.00    +0.000 HD
ENDBRANCH   8  24
TORSDOF 3
ENDMDL
MODEL 7
REMARK VINA RESULT:      -5.3     19.796     20.944
REMARK  Name = Piroxicam.pdbqt.pdb
REMARK  3 active torsions:
REMARK  status: ('A' for Active; 'I' for Inactive)
REMARK    1  A    between atoms: C_7  and  C_14
REMARK    2  A    between atoms: C_8  and  O_24
REMARK    3  A    between atoms: N_16  and  C_18
REMARK                            x       y       z     vdW  Elec       q    Type
REMARK                         _______ _______ _______ _____ _____    ______ ____
ROOT
ATOM      1  S   UNL     1       0.917  25.326  12.945  0.00  0.00    +0.000 S 
ATOM      2  O   UNL     1       2.155  25.513  13.679  0.00  0.00    +0.000 OA
ATOM      3  O   UNL     1       0.471  23.999  12.570  0.00  0.00    +0.000 OA
ATOM      4  N   UNL     1      -0.338  26.172  13.766  0.00  0.00    +0.000 N 
ATOM      5  C   UNL     1       1.061  26.281  11.484  0.00  0.00    +0.000 A 
ATOM      6  C   UNL     1       0.814  27.649  11.583  0.00  0.00    +0.000 A 
ATOM      7  C   UNL     1      -0.088  27.580  13.900  0.00  0.00    +0.000 C 
ATOM      8  C   UNL     1       0.459  28.271  12.873  0.00  0.00    +0.000 C 
ATOM      9  C   UNL     1       1.381  25.660  10.283  0.00  0.00    +0.000 A 
ATOM     10  C   UNL     1      -1.737  25.889  13.399  0.00  0.00    +0.000 C 
ATOM     11  C   UNL     1       0.938  28.412  10.421  0.00  0.00    +0.000 A 
ATOM     12  C   UNL     1       1.486  26.438   9.137  0.00  0.00    +0.000 A 
ATOM     13  C   UNL     1       1.271  27.813   9.205  0.00  0.00    +0.000 A 
ENDROOT
BRANCH   7  14
ATOM     14  C   UNL     1      -0.429  28.249  15.198  0.00  0.00    +0.000 C 
ATOM     15  O   UNL     1      -0.859  29.401  15.187  0.00  0.00    +0.000 OA
ATOM     16  N   UNL     1      -0.215  27.487  16.318  0.00  0.00    +0.000 N 
ATOM     17  H   UNL     1       0.080  26.521  16.235  0.00  0.00    +0.000 HD
BRANCH  16  18
ATOM     18  C   UNL     1      -0.423  27.880  17.641  0.00  0.00    +0.000 A 
ATOM     19  N   UNL     1      -1.665  27.634  18.104  0.00  0.00    +0.000 NA
ATOM     20  C   UNL     1      -1.921  27.991  19.384  0.00  0.00    +0.000 A 
ATOM     21  C   UNL     1      -0.997  28.580  20.228  0.00  0.00    +0.000 A 
ATOM     22  C   UNL     1       0.273  28.817  19.722  0.00  0.00    +0.000 A 
ATOM     23  C   UNL     1       0.572  28.464  18.411  0.00  0.00    +0.000 A 
ENDBRANCH  16  18
ENDBRANCH   7  14
BRANCH   8  24
ATOM     24  O   UNL     1       0.729  29.629  12.919  0.00  0.00    +0.000 OA
ATOM     25  H   UNL     1       0.432  29.996  13.782  0.00  0.00    +0.000 HD
ENDBRANCH   8  24
TORSDOF 3
ENDMDL
MODEL 8
REMARK VINA RESULT:      -5.2     17.842     19.344
REMARK  Name = Piroxicam.pdbqt.pdb
REMARK  3 active torsions:
REMARK  status: ('A' for Active; 'I' for Inactive)
REMARK    1  A    between atoms: C_7  and  C_14
REMARK    2  A    between atoms: C_8  and  O_24
REMARK    3  A    between atoms: N_16  and  C_18
REMARK                            x       y       z     vdW  Elec       q    Type
REMARK                         _______ _______ _______ _____ _____    ______ ____
ROOT
ATOM      1  S   UNL     1     -26.834  37.225  20.909  0.00  0.00    +0.000 S 
ATOM      2  O   UNL     1     -26.566  37.198  22.335  0.00  0.00    +0.000 OA
ATOM      3  O   UNL     1     -27.809  36.327  20.321  0.00  0.00    +0.000 OA
ATOM      4  N   UNL     1     -27.158  38.852  20.443  0.00  0.00    +0.000 N 
ATOM      5  C   UNL     1     -25.298  36.952  20.113  0.00  0.00    +0.000 A 
ATOM      6  C   UNL     1     -24.436  38.040  19.987  0.00  0.00    +0.000 A 
ATOM      7  C   UNL     1     -26.079  39.755  20.727  0.00  0.00    +0.000 C 
ATOM      8  C   UNL     1     -24.799  39.368  20.517  0.00  0.00    +0.000 C 
ATOM      9  C   UNL     1     -24.996  35.691  19.611  0.00  0.00    +0.000 A 
ATOM     10  C   UNL     1     -27.756  39.100  19.120  0.00  0.00    +0.000 C 
ATOM     11  C   UNL     1     -23.208  37.820  19.361  0.00  0.00    +0.000 A 
ATOM     12  C   UNL     1     -23.772  35.500  18.981  0.00  0.00    +0.000 A 
ATOM     13  C   UNL     1     -22.876  36.560  18.861  0.00  0.00    +0.000 A 
ENDROOT
BRANCH   7  14
ATOM     14  C   UNL     1     -26.404  41.113  21.273  0.00  0.00    +0.000 C 
ATOM     15  O   UNL     1     -26.906  41.208  22.392  0.00  0.00    +0.000 OA
ATOM     16  N   UNL     1     -26.106  42.160  20.440  0.00  0.00    +0.000 N 
ATOM     17  H   UNL     1     -25.631  41.998  19.559  0.00  0.00    +0.000 HD
BRANCH  16  18
ATOM     18  C   UNL     1     -26.333  43.514  20.694  0.00  0.00    +0.000 A 
ATOM     19  N   UNL     1     -25.216  44.227  20.942  0.00  0.00    +0.000 NA
ATOM     20  C   UNL     1     -25.378  45.547  21.191  0.00  0.00    +0.000 A 
ATOM     21  C   UNL     1     -26.600  46.194  21.202  0.00  0.00    +0.000 A 
ATOM     22  C   UNL     1     -27.730  45.432  20.941  0.00  0.00    +0.000 A 
ATOM     23  C   UNL     1     -27.603  44.072  20.681  0.00  0.00    +0.000 A 
ENDBRANCH  16  18
ENDBRANCH   7  14
BRANCH   8  24
ATOM     24  O   UNL     1     -23.702  40.177  20.761  0.00  0.00    +0.000 OA
ATOM     25  H   UNL     1     -23.944  41.119  20.607  0.00  0.00    +0.000 HD
ENDBRANCH   8  24
TORSDOF 3
ENDMDL
MODEL 9
REMARK VINA RESULT:      -5.2     19.438     20.930
REMARK  Name = Piroxicam.pdbqt.pdb
REMARK  3 active torsions:
REMARK  status: ('A' for Active; 'I' for Inactive)
REMARK    1  A    between atoms: C_7  and  C_14
REMARK    2  A    between atoms: C_8  and  O_24
REMARK    3  A    between atoms: N_16  and  C_18
REMARK                            x       y       z     vdW  Elec       q    Type
REMARK                         _______ _______ _______ _____ _____    ______ ____
ROOT
ATOM      1  S   UNL     1     -26.813  37.068  21.451  0.00  0.00    +0.000 S 
ATOM      2  O   UNL     1     -26.330  36.903  22.809  0.00  0.00    +0.000 OA
ATOM      3  O   UNL     1     -27.795  36.155  20.898  0.00  0.00    +0.000 OA
ATOM      4  N   UNL     1     -27.329  38.699  21.247  0.00  0.00    +0.000 N 
ATOM      5  C   UNL     1     -25.400  37.034  20.417  0.00  0.00    +0.000 A 
ATOM      6  C   UNL     1     -24.654  38.206  20.309  0.00  0.00    +0.000 A 
ATOM      7  C   UNL     1     -26.291  39.661  21.488  0.00  0.00    +0.000 C 
ATOM      8  C   UNL     1     -25.033  39.425  21.051  0.00  0.00    +0.000 C 
ATOM      9  C   UNL     1     -25.083  35.874  19.721  0.00  0.00    +0.000 A 
ATOM     10  C   UNL     1     -28.139  39.040  20.065  0.00  0.00    +0.000 C 
ATOM     11  C   UNL     1     -23.522  38.177  19.493  0.00  0.00    +0.000 A 
ATOM     12  C   UNL     1     -23.958  35.873  18.904  0.00  0.00    +0.000 A 
ATOM     13  C   UNL     1     -23.175  37.020  18.794  0.00  0.00    +0.000 A 
ENDROOT
BRANCH   7  14
ATOM     14  C   UNL     1     -26.633  40.911  22.244  0.00  0.00    +0.000 C 
ATOM     15  O   UNL     1     -26.268  41.999  21.804  0.00  0.00    +0.000 OA
ATOM     16  N   UNL     1     -27.343  40.714  23.401  0.00  0.00    +0.000 N 
ATOM     17  H   UNL     1     -27.662  39.787  23.657  0.00  0.00    +0.000 HD
BRANCH  16  18
ATOM     18  C   UNL     1     -27.759  41.699  24.297  0.00  0.00    +0.000 A 
ATOM     19  N   UNL     1     -27.211  41.600  25.525  0.00  0.00    +0.000 NA
ATOM     20  C   UNL     1     -27.577  42.534  26.433  0.00  0.00    +0.000 A 
ATOM     21  C   UNL     1     -28.463  43.565  26.178  0.00  0.00    +0.000 A 
ATOM     22  C   UNL     1     -29.007  43.640  24.904  0.00  0.00    +0.000 A 
ATOM     23  C   UNL     1     -28.655  42.698  23.944  0.00  0.00    +0.000 A 
ENDBRANCH  16  18
ENDBRANCH   7  14
BRANCH   8  24
ATOM     24  O   UNL     1     -23.977  40.301  21.238  0.00  0.00    +0.000 OA
ATOM     25  H   UNL     1     -23.196  39.994  20.723  0.00  0.00    +0.000 HD
ENDBRANCH   8  24
TORSDOF 3
ENDMDL
