MODEL 1
REMARK VINA RESULT:      -6.3      0.000      0.000
REMARK  Name = PKR_Inhibitor.pdbqt.pdb
REMARK  0 active torsions:
REMARK  status: ('A' for Active; 'I' for Inactive)
REMARK                            x       y       z     vdW  Elec       q    Type
REMARK                         _______ _______ _______ _____ _____    ______ ____
ROOT
ATOM      1  S   UNL     1     -19.315  41.210   5.599  0.00  0.00    +0.000 S 
ATOM      2  O   UNL     1     -14.920  37.569   6.528  0.00  0.00    +0.000 OA
ATOM      3  N   UNL     1     -14.621  39.782   5.808  0.00  0.00    +0.000 N 
ATOM      4  N   UNL     1     -18.490  43.549   4.811  0.00  0.00    +0.000 NA
ATOM      5  C   UNL     1     -16.781  40.508   5.690  0.00  0.00    +0.000 A 
ATOM      6  C   UNL     1     -15.424  40.870   5.503  0.00  0.00    +0.000 A 
ATOM      7  C   UNL     1     -16.786  39.088   6.142  0.00  0.00    +0.000 C 
ATOM      8  C   UNL     1     -17.680  41.486   5.425  0.00  0.00    +0.000 A 
ATOM      9  C   UNL     1     -15.350  38.659   6.203  0.00  0.00    +0.000 C 
ATOM     10  C   UNL     1     -17.368  42.761   5.003  0.00  0.00    +0.000 A 
ATOM     11  C   UNL     1     -14.984  42.122   5.082  0.00  0.00    +0.000 A 
ATOM     12  C   UNL     1     -17.776  38.309   6.442  0.00  0.00    +0.000 C 
ATOM     13  C   UNL     1     -15.999  43.075   4.832  0.00  0.00    +0.000 A 
ATOM     14  C   UNL     1     -19.557  42.831   5.096  0.00  0.00    +0.000 A 
ATOM     15  H   UNL     1     -13.612  39.776   5.757  0.00  0.00    +0.000 HD
ATOM     16  C   UNL     1     -18.801  37.396   6.785  0.00  0.00    +0.000 C 
ATOM     17  N   UNL     1     -18.599  36.105   7.187  0.00  0.00    +0.000 N 
ATOM     18  C   UNL     1     -19.826  35.550   7.427  0.00  0.00    +0.000 C 
ATOM     19  H   UNL     1     -17.709  35.639   7.290  0.00  0.00    +0.000 HD
ATOM     20  N   UNL     1     -20.793  36.412   7.202  0.00  0.00    +0.000 NA
ATOM     21  C   UNL     1     -20.166  37.566   6.801  0.00  0.00    +0.000 C 
ENDROOT
TORSDOF 0
ENDMDL
MODEL 2
REMARK VINA RESULT:      -5.9      2.491      4.386
REMARK  Name = PKR_Inhibitor.pdbqt.pdb
REMARK  0 active torsions:
REMARK  status: ('A' for Active; 'I' for Inactive)
REMARK                            x       y       z     vdW  Elec       q    Type
REMARK                         _______ _______ _______ _____ _____    ______ ____
ROOT
ATOM      1  S   UNL     1     -17.318  41.616   4.890  0.00  0.00    +0.000 S 
ATOM      2  O   UNL     1     -20.409  37.201   6.983  0.00  0.00    +0.000 OA
ATOM      3  N   UNL     1     -18.066  37.179   6.855  0.00  0.00    +0.000 N 
ATOM      4  N   UNL     1     -14.763  41.130   4.950  0.00  0.00    +0.000 NA
ATOM      5  C   UNL     1     -17.650  39.229   5.943  0.00  0.00    +0.000 A 
ATOM      6  C   UNL     1     -17.062  38.033   6.426  0.00  0.00    +0.000 A 
ATOM      7  C   UNL     1     -19.124  39.072   6.097  0.00  0.00    +0.000 C 
ATOM      8  C   UNL     1     -16.776  40.158   5.489  0.00  0.00    +0.000 A 
ATOM      9  C   UNL     1     -19.345  37.715   6.698  0.00  0.00    +0.000 C 
ATOM     10  C   UNL     1     -15.405  40.018   5.469  0.00  0.00    +0.000 A 
ATOM     11  C   UNL     1     -15.695  37.774   6.458  0.00  0.00    +0.000 A 
ATOM     12  C   UNL     1     -20.087  39.886   5.802  0.00  0.00    +0.000 C 
ATOM     13  C   UNL     1     -14.865  38.807   5.962  0.00  0.00    +0.000 A 
ATOM     14  C   UNL     1     -15.675  42.021   4.618  0.00  0.00    +0.000 A 
ATOM     15  H   UNL     1     -17.915  36.258   7.244  0.00  0.00    +0.000 HD
ATOM     16  C   UNL     1     -21.195  40.716   5.507  0.00  0.00    +0.000 C 
ATOM     17  N   UNL     1     -22.503  40.387   5.728  0.00  0.00    +0.000 N 
ATOM     18  C   UNL     1     -23.270  41.441   5.316  0.00  0.00    +0.000 C 
ATOM     19  H   UNL     1     -22.848  39.523   6.123  0.00  0.00    +0.000 HD
ATOM     20  N   UNL     1     -22.527  42.419   4.847  0.00  0.00    +0.000 NA
ATOM     21  C   UNL     1     -21.231  41.978   4.961  0.00  0.00    +0.000 C 
ENDROOT
TORSDOF 0
ENDMDL
MODEL 3
REMARK VINA RESULT:      -5.7      1.583      5.625
REMARK  Name = PKR_Inhibitor.pdbqt.pdb
REMARK  0 active torsions:
REMARK  status: ('A' for Active; 'I' for Inactive)
REMARK                            x       y       z     vdW  Elec       q    Type
REMARK                         _______ _______ _______ _____ _____    ______ ____
ROOT
ATOM      1  S   UNL     1     -20.456  38.596   6.669  0.00  0.00    +0.000 S 
ATOM      2  O   UNL     1     -14.752  38.567   5.728  0.00  0.00    +0.000 OA
ATOM      3  N   UNL     1     -15.961  36.649   6.329  0.00  0.00    +0.000 N 
ATOM      4  N   UNL     1     -21.348  36.237   7.309  0.00  0.00    +0.000 NA
ATOM      5  C   UNL     1     -18.075  37.491   6.504  0.00  0.00    +0.000 A 
ATOM      6  C   UNL     1     -17.278  36.324   6.616  0.00  0.00    +0.000 A 
ATOM      7  C   UNL     1     -17.156  38.600   6.120  0.00  0.00    +0.000 C 
ATOM      8  C   UNL     1     -19.393  37.315   6.760  0.00  0.00    +0.000 A 
ATOM      9  C   UNL     1     -15.786  37.997   6.019  0.00  0.00    +0.000 C 
ATOM     10  C   UNL     1     -19.984  36.119   7.107  0.00  0.00    +0.000 A 
ATOM     11  C   UNL     1     -17.757  35.062   6.958  0.00  0.00    +0.000 A 
ATOM     12  C   UNL     1     -17.402  39.852   5.900  0.00  0.00    +0.000 C 
ATOM     13  C   UNL     1     -19.147  34.982   7.205  0.00  0.00    +0.000 A 
ATOM     14  C   UNL     1     -21.694  37.492   7.104  0.00  0.00    +0.000 A 
ATOM     15  H   UNL     1     -15.190  35.995   6.337  0.00  0.00    +0.000 HD
ATOM     16  C   UNL     1     -17.589  41.231   5.643  0.00  0.00    +0.000 C 
ATOM     17  N   UNL     1     -16.597  42.105   5.294  0.00  0.00    +0.000 N 
ATOM     18  C   UNL     1     -17.169  43.336   5.133  0.00  0.00    +0.000 C 
ATOM     19  H   UNL     1     -15.617  41.887   5.176  0.00  0.00    +0.000 HD
ATOM     20  N   UNL     1     -18.464  43.296   5.358  0.00  0.00    +0.000 NA
ATOM     21  C   UNL     1     -18.737  41.988   5.677  0.00  0.00    +0.000 C 
ENDROOT
TORSDOF 0
ENDMDL
MODEL 4
REMARK VINA RESULT:      -5.6      2.721      6.341
REMARK  Name = PKR_Inhibitor.pdbqt.pdb
REMARK  0 active torsions:
REMARK  status: ('A' for Active; 'I' for Inactive)
REMARK                            x       y       z     vdW  Elec       q    Type
REMARK                         _______ _______ _______ _____ _____    ______ ____
ROOT
ATOM      1  S   UNL     1     -16.395  39.668   5.315  0.00  0.00    +0.000 S 
ATOM      2  O   UNL     1     -21.936  41.183   5.973  0.00  0.00    +0.000 OA
ATOM      3  N   UNL     1     -21.001  39.278   6.973  0.00  0.00    +0.000 N 
ATOM      4  N   UNL     1     -15.823  37.486   6.612  0.00  0.00    +0.000 NA
ATOM      5  C   UNL     1     -18.844  39.402   6.237  0.00  0.00    +0.000 A 
ATOM      6  C   UNL     1     -19.762  38.655   7.017  0.00  0.00    +0.000 A 
ATOM      7  C   UNL     1     -19.598  40.562   5.683  0.00  0.00    +0.000 C 
ATOM      8  C   UNL     1     -17.586  38.900   6.193  0.00  0.00    +0.000 A 
ATOM      9  C   UNL     1     -21.003  40.436   6.194  0.00  0.00    +0.000 C 
ATOM     10  C   UNL     1     -17.162  37.757   6.835  0.00  0.00    +0.000 A 
ATOM     11  C   UNL     1     -19.455  37.488   7.711  0.00  0.00    +0.000 A 
ATOM     12  C   UNL     1     -19.203  41.526   4.915  0.00  0.00    +0.000 C 
ATOM     13  C   UNL     1     -18.116  37.047   7.603  0.00  0.00    +0.000 A 
ATOM     14  C   UNL     1     -15.331  38.426   5.830  0.00  0.00    +0.000 A 
ATOM     15  H   UNL     1     -21.830  38.948   7.446  0.00  0.00    +0.000 HD
ATOM     16  C   UNL     1     -18.850  42.610   4.077  0.00  0.00    +0.000 C 
ATOM     17  N   UNL     1     -19.703  43.598   3.671  0.00  0.00    +0.000 N 
ATOM     18  C   UNL     1     -18.995  44.457   2.878  0.00  0.00    +0.000 C 
ATOM     19  H   UNL     1     -20.682  43.684   3.911  0.00  0.00    +0.000 HD
ATOM     20  N   UNL     1     -17.743  44.074   2.755  0.00  0.00    +0.000 NA
ATOM     21  C   UNL     1     -17.641  42.922   3.498  0.00  0.00    +0.000 C 
ENDROOT
TORSDOF 0
ENDMDL
MODEL 5
REMARK VINA RESULT:      -5.4     24.398     25.576
REMARK  Name = PKR_Inhibitor.pdbqt.pdb
REMARK  0 active torsions:
REMARK  status: ('A' for Active; 'I' for Inactive)
REMARK                            x       y       z     vdW  Elec       q    Type
REMARK                         _______ _______ _______ _____ _____    ______ ____
ROOT
ATOM      1  S   UNL     1      -7.621  48.755  29.239  0.00  0.00    +0.000 S 
ATOM      2  O   UNL     1      -7.411  49.280  23.485  0.00  0.00    +0.000 OA
ATOM      3  N   UNL     1      -6.625  47.388  24.629  0.00  0.00    +0.000 N 
ATOM      4  N   UNL     1      -6.634  46.487  30.046  0.00  0.00    +0.000 NA
ATOM      5  C   UNL     1      -7.062  47.963  26.794  0.00  0.00    +0.000 A 
ATOM      6  C   UNL     1      -6.531  46.961  25.945  0.00  0.00    +0.000 A 
ATOM      7  C   UNL     1      -7.509  49.078  25.911  0.00  0.00    +0.000 C 
ATOM      8  C   UNL     1      -7.031  47.673  28.117  0.00  0.00    +0.000 A 
ATOM      9  C   UNL     1      -7.201  48.653  24.506  0.00  0.00    +0.000 C 
ATOM     10  C   UNL     1      -6.536  46.509  28.665  0.00  0.00    +0.000 A 
ATOM     11  C   UNL     1      -6.003  45.747  26.378  0.00  0.00    +0.000 A 
ATOM     12  C   UNL     1      -8.058  50.212  26.209  0.00  0.00    +0.000 C 
ATOM     13  C   UNL     1      -6.017  45.538  27.776  0.00  0.00    +0.000 A 
ATOM     14  C   UNL     1      -7.187  47.614  30.443  0.00  0.00    +0.000 A 
ATOM     15  H   UNL     1      -6.317  46.858  23.826  0.00  0.00    +0.000 HD
ATOM     16  C   UNL     1      -8.659  51.470  26.452  0.00  0.00    +0.000 C 
ATOM     17  N   UNL     1      -9.003  52.374  25.487  0.00  0.00    +0.000 N 
ATOM     18  C   UNL     1      -9.553  53.458  26.112  0.00  0.00    +0.000 C 
ATOM     19  H   UNL     1      -8.876  52.268  24.489  0.00  0.00    +0.000 HD
ATOM     20  N   UNL     1      -9.579  53.296  27.416  0.00  0.00    +0.000 NA
ATOM     21  C   UNL     1      -9.023  52.060  27.640  0.00  0.00    +0.000 C 
ENDROOT
TORSDOF 0
ENDMDL
MODEL 6
REMARK VINA RESULT:      -5.4     26.262     27.615
REMARK  Name = PKR_Inhibitor.pdbqt.pdb
REMARK  0 active torsions:
REMARK  status: ('A' for Active; 'I' for Inactive)
REMARK                            x       y       z     vdW  Elec       q    Type
REMARK                         _______ _______ _______ _____ _____    ______ ____
ROOT
ATOM      1  S   UNL     1      -3.586  45.374  27.112  0.00  0.00    +0.000 S 
ATOM      2  O   UNL     1      -1.239  50.637  27.581  0.00  0.00    +0.000 OA
ATOM      3  N   UNL     1      -3.438  50.275  26.849  0.00  0.00    +0.000 N 
ATOM      4  N   UNL     1      -6.043  45.477  26.261  0.00  0.00    +0.000 NA
ATOM      5  C   UNL     1      -3.572  47.999  26.949  0.00  0.00    +0.000 A 
ATOM      6  C   UNL     1      -4.273  49.190  26.631  0.00  0.00    +0.000 A 
ATOM      7  C   UNL     1      -2.210  48.410  27.390  0.00  0.00    +0.000 C 
ATOM      8  C   UNL     1      -4.276  46.855  26.780  0.00  0.00    +0.000 A 
ATOM      9  C   UNL     1      -2.172  49.908  27.307  0.00  0.00    +0.000 C 
ATOM     10  C   UNL     1      -5.580  46.779  26.337  0.00  0.00    +0.000 A 
ATOM     11  C   UNL     1      -5.588  49.243  26.177  0.00  0.00    +0.000 A 
ATOM     12  C   UNL     1      -1.205  47.693  27.782  0.00  0.00    +0.000 C 
ATOM     13  C   UNL     1      -6.237  47.995  26.034  0.00  0.00    +0.000 A 
ATOM     14  C   UNL     1      -5.077  44.667  26.645  0.00  0.00    +0.000 A 
ATOM     15  H   UNL     1      -3.695  51.241  26.699  0.00  0.00    +0.000 HD
ATOM     16  C   UNL     1      -0.063  46.981  28.219  0.00  0.00    +0.000 C 
ATOM     17  N   UNL     1       1.122  47.551  28.591  0.00  0.00    +0.000 N 
ATOM     18  C   UNL     1       1.973  46.542  28.947  0.00  0.00    +0.000 C 
ATOM     19  H   UNL     1       1.337  48.539  28.603  0.00  0.00    +0.000 HD
ATOM     20  N   UNL     1       1.399  45.366  28.824  0.00  0.00    +0.000 NA
ATOM     21  C   UNL     1       0.129  45.627  28.370  0.00  0.00    +0.000 C 
ENDROOT
TORSDOF 0
ENDMDL
MODEL 7
REMARK VINA RESULT:      -5.3     13.364     14.878
REMARK  Name = PKR_Inhibitor.pdbqt.pdb
REMARK  0 active torsions:
REMARK  status: ('A' for Active; 'I' for Inactive)
REMARK                            x       y       z     vdW  Elec       q    Type
REMARK                         _______ _______ _______ _____ _____    ______ ____
ROOT
ATOM      1  S   UNL     1     -19.464  54.410  11.217  0.00  0.00    +0.000 S 
ATOM      2  O   UNL     1     -14.952  50.877  10.447  0.00  0.00    +0.000 OA
ATOM      3  N   UNL     1     -15.994  51.191  12.525  0.00  0.00    +0.000 N 
ATOM      4  N   UNL     1     -20.275  54.427  13.690  0.00  0.00    +0.000 NA
ATOM      5  C   UNL     1     -17.629  52.687  11.983  0.00  0.00    +0.000 A 
ATOM      6  C   UNL     1     -17.051  51.931  13.033  0.00  0.00    +0.000 A 
ATOM      7  C   UNL     1     -16.853  52.371  10.751  0.00  0.00    +0.000 C 
ATOM      8  C   UNL     1     -18.680  53.463  12.343  0.00  0.00    +0.000 A 
ATOM      9  C   UNL     1     -15.796  51.387  11.158  0.00  0.00    +0.000 C 
ATOM     10  C   UNL     1     -19.200  53.557  13.616  0.00  0.00    +0.000 A 
ATOM     11  C   UNL     1     -17.486  51.941  14.356  0.00  0.00    +0.000 A 
ATOM     12  C   UNL     1     -16.993  52.806   9.540  0.00  0.00    +0.000 C 
ATOM     13  C   UNL     1     -18.589  52.782  14.630  0.00  0.00    +0.000 A 
ATOM     14  C   UNL     1     -20.492  54.924  12.489  0.00  0.00    +0.000 A 
ATOM     15  H   UNL     1     -15.414  50.566  13.067  0.00  0.00    +0.000 HD
ATOM     16  C   UNL     1     -17.078  53.234   8.194  0.00  0.00    +0.000 C 
ATOM     17  N   UNL     1     -16.256  52.818   7.184  0.00  0.00    +0.000 N 
ATOM     18  C   UNL     1     -16.653  53.451   6.039  0.00  0.00    +0.000 C 
ATOM     19  H   UNL     1     -15.491  52.162   7.263  0.00  0.00    +0.000 HD
ATOM     20  N   UNL     1     -17.679  54.243   6.261  0.00  0.00    +0.000 NA
ATOM     21  C   UNL     1     -17.952  54.117   7.602  0.00  0.00    +0.000 C 
ENDROOT
TORSDOF 0
ENDMDL
MODEL 8
REMARK VINA RESULT:      -5.3     25.516     26.908
REMARK  Name = PKR_Inhibitor.pdbqt.pdb
REMARK  0 active torsions:
REMARK  status: ('A' for Active; 'I' for Inactive)
REMARK                            x       y       z     vdW  Elec       q    Type
REMARK                         _______ _______ _______ _____ _____    ______ ____
ROOT
ATOM      1  S   UNL     1      -5.770  49.831  27.162  0.00  0.00    +0.000 S 
ATOM      2  O   UNL     1      -1.131  46.487  26.316  0.00  0.00    +0.000 OA
ATOM      3  N   UNL     1      -3.326  45.753  25.935  0.00  0.00    +0.000 N 
ATOM      4  N   UNL     1      -7.984  48.582  26.606  0.00  0.00    +0.000 NA
ATOM      5  C   UNL     1      -4.522  47.616  26.490  0.00  0.00    +0.000 A 
ATOM      6  C   UNL     1      -4.606  46.277  26.034  0.00  0.00    +0.000 A 
ATOM      7  C   UNL     1      -3.073  47.912  26.679  0.00  0.00    +0.000 C 
ATOM      8  C   UNL     1      -5.709  48.251  26.633  0.00  0.00    +0.000 A 
ATOM      9  C   UNL     1      -2.334  46.662  26.302  0.00  0.00    +0.000 C 
ATOM     10  C   UNL     1      -6.944  47.699  26.371  0.00  0.00    +0.000 A 
ATOM     11  C   UNL     1      -5.792  45.610  25.737  0.00  0.00    +0.000 A 
ATOM     12  C   UNL     1      -2.486  48.994  27.079  0.00  0.00    +0.000 C 
ATOM     13  C   UNL     1      -6.977  46.359  25.917  0.00  0.00    +0.000 A 
ATOM     14  C   UNL     1      -7.476  49.724  27.022  0.00  0.00    +0.000 A 
ATOM     15  H   UNL     1      -3.108  44.814  25.632  0.00  0.00    +0.000 HD
ATOM     16  C   UNL     1      -1.770  50.137  27.509  0.00  0.00    +0.000 C 
ATOM     17  N   UNL     1      -0.410  50.215  27.616  0.00  0.00    +0.000 N 
ATOM     18  C   UNL     1      -0.101  51.471  28.059  0.00  0.00    +0.000 C 
ATOM     19  H   UNL     1       0.254  49.482  27.408  0.00  0.00    +0.000 HD
ATOM     20  N   UNL     1      -1.184  52.195  28.239  0.00  0.00    +0.000 NA
ATOM     21  C   UNL     1      -2.231  51.372  27.899  0.00  0.00    +0.000 C 
ENDROOT
TORSDOF 0
ENDMDL
MODEL 9
REMARK VINA RESULT:      -5.2     25.920     27.104
REMARK  Name = PKR_Inhibitor.pdbqt.pdb
REMARK  0 active torsions:
REMARK  status: ('A' for Active; 'I' for Inactive)
REMARK                            x       y       z     vdW  Elec       q    Type
REMARK                         _______ _______ _______ _____ _____    ______ ____
ROOT
ATOM      1  S   UNL     1      -4.732  47.714  29.800  0.00  0.00    +0.000 S 
ATOM      2  O   UNL     1      -2.847  45.238  24.927  0.00  0.00    +0.000 OA
ATOM      3  N   UNL     1      -5.106  45.733  25.323  0.00  0.00    +0.000 N 
ATOM      4  N   UNL     1      -7.311  48.065  29.778  0.00  0.00    +0.000 NA
ATOM      5  C   UNL     1      -5.001  46.664  27.404  0.00  0.00    +0.000 A 
ATOM      6  C   UNL     1      -5.862  46.299  26.338  0.00  0.00    +0.000 A 
ATOM      7  C   UNL     1      -3.622  46.282  26.988  0.00  0.00    +0.000 C 
ATOM      8  C   UNL     1      -5.614  47.233  28.469  0.00  0.00    +0.000 A 
ATOM      9  C   UNL     1      -3.744  45.678  25.620  0.00  0.00    +0.000 C 
ATOM     10  C   UNL     1      -6.967  47.471  28.576  0.00  0.00    +0.000 A 
ATOM     11  C   UNL     1      -7.241  46.488  26.328  0.00  0.00    +0.000 A 
ATOM     12  C   UNL     1      -2.495  46.409  27.613  0.00  0.00    +0.000 C 
ATOM     13  C   UNL     1      -7.785  47.090  27.486  0.00  0.00    +0.000 A 
ATOM     14  C   UNL     1      -6.214  48.234  30.489  0.00  0.00    +0.000 A 
ATOM     15  H   UNL     1      -5.479  45.388  24.449  0.00  0.00    +0.000 HD
ATOM     16  C   UNL     1      -1.225  46.511  28.229  0.00  0.00    +0.000 C 
ATOM     17  N   UNL     1      -0.048  46.096  27.673  0.00  0.00    +0.000 N 
ATOM     18  C   UNL     1       0.950  46.363  28.569  0.00  0.00    +0.000 C 
ATOM     19  H   UNL     1       0.072  45.668  26.765  0.00  0.00    +0.000 HD
ATOM     20  N   UNL     1       0.477  46.923  29.660  0.00  0.00    +0.000 NA
ATOM     21  C   UNL     1      -0.879  47.020  29.460  0.00  0.00    +0.000 C 
ENDROOT
TORSDOF 0
ENDMDL
