MODEL 1
REMARK VINA RESULT:      -6.9      0.000      0.000
REMARK  Name = 
REMARK  14 active torsions:
REMARK  status: ('A' for Active; 'I' for Inactive)
REMARK    1  A    between atoms: O_1  and  C_14
REMARK    2  A    between atoms: O_1  and  C_15
REMARK    3  A    between atoms: O_4  and  C_16
REMARK    4  A    between atoms: O_5  and  C_18
REMARK    5  A    between atoms: O_6  and  C_26
REMARK    6  A    between atoms: O_7  and  C_29
REMARK    7  A    between atoms: O_8  and  C_35
REMARK    8  A    between atoms: O_9  and  C_36
REMARK    9  A    between atoms: O_10  and  C_39
REMARK   10  A    between atoms: O_11  and  C_40
REMARK   11  A    between atoms: O_12  and  C_41
REMARK   12  A    between atoms: O_13  and  C_43
REMARK   13  A    between atoms: C_14  and  C_20
REMARK   14  A    between atoms: C_17  and  C_24
REMARK                            x       y       z     vdW  Elec       q    Type
REMARK                         _______ _______ _______ _____ _____    ______ ____
ROOT
ATOM      1  O   UNL     1      -1.115  47.130  29.228  0.00  0.00    +0.000 OA
ATOM      2  C   UNL     1      -2.241  47.665  29.938  0.00  0.00    +0.000 C 
ATOM      3  C   UNL     1      -2.080  47.466  31.475  0.00  0.00    +0.000 C 
ATOM      4  C   UNL     1      -1.855  45.994  31.803  0.00  0.00    +0.000 C 
ATOM      5  C   UNL     1      -0.805  45.393  30.918  0.00  0.00    +0.000 A 
ATOM      6  C   UNL     1      -0.514  45.993  29.689  0.00  0.00    +0.000 A 
ATOM      7  C   UNL     1      -0.122  44.216  31.258  0.00  0.00    +0.000 A 
ATOM      8  C   UNL     1       0.444  45.438  28.837  0.00  0.00    +0.000 A 
ATOM      9  C   UNL     1       0.820  43.645  30.407  0.00  0.00    +0.000 A 
ATOM     10  C   UNL     1       1.099  44.267  29.199  0.00  0.00    +0.000 A 
ENDROOT
BRANCH   2  11
ATOM     11  C   UNL     1      -3.586  47.098  29.445  0.00  0.00    +0.000 A 
ATOM     12  C   UNL     1      -3.622  46.039  28.510  0.00  0.00    +0.000 A 
ATOM     13  C   UNL     1      -4.815  47.605  29.920  0.00  0.00    +0.000 A 
ATOM     14  C   UNL     1      -4.841  45.531  28.072  0.00  0.00    +0.000 A 
ATOM     15  C   UNL     1      -6.034  47.096  29.462  0.00  0.00    +0.000 A 
ATOM     16  C   UNL     1      -6.035  46.069  28.537  0.00  0.00    +0.000 A 
BRANCH  14  17
ATOM     17  O   UNL     1      -4.926  44.494  27.186  0.00  0.00    +0.000 OA
ATOM     18  H   UNL     1      -4.236  43.831  27.390  0.00  0.00    +0.000 HD
ENDBRANCH  14  17
BRANCH  16  19
ATOM     19  O   UNL     1      -7.226  45.569  28.093  0.00  0.00    +0.000 OA
ATOM     20  H   UNL     1      -7.317  45.927  27.187  0.00  0.00    +0.000 HD
ENDBRANCH  16  19
ENDBRANCH   2  11
BRANCH   3  21
ATOM     21  O   UNL     1      -0.964  48.232  32.012  0.00  0.00    +0.000 OA
ATOM     22  H   UNL     1      -0.312  47.559  32.295  0.00  0.00    +0.000 HD
ENDBRANCH   3  21
BRANCH   4  23
ATOM     23  O   UNL     1      -1.451  45.865  33.177  0.00  0.00    +0.000 OA
ATOM     24  H   UNL     1      -1.806  44.989  33.450  0.00  0.00    +0.000 HD
ENDBRANCH   4  23
BRANCH   7  25
ATOM     25  O   UNL     1      -0.336  43.582  32.453  0.00  0.00    +0.000 OA
ATOM     26  H   UNL     1       0.376  42.913  32.557  0.00  0.00    +0.000 HD
ENDBRANCH   7  25
BRANCH  10  27
ATOM     27  O   UNL     1       2.019  43.756  28.331  0.00  0.00    +0.000 OA
ATOM     28  H   UNL     1       2.350  44.480  27.774  0.00  0.00    +0.000 HD
ENDBRANCH  10  27
BRANCH   2  29
ATOM     29  O   UNL     1      -2.225  49.113  29.790  0.00  0.00    +0.000 OA
BRANCH  29  31
ATOM     30  O   UNL     1      -1.484  51.401  26.971  0.00  0.00    +0.000 OA
ATOM     31  C   UNL     1      -1.422  49.655  28.722  0.00  0.00    +0.000 C 
ATOM     32  C   UNL     1      -2.183  50.850  28.096  0.00  0.00    +0.000 C 
ATOM     33  C   UNL     1      -0.079  50.182  29.235  0.00  0.00    +0.000 C 
ATOM     34  C   UNL     1       0.553  51.163  28.286  0.00  0.00    +0.000 A 
ATOM     35  C   UNL     1      -0.174  51.706  27.222  0.00  0.00    +0.000 A 
ATOM     36  C   UNL     1       1.885  51.559  28.453  0.00  0.00    +0.000 A 
ATOM     37  C   UNL     1       0.427  52.587  26.320  0.00  0.00    +0.000 A 
ATOM     38  C   UNL     1       2.492  52.449  27.570  0.00  0.00    +0.000 A 
ATOM     39  C   UNL     1       1.755  52.952  26.505  0.00  0.00    +0.000 A 
BRANCH  32  40
ATOM     40  C   UNL     1      -3.566  50.430  27.614  0.00  0.00    +0.000 A 
ATOM     41  C   UNL     1      -3.721  49.393  26.681  0.00  0.00    +0.000 A 
ATOM     42  C   UNL     1      -4.713  51.027  28.168  0.00  0.00    +0.000 A 
ATOM     43  C   UNL     1      -4.997  48.939  26.352  0.00  0.00    +0.000 A 
ATOM     44  C   UNL     1      -5.990  50.580  27.820  0.00  0.00    +0.000 A 
ATOM     45  C   UNL     1      -6.125  49.524  26.924  0.00  0.00    +0.000 A 
BRANCH  43  46
ATOM     46  O   UNL     1      -5.152  47.869  25.518  0.00  0.00    +0.000 OA
ATOM     47  H   UNL     1      -4.972  47.052  26.013  0.00  0.00    +0.000 HD
ENDBRANCH  43  46
BRANCH  45  48
ATOM     48  O   UNL     1      -7.360  49.030  26.617  0.00  0.00    +0.000 OA
ATOM     49  H   UNL     1      -7.695  49.480  25.825  0.00  0.00    +0.000 HD
ENDBRANCH  45  48
ENDBRANCH  32  40
BRANCH  36  50
ATOM     50  O   UNL     1       2.591  51.049  29.507  0.00  0.00    +0.000 OA
ATOM     51  H   UNL     1       1.970  50.814  30.217  0.00  0.00    +0.000 HD
ENDBRANCH  36  50
BRANCH  39  52
ATOM     52  O   UNL     1       2.380  53.815  25.653  0.00  0.00    +0.000 OA
ATOM     53  H   UNL     1       2.053  54.715  25.825  0.00  0.00    +0.000 HD
ENDBRANCH  39  52
ENDBRANCH  29  31
ENDBRANCH   2  29
TORSDOF 14
ENDMDL
MODEL 2
REMARK VINA RESULT:      -6.8      1.977      6.487
REMARK  Name = 
REMARK  14 active torsions:
REMARK  status: ('A' for Active; 'I' for Inactive)
REMARK    1  A    between atoms: O_1  and  C_14
REMARK    2  A    between atoms: O_1  and  C_15
REMARK    3  A    between atoms: O_4  and  C_16
REMARK    4  A    between atoms: O_5  and  C_18
REMARK    5  A    between atoms: O_6  and  C_26
REMARK    6  A    between atoms: O_7  and  C_29
REMARK    7  A    between atoms: O_8  and  C_35
REMARK    8  A    between atoms: O_9  and  C_36
REMARK    9  A    between atoms: O_10  and  C_39
REMARK   10  A    between atoms: O_11  and  C_40
REMARK   11  A    between atoms: O_12  and  C_41
REMARK   12  A    between atoms: O_13  and  C_43
REMARK   13  A    between atoms: C_14  and  C_20
REMARK   14  A    between atoms: C_17  and  C_24
REMARK                            x       y       z     vdW  Elec       q    Type
REMARK                         _______ _______ _______ _____ _____    ______ ____
ROOT
ATOM      1  O   UNL     1      -0.851  46.978  29.670  0.00  0.00    +0.000 OA
ATOM      2  C   UNL     1       0.074  47.512  28.712  0.00  0.00    +0.000 C 
ATOM      3  C   UNL     1       1.183  46.473  28.364  0.00  0.00    +0.000 C 
ATOM      4  C   UNL     1       1.892  46.003  29.631  0.00  0.00    +0.000 C 
ATOM      5  C   UNL     1       0.907  45.629  30.698  0.00  0.00    +0.000 A 
ATOM      6  C   UNL     1      -0.389  46.148  30.653  0.00  0.00    +0.000 A 
ATOM      7  C   UNL     1       1.252  44.800  31.777  0.00  0.00    +0.000 A 
ATOM      8  C   UNL     1      -1.316  45.832  31.649  0.00  0.00    +0.000 A 
ATOM      9  C   UNL     1       0.342  44.496  32.785  0.00  0.00    +0.000 A 
ATOM     10  C   UNL     1      -0.943  45.014  32.708  0.00  0.00    +0.000 A 
ENDROOT
BRANCH   2  11
ATOM     11  C   UNL     1       0.692  48.852  29.156  0.00  0.00    +0.000 A 
ATOM     12  C   UNL     1       1.864  49.343  28.539  0.00  0.00    +0.000 A 
ATOM     13  C   UNL     1       0.102  49.631  30.174  0.00  0.00    +0.000 A 
ATOM     14  C   UNL     1       2.415  50.555  28.943  0.00  0.00    +0.000 A 
ATOM     15  C   UNL     1       0.672  50.841  30.583  0.00  0.00    +0.000 A 
ATOM     16  C   UNL     1       1.827  51.287  29.967  0.00  0.00    +0.000 A 
BRANCH  14  17
ATOM     17  O   UNL     1       3.534  51.081  28.362  0.00  0.00    +0.000 OA
ATOM     18  H   UNL     1       4.223  50.389  28.293  0.00  0.00    +0.000 HD
ENDBRANCH  14  17
BRANCH  16  19
ATOM     19  O   UNL     1       2.381  52.471  30.363  0.00  0.00    +0.000 OA
ATOM     20  H   UNL     1       3.143  52.595  29.761  0.00  0.00    +0.000 HD
ENDBRANCH  16  19
ENDBRANCH   2  11
BRANCH   3  21
ATOM     21  O   UNL     1       0.644  45.306  27.681  0.00  0.00    +0.000 OA
ATOM     22  H   UNL     1      -0.326  45.375  27.794  0.00  0.00    +0.000 HD
ENDBRANCH   3  21
BRANCH   4  23
ATOM     23  O   UNL     1       2.718  44.867  29.325  0.00  0.00    +0.000 OA
ATOM     24  H   UNL     1       3.615  45.251  29.200  0.00  0.00    +0.000 HD
ENDBRANCH   4  23
BRANCH   7  25
ATOM     25  O   UNL     1       2.496  44.237  31.880  0.00  0.00    +0.000 OA
ATOM     26  H   UNL     1       3.146  44.973  31.896  0.00  0.00    +0.000 HD
ENDBRANCH   7  25
BRANCH  10  27
ATOM     27  O   UNL     1      -1.878  44.740  33.664  0.00  0.00    +0.000 OA
ATOM     28  H   UNL     1      -1.477  44.154  34.327  0.00  0.00    +0.000 HD
ENDBRANCH  10  27
BRANCH   2  29
ATOM     29  O   UNL     1      -0.628  47.680  27.448  0.00  0.00    +0.000 OA
BRANCH  29  31
ATOM     30  O   UNL     1      -3.971  49.086  26.687  0.00  0.00    +0.000 OA
ATOM     31  C   UNL     1      -2.067  47.729  27.499  0.00  0.00    +0.000 C 
ATOM     32  C   UNL     1      -2.547  48.918  26.629  0.00  0.00    +0.000 C 
ATOM     33  C   UNL     1      -2.699  46.456  26.926  0.00  0.00    +0.000 C 
ATOM     34  C   UNL     1      -4.131  46.661  26.516  0.00  0.00    +0.000 A 
ATOM     35  C   UNL     1      -4.678  47.944  26.424  0.00  0.00    +0.000 A 
ATOM     36  C   UNL     1      -4.948  45.565  26.210  0.00  0.00    +0.000 A 
ATOM     37  C   UNL     1      -6.020  48.128  26.080  0.00  0.00    +0.000 A 
ATOM     38  C   UNL     1      -6.282  45.736  25.850  0.00  0.00    +0.000 A 
ATOM     39  C   UNL     1      -6.809  47.020  25.794  0.00  0.00    +0.000 A 
BRANCH  32  40
ATOM     40  C   UNL     1      -1.914  50.225  27.088  0.00  0.00    +0.000 A 
ATOM     41  C   UNL     1      -0.742  50.710  26.487  0.00  0.00    +0.000 A 
ATOM     42  C   UNL     1      -2.550  51.006  28.070  0.00  0.00    +0.000 A 
ATOM     43  C   UNL     1      -0.253  51.969  26.832  0.00  0.00    +0.000 A 
ATOM     44  C   UNL     1      -2.044  52.258  28.426  0.00  0.00    +0.000 A 
ATOM     45  C   UNL     1      -0.904  52.742  27.792  0.00  0.00    +0.000 A 
BRANCH  43  46
ATOM     46  O   UNL     1       0.831  52.486  26.183  0.00  0.00    +0.000 OA
ATOM     47  H   UNL     1       1.076  51.895  25.452  0.00  0.00    +0.000 HD
ENDBRANCH  43  46
BRANCH  45  48
ATOM     48  O   UNL     1      -0.428  53.989  28.078  0.00  0.00    +0.000 OA
ATOM     49  H   UNL     1      -1.124  54.500  28.523  0.00  0.00    +0.000 HD
ENDBRANCH  45  48
ENDBRANCH  32  40
BRANCH  36  50
ATOM     50  O   UNL     1      -4.409  44.311  26.274  0.00  0.00    +0.000 OA
ATOM     51  H   UNL     1      -3.441  44.386  26.321  0.00  0.00    +0.000 HD
ENDBRANCH  36  50
BRANCH  39  52
ATOM     52  O   UNL     1      -8.121  47.154  25.446  0.00  0.00    +0.000 OA
ATOM     53  H   UNL     1      -8.268  48.060  25.126  0.00  0.00    +0.000 HD
ENDBRANCH  39  52
ENDBRANCH  29  31
ENDBRANCH   2  29
TORSDOF 14
ENDMDL
MODEL 3
REMARK VINA RESULT:      -6.3     28.188     31.525
REMARK  Name = 
REMARK  14 active torsions:
REMARK  status: ('A' for Active; 'I' for Inactive)
REMARK    1  A    between atoms: O_1  and  C_14
REMARK    2  A    between atoms: O_1  and  C_15
REMARK    3  A    between atoms: O_4  and  C_16
REMARK    4  A    between atoms: O_5  and  C_18
REMARK    5  A    between atoms: O_6  and  C_26
REMARK    6  A    between atoms: O_7  and  C_29
REMARK    7  A    between atoms: O_8  and  C_35
REMARK    8  A    between atoms: O_9  and  C_36
REMARK    9  A    between atoms: O_10  and  C_39
REMARK   10  A    between atoms: O_11  and  C_40
REMARK   11  A    between atoms: O_12  and  C_41
REMARK   12  A    between atoms: O_13  and  C_43
REMARK   13  A    between atoms: C_14  and  C_20
REMARK   14  A    between atoms: C_17  and  C_24
REMARK                            x       y       z     vdW  Elec       q    Type
REMARK                         _______ _______ _______ _____ _____    ______ ____
ROOT
ATOM      1  O   UNL     1     -18.438  41.253   3.500  0.00  0.00    +0.000 OA
ATOM      2  C   UNL     1     -17.946  41.106   4.840  0.00  0.00    +0.000 C 
ATOM      3  C   UNL     1     -17.303  42.431   5.351  0.00  0.00    +0.000 C 
ATOM      4  C   UNL     1     -16.208  42.896   4.397  0.00  0.00    +0.000 C 
ATOM      5  C   UNL     1     -16.675  42.862   2.972  0.00  0.00    +0.000 A 
ATOM      6  C   UNL     1     -17.747  42.037   2.619  0.00  0.00    +0.000 A 
ATOM      7  C   UNL     1     -16.046  43.602   1.960  0.00  0.00    +0.000 A 
ATOM      8  C   UNL     1     -18.186  41.971   1.294  0.00  0.00    +0.000 A 
ATOM      9  C   UNL     1     -16.463  43.527   0.634  0.00  0.00    +0.000 A 
ATOM     10  C   UNL     1     -17.538  42.711   0.312  0.00  0.00    +0.000 A 
ENDROOT
BRANCH   2  11
ATOM     11  C   UNL     1     -16.971  39.923   4.995  0.00  0.00    +0.000 A 
ATOM     12  C   UNL     1     -16.637  39.115   3.885  0.00  0.00    +0.000 A 
ATOM     13  C   UNL     1     -16.374  39.622   6.237  0.00  0.00    +0.000 A 
ATOM     14  C   UNL     1     -15.754  38.050   4.032  0.00  0.00    +0.000 A 
ATOM     15  C   UNL     1     -15.499  38.541   6.378  0.00  0.00    +0.000 A 
ATOM     16  C   UNL     1     -15.202  37.761   5.275  0.00  0.00    +0.000 A 
BRANCH  14  17
ATOM     17  O   UNL     1     -15.385  37.254   2.984  0.00  0.00    +0.000 OA
ATOM     18  H   UNL     1     -15.895  37.504   2.188  0.00  0.00    +0.000 HD
ENDBRANCH  14  17
BRANCH  16  19
ATOM     19  O   UNL     1     -14.344  36.708   5.410  0.00  0.00    +0.000 OA
ATOM     20  H   UNL     1     -14.247  36.597   6.378  0.00  0.00    +0.000 HD
ENDBRANCH  16  19
ENDBRANCH   2  11
BRANCH   3  21
ATOM     21  O   UNL     1     -18.284  43.500   5.480  0.00  0.00    +0.000 OA
ATOM     22  H   UNL     1     -18.037  43.968   6.303  0.00  0.00    +0.000 HD
ENDBRANCH   3  21
BRANCH   4  23
ATOM     23  O   UNL     1     -15.813  44.236   4.737  0.00  0.00    +0.000 OA
ATOM     24  H   UNL     1     -16.360  44.804   4.149  0.00  0.00    +0.000 HD
ENDBRANCH   4  23
BRANCH   7  25
ATOM     25  O   UNL     1     -15.004  44.447   2.231  0.00  0.00    +0.000 OA
ATOM     26  H   UNL     1     -14.956  44.543   3.208  0.00  0.00    +0.000 HD
ENDBRANCH   7  25
BRANCH  10  27
ATOM     27  O   UNL     1     -17.993  42.607  -0.970  0.00  0.00    +0.000 OA
ATOM     28  H   UNL     1     -17.523  43.259  -1.516  0.00  0.00    +0.000 HD
ENDBRANCH  10  27
BRANCH   2  29
ATOM     29  O   UNL     1     -19.088  40.931   5.726  0.00  0.00    +0.000 OA
BRANCH  29  31
ATOM     30  O   UNL     1     -22.120  38.834   5.350  0.00  0.00    +0.000 OA
ATOM     31  C   UNL     1     -20.333  40.530   5.120  0.00  0.00    +0.000 C 
ATOM     32  C   UNL     1     -20.914  39.346   5.933  0.00  0.00    +0.000 C 
ATOM     33  C   UNL     1     -21.367  41.659   5.148  0.00  0.00    +0.000 C 
ATOM     34  C   UNL     1     -22.774  41.152   4.988  0.00  0.00    +0.000 A 
ATOM     35  C   UNL     1     -23.066  39.789   5.094  0.00  0.00    +0.000 A 
ATOM     36  C   UNL     1     -23.827  42.041   4.737  0.00  0.00    +0.000 A 
ATOM     37  C   UNL     1     -24.367  39.319   4.906  0.00  0.00    +0.000 A 
ATOM     38  C   UNL     1     -25.132  41.586   4.564  0.00  0.00    +0.000 A 
ATOM     39  C   UNL     1     -25.389  40.224   4.645  0.00  0.00    +0.000 A 
BRANCH  32  40
ATOM     40  C   UNL     1     -19.920  38.195   6.014  0.00  0.00    +0.000 A 
ATOM     41  C   UNL     1     -19.318  37.844   7.233  0.00  0.00    +0.000 A 
ATOM     42  C   UNL     1     -19.659  37.412   4.875  0.00  0.00    +0.000 A 
ATOM     43  C   UNL     1     -18.514  36.709   7.310  0.00  0.00    +0.000 A 
ATOM     44  C   UNL     1     -18.836  36.286   4.955  0.00  0.00    +0.000 A 
ATOM     45  C   UNL     1     -18.279  35.930   6.179  0.00  0.00    +0.000 A 
BRANCH  43  46
ATOM     46  O   UNL     1     -18.003  36.310   8.512  0.00  0.00    +0.000 OA
ATOM     47  H   UNL     1     -17.363  35.594   8.363  0.00  0.00    +0.000 HD
ENDBRANCH  43  46
BRANCH  45  48
ATOM     48  O   UNL     1     -17.523  34.799   6.294  0.00  0.00    +0.000 OA
ATOM     49  H   UNL     1     -16.862  34.785   5.582  0.00  0.00    +0.000 HD
ENDBRANCH  45  48
ENDBRANCH  32  40
BRANCH  36  50
ATOM     50  O   UNL     1     -23.549  43.377   4.658  0.00  0.00    +0.000 OA
ATOM     51  H   UNL     1     -22.596  43.510   4.799  0.00  0.00    +0.000 HD
ENDBRANCH  36  50
BRANCH  39  52
ATOM     52  O   UNL     1     -26.677  39.809   4.464  0.00  0.00    +0.000 OA
ATOM     53  H   UNL     1     -26.990  39.397   5.287  0.00  0.00    +0.000 HD
ENDBRANCH  39  52
ENDBRANCH  29  31
ENDBRANCH   2  29
TORSDOF 14
ENDMDL
MODEL 4
REMARK VINA RESULT:      -6.3     13.210     16.344
REMARK  Name = 
REMARK  14 active torsions:
REMARK  status: ('A' for Active; 'I' for Inactive)
REMARK    1  A    between atoms: O_1  and  C_14
REMARK    2  A    between atoms: O_1  and  C_15
REMARK    3  A    between atoms: O_4  and  C_16
REMARK    4  A    between atoms: O_5  and  C_18
REMARK    5  A    between atoms: O_6  and  C_26
REMARK    6  A    between atoms: O_7  and  C_29
REMARK    7  A    between atoms: O_8  and  C_35
REMARK    8  A    between atoms: O_9  and  C_36
REMARK    9  A    between atoms: O_10  and  C_39
REMARK   10  A    between atoms: O_11  and  C_40
REMARK   11  A    between atoms: O_12  and  C_41
REMARK   12  A    between atoms: O_13  and  C_43
REMARK   13  A    between atoms: C_14  and  C_20
REMARK   14  A    between atoms: C_17  and  C_24
REMARK                            x       y       z     vdW  Elec       q    Type
REMARK                         _______ _______ _______ _____ _____    ______ ____
ROOT
ATOM      1  O   UNL     1       5.939  57.733  18.482  0.00  0.00    +0.000 OA
ATOM      2  C   UNL     1       6.106  56.326  18.706  0.00  0.00    +0.000 C 
ATOM      3  C   UNL     1       7.246  56.053  19.733  0.00  0.00    +0.000 C 
ATOM      4  C   UNL     1       8.546  56.710  19.277  0.00  0.00    +0.000 C 
ATOM      5  C   UNL     1       8.319  58.133  18.861  0.00  0.00    +0.000 A 
ATOM      6  C   UNL     1       7.039  58.544  18.482  0.00  0.00    +0.000 A 
ATOM      7  C   UNL     1       9.362  59.069  18.796  0.00  0.00    +0.000 A 
ATOM      8  C   UNL     1       6.808  59.858  18.068  0.00  0.00    +0.000 A 
ATOM      9  C   UNL     1       9.147  60.375  18.366  0.00  0.00    +0.000 A 
ATOM     10  C   UNL     1       7.863  60.761  18.008  0.00  0.00    +0.000 A 
ENDROOT
BRANCH   2  11
ATOM     11  C   UNL     1       6.335  55.534  17.404  0.00  0.00    +0.000 A 
ATOM     12  C   UNL     1       6.295  54.121  17.404  0.00  0.00    +0.000 A 
ATOM     13  C   UNL     1       6.575  56.189  16.178  0.00  0.00    +0.000 A 
ATOM     14  C   UNL     1       6.500  53.413  16.225  0.00  0.00    +0.000 A 
ATOM     15  C   UNL     1       6.795  55.468  15.000  0.00  0.00    +0.000 A 
ATOM     16  C   UNL     1       6.761  54.086  15.037  0.00  0.00    +0.000 A 
BRANCH  14  17
ATOM     17  O   UNL     1       6.450  52.048  16.171  0.00  0.00    +0.000 OA
ATOM     18  H   UNL     1       6.933  51.734  15.380  0.00  0.00    +0.000 HD
ENDBRANCH  14  17
BRANCH  16  19
ATOM     19  O   UNL     1       6.971  53.381  13.887  0.00  0.00    +0.000 OA
ATOM     20  H   UNL     1       6.158  53.526  13.361  0.00  0.00    +0.000 HD
ENDBRANCH  16  19
ENDBRANCH   2  11
BRANCH   3  21
ATOM     21  O   UNL     1       6.919  56.556  21.060  0.00  0.00    +0.000 OA
ATOM     22  H   UNL     1       7.141  55.823  21.668  0.00  0.00    +0.000 HD
ENDBRANCH   3  21
BRANCH   4  23
ATOM     23  O   UNL     1       9.503  56.673  20.349  0.00  0.00    +0.000 OA
ATOM     24  H   UNL     1      10.340  56.982  19.934  0.00  0.00    +0.000 HD
ENDBRANCH   4  23
BRANCH   7  25
ATOM     25  O   UNL     1      10.640  58.747  19.171  0.00  0.00    +0.000 OA
ATOM     26  H   UNL     1      11.236  59.413  18.764  0.00  0.00    +0.000 HD
ENDBRANCH   7  25
BRANCH  10  27
ATOM     27  O   UNL     1       7.594  62.030  17.588  0.00  0.00    +0.000 OA
ATOM     28  H   UNL     1       8.067  62.184  16.753  0.00  0.00    +0.000 HD
ENDBRANCH  10  27
BRANCH   2  29
ATOM     29  O   UNL     1       4.921  55.830  19.390  0.00  0.00    +0.000 OA
BRANCH  29  31
ATOM     30  O   UNL     1       1.353  56.772  19.061  0.00  0.00    +0.000 OA
ATOM     31  C   UNL     1       3.792  56.721  19.474  0.00  0.00    +0.000 C 
ATOM     32  C   UNL     1       2.517  55.935  19.078  0.00  0.00    +0.000 C 
ATOM     33  C   UNL     1       3.586  57.244  20.899  0.00  0.00    +0.000 C 
ATOM     34  C   UNL     1       2.190  57.754  21.127  0.00  0.00    +0.000 A 
ATOM     35  C   UNL     1       1.169  57.496  20.208  0.00  0.00    +0.000 A 
ATOM     36  C   UNL     1       1.882  58.497  22.274  0.00  0.00    +0.000 A 
ATOM     37  C   UNL     1      -0.117  58.005  20.404  0.00  0.00    +0.000 A 
ATOM     38  C   UNL     1       0.599  58.996  22.489  0.00  0.00    +0.000 A 
ATOM     39  C   UNL     1      -0.389  58.749  21.546  0.00  0.00    +0.000 A 
BRANCH  32  40
ATOM     40  C   UNL     1       2.658  55.320  17.691  0.00  0.00    +0.000 A 
ATOM     41  C   UNL     1       2.821  56.130  16.556  0.00  0.00    +0.000 A 
ATOM     42  C   UNL     1       2.711  53.922  17.545  0.00  0.00    +0.000 A 
ATOM     43  C   UNL     1       3.078  55.546  15.317  0.00  0.00    +0.000 A 
ATOM     44  C   UNL     1       2.950  53.343  16.297  0.00  0.00    +0.000 A 
ATOM     45  C   UNL     1       3.149  54.161  15.189  0.00  0.00    +0.000 A 
BRANCH  43  46
ATOM     46  O   UNL     1       3.332  56.330  14.228  0.00  0.00    +0.000 OA
ATOM     47  H   UNL     1       2.705  56.105  13.521  0.00  0.00    +0.000 HD
ENDBRANCH  43  46
BRANCH  45  48
ATOM     48  O   UNL     1       3.446  53.618  13.972  0.00  0.00    +0.000 OA
ATOM     49  H   UNL     1       3.511  52.653  14.062  0.00  0.00    +0.000 HD
ENDBRANCH  45  48
ENDBRANCH  32  40
BRANCH  36  50
ATOM     50  O   UNL     1       2.872  58.730  23.187  0.00  0.00    +0.000 OA
ATOM     51  H   UNL     1       3.011  59.689  23.263  0.00  0.00    +0.000 HD
ENDBRANCH  36  50
BRANCH  39  52
ATOM     52  O   UNL     1      -1.633  59.259  21.782  0.00  0.00    +0.000 OA
ATOM     53  H   UNL     1      -1.546  60.044  22.349  0.00  0.00    +0.000 HD
ENDBRANCH  39  52
ENDBRANCH  29  31
ENDBRANCH   2  29
TORSDOF 14
ENDMDL
MODEL 5
REMARK VINA RESULT:      -6.3     23.396     25.429
REMARK  Name = 
REMARK  14 active torsions:
REMARK  status: ('A' for Active; 'I' for Inactive)
REMARK    1  A    between atoms: O_1  and  C_14
REMARK    2  A    between atoms: O_1  and  C_15
REMARK    3  A    between atoms: O_4  and  C_16
REMARK    4  A    between atoms: O_5  and  C_18
REMARK    5  A    between atoms: O_6  and  C_26
REMARK    6  A    between atoms: O_7  and  C_29
REMARK    7  A    between atoms: O_8  and  C_35
REMARK    8  A    between atoms: O_9  and  C_36
REMARK    9  A    between atoms: O_10  and  C_39
REMARK   10  A    between atoms: O_11  and  C_40
REMARK   11  A    between atoms: O_12  and  C_41
REMARK   12  A    between atoms: O_13  and  C_43
REMARK   13  A    between atoms: C_14  and  C_20
REMARK   14  A    between atoms: C_17  and  C_24
REMARK                            x       y       z     vdW  Elec       q    Type
REMARK                         _______ _______ _______ _____ _____    ______ ____
ROOT
ATOM      1  O   UNL     1       9.989  41.360   7.921  0.00  0.00    +0.000 OA
ATOM      2  C   UNL     1       8.605  41.037   7.729  0.00  0.00    +0.000 C 
ATOM      3  C   UNL     1       7.978  40.458   9.034  0.00  0.00    +0.000 C 
ATOM      4  C   UNL     1       8.777  39.253   9.522  0.00  0.00    +0.000 C 
ATOM      5  C   UNL     1      10.248  39.544   9.535  0.00  0.00    +0.000 A 
ATOM      6  C   UNL     1      10.755  40.566   8.728  0.00  0.00    +0.000 A 
ATOM      7  C   UNL     1      11.152  38.795  10.302  0.00  0.00    +0.000 A 
ATOM      8  C   UNL     1      12.125  40.840   8.705  0.00  0.00    +0.000 A 
ATOM      9  C   UNL     1      12.521  39.046  10.271  0.00  0.00    +0.000 A 
ATOM     10  C   UNL     1      12.997  40.075   9.472  0.00  0.00    +0.000 A 
ENDROOT
BRANCH   2  11
ATOM     11  C   UNL     1       8.370  40.090   6.537  0.00  0.00    +0.000 A 
ATOM     12  C   UNL     1       7.122  39.450   6.361  0.00  0.00    +0.000 A 
ATOM     13  C   UNL     1       9.380  39.845   5.582  0.00  0.00    +0.000 A 
ATOM     14  C   UNL     1       6.915  38.599   5.280  0.00  0.00    +0.000 A 
ATOM     15  C   UNL     1       9.167  38.977   4.507  0.00  0.00    +0.000 A 
ATOM     16  C   UNL     1       7.938  38.356   4.371  0.00  0.00    +0.000 A 
BRANCH  14  17
ATOM     17  O   UNL     1       5.720  37.974   5.057  0.00  0.00    +0.000 OA
ATOM     18  H   UNL     1       5.047  38.638   4.804  0.00  0.00    +0.000 HD
ENDBRANCH  14  17
BRANCH  16  19
ATOM     19  O   UNL     1       7.728  37.511   3.320  0.00  0.00    +0.000 OA
ATOM     20  H   UNL     1       7.989  38.032   2.533  0.00  0.00    +0.000 HD
ENDBRANCH  16  19
ENDBRANCH   2  11
BRANCH   3  21
ATOM     21  O   UNL     1       7.936  41.445  10.104  0.00  0.00    +0.000 OA
ATOM     22  H   UNL     1       7.031  41.814  10.069  0.00  0.00    +0.000 HD
ENDBRANCH   3  21
BRANCH   4  23
ATOM     23  O   UNL     1       8.349  38.901  10.849  0.00  0.00    +0.000 OA
ATOM     24  H   UNL     1       8.867  38.092  11.061  0.00  0.00    +0.000 HD
ENDBRANCH   4  23
BRANCH   7  25
ATOM     25  O   UNL     1      10.730  37.791  11.133  0.00  0.00    +0.000 OA
ATOM     26  H   UNL     1       9.871  38.076  11.517  0.00  0.00    +0.000 HD
ENDBRANCH   7  25
BRANCH  10  27
ATOM     27  O   UNL     1      14.327  40.371   9.410  0.00  0.00    +0.000 OA
ATOM     28  H   UNL     1      14.451  41.099   8.777  0.00  0.00    +0.000 HD
ENDBRANCH  10  27
BRANCH   2  29
ATOM     29  O   UNL     1       7.871  42.278   7.534  0.00  0.00    +0.000 OA
BRANCH  29  31
ATOM     30  O   UNL     1       8.076  44.967   4.993  0.00  0.00    +0.000 OA
ATOM     31  C   UNL     1       8.527  43.316   6.779  0.00  0.00    +0.000 C 
ATOM     32  C   UNL     1       7.485  43.971   5.838  0.00  0.00    +0.000 C 
ATOM     33  C   UNL     1       9.080  44.417   7.690  0.00  0.00    +0.000 C 
ATOM     34  C   UNL     1       9.320  45.705   6.953  0.00  0.00    +0.000 A 
ATOM     35  C   UNL     1       8.814  45.903   5.664  0.00  0.00    +0.000 A 
ATOM     36  C   UNL     1      10.052  46.740   7.548  0.00  0.00    +0.000 A 
ATOM     37  C   UNL     1       9.072  47.086   4.968  0.00  0.00    +0.000 A 
ATOM     38  C   UNL     1      10.302  47.931   6.870  0.00  0.00    +0.000 A 
ATOM     39  C   UNL     1       9.813  48.091   5.580  0.00  0.00    +0.000 A 
BRANCH  32  40
ATOM     40  C   UNL     1       6.832  42.933   4.934  0.00  0.00    +0.000 A 
ATOM     41  C   UNL     1       5.524  42.485   5.176  0.00  0.00    +0.000 A 
ATOM     42  C   UNL     1       7.510  42.472   3.791  0.00  0.00    +0.000 A 
ATOM     43  C   UNL     1       4.901  41.635   4.266  0.00  0.00    +0.000 A 
ATOM     44  C   UNL     1       6.886  41.605   2.892  0.00  0.00    +0.000 A 
ATOM     45  C   UNL     1       5.575  41.202   3.126  0.00  0.00    +0.000 A 
BRANCH  43  46
ATOM     46  O   UNL     1       3.596  41.272   4.446  0.00  0.00    +0.000 OA
ATOM     47  H   UNL     1       3.406  40.490   3.902  0.00  0.00    +0.000 HD
ENDBRANCH  43  46
BRANCH  45  48
ATOM     48  O   UNL     1       4.924  40.405   2.228  0.00  0.00    +0.000 OA
ATOM     49  H   UNL     1       4.464  39.697   2.707  0.00  0.00    +0.000 HD
ENDBRANCH  45  48
ENDBRANCH  32  40
BRANCH  36  50
ATOM     50  O   UNL     1      10.526  46.560   8.817  0.00  0.00    +0.000 OA
ATOM     51  H   UNL     1      10.949  45.686   8.874  0.00  0.00    +0.000 HD
ENDBRANCH  36  50
BRANCH  39  52
ATOM     52  O   UNL     1      10.081  49.266   4.940  0.00  0.00    +0.000 OA
ATOM     53  H   UNL     1      10.631  49.077   4.160  0.00  0.00    +0.000 HD
ENDBRANCH  39  52
ENDBRANCH  29  31
ENDBRANCH   2  29
TORSDOF 14
ENDMDL
MODEL 6
REMARK VINA RESULT:      -6.3     21.991     25.352
REMARK  Name = 
REMARK  14 active torsions:
REMARK  status: ('A' for Active; 'I' for Inactive)
REMARK    1  A    between atoms: O_1  and  C_14
REMARK    2  A    between atoms: O_1  and  C_15
REMARK    3  A    between atoms: O_4  and  C_16
REMARK    4  A    between atoms: O_5  and  C_18
REMARK    5  A    between atoms: O_6  and  C_26
REMARK    6  A    between atoms: O_7  and  C_29
REMARK    7  A    between atoms: O_8  and  C_35
REMARK    8  A    between atoms: O_9  and  C_36
REMARK    9  A    between atoms: O_10  and  C_39
REMARK   10  A    between atoms: O_11  and  C_40
REMARK   11  A    between atoms: O_12  and  C_41
REMARK   12  A    between atoms: O_13  and  C_43
REMARK   13  A    between atoms: C_14  and  C_20
REMARK   14  A    between atoms: C_17  and  C_24
REMARK                            x       y       z     vdW  Elec       q    Type
REMARK                         _______ _______ _______ _____ _____    ______ ____
ROOT
ATOM      1  O   UNL     1      -4.159  24.997  18.762  0.00  0.00    +0.000 OA
ATOM      2  C   UNL     1      -4.190  26.397  18.451  0.00  0.00    +0.000 C 
ATOM      3  C   UNL     1      -5.316  26.718  17.422  0.00  0.00    +0.000 C 
ATOM      4  C   UNL     1      -5.154  25.865  16.168  0.00  0.00    +0.000 C 
ATOM      5  C   UNL     1      -4.928  24.424  16.515  0.00  0.00    +0.000 A 
ATOM      6  C   UNL     1      -4.437  24.089  17.779  0.00  0.00    +0.000 A 
ATOM      7  C   UNL     1      -5.154  23.388  15.596  0.00  0.00    +0.000 A 
ATOM      8  C   UNL     1      -4.197  22.754  18.117  0.00  0.00    +0.000 A 
ATOM      9  C   UNL     1      -4.899  22.058  15.916  0.00  0.00    +0.000 A 
ATOM     10  C   UNL     1      -4.425  21.751  17.183  0.00  0.00    +0.000 A 
ENDROOT
BRANCH   2  11
ATOM     11  C   UNL     1      -2.830  26.934  17.966  0.00  0.00    +0.000 A 
ATOM     12  C   UNL     1      -2.723  28.232  17.416  0.00  0.00    +0.000 A 
ATOM     13  C   UNL     1      -1.654  26.160  18.069  0.00  0.00    +0.000 A 
ATOM     14  C   UNL     1      -1.491  28.712  16.983  0.00  0.00    +0.000 A 
ATOM     15  C   UNL     1      -0.424  26.646  17.618  0.00  0.00    +0.000 A 
ATOM     16  C   UNL     1      -0.356  27.915  17.073  0.00  0.00    +0.000 A 
BRANCH  14  17
ATOM     17  O   UNL     1      -1.335  29.966  16.464  0.00  0.00    +0.000 OA
ATOM     18  H   UNL     1      -1.154  29.902  15.504  0.00  0.00    +0.000 HD
ENDBRANCH  14  17
BRANCH  16  19
ATOM     19  O   UNL     1       0.847  28.392  16.635  0.00  0.00    +0.000 OA
ATOM     20  H   UNL     1       0.884  28.129  15.693  0.00  0.00    +0.000 HD
ENDBRANCH  16  19
ENDBRANCH   2  11
BRANCH   3  21
ATOM     21  O   UNL     1      -6.643  26.478  17.972  0.00  0.00    +0.000 OA
ATOM     22  H   UNL     1      -6.756  25.506  17.937  0.00  0.00    +0.000 HD
ENDBRANCH   3  21
BRANCH   4  23
ATOM     23  O   UNL     1      -6.333  25.981  15.353  0.00  0.00    +0.000 OA
ATOM     24  H   UNL     1      -6.357  25.139  14.845  0.00  0.00    +0.000 HD
ENDBRANCH   4  23
BRANCH   7  25
ATOM     25  O   UNL     1      -5.654  23.635  14.345  0.00  0.00    +0.000 OA
ATOM     26  H   UNL     1      -5.670  24.611  14.227  0.00  0.00    +0.000 HD
ENDBRANCH   7  25
BRANCH  10  27
ATOM     27  O   UNL     1      -4.166  20.464  17.553  0.00  0.00    +0.000 OA
ATOM     28  H   UNL     1      -3.270  20.427  17.929  0.00  0.00    +0.000 HD
ENDBRANCH  10  27
BRANCH   2  29
ATOM     29  O   UNL     1      -4.616  27.117  19.641  0.00  0.00    +0.000 OA
BRANCH  29  31
ATOM     30  O   UNL     1      -4.477  25.934  23.150  0.00  0.00    +0.000 OA
ATOM     31  C   UNL     1      -5.035  26.327  20.772  0.00  0.00    +0.000 C 
ATOM     32  C   UNL     1      -4.175  26.731  21.996  0.00  0.00    +0.000 C 
ATOM     33  C   UNL     1      -6.501  26.586  21.133  0.00  0.00    +0.000 C 
ATOM     34  C   UNL     1      -6.824  26.181  22.545  0.00  0.00    +0.000 A 
ATOM     35  C   UNL     1      -5.809  25.880  23.458  0.00  0.00    +0.000 A 
ATOM     36  C   UNL     1      -8.154  26.104  22.977  0.00  0.00    +0.000 A 
ATOM     37  C   UNL     1      -6.115  25.466  24.757  0.00  0.00    +0.000 A 
ATOM     38  C   UNL     1      -8.471  25.709  24.274  0.00  0.00    +0.000 A 
ATOM     39  C   UNL     1      -7.445  25.387  25.153  0.00  0.00    +0.000 A 
BRANCH  32  40
ATOM     40  C   UNL     1      -2.690  26.566  21.703  0.00  0.00    +0.000 A 
ATOM     41  C   UNL     1      -1.847  27.684  21.598  0.00  0.00    +0.000 A 
ATOM     42  C   UNL     1      -2.130  25.279  21.617  0.00  0.00    +0.000 A 
ATOM     43  C   UNL     1      -0.472  27.506  21.459  0.00  0.00    +0.000 A 
ATOM     44  C   UNL     1      -0.752  25.108  21.458  0.00  0.00    +0.000 A 
ATOM     45  C   UNL     1       0.074  26.226  21.395  0.00  0.00    +0.000 A 
BRANCH  43  46
ATOM     46  O   UNL     1       0.363  28.587  21.452  0.00  0.00    +0.000 OA
ATOM     47  H   UNL     1       0.047  29.229  20.795  0.00  0.00    +0.000 HD
ENDBRANCH  43  46
BRANCH  45  48
ATOM     48  O   UNL     1       1.429  26.081  21.304  0.00  0.00    +0.000 OA
ATOM     49  H   UNL     1       1.805  26.876  20.893  0.00  0.00    +0.000 HD
ENDBRANCH  45  48
ENDBRANCH  32  40
BRANCH  36  50
ATOM     50  O   UNL     1      -9.147  26.423  22.093  0.00  0.00    +0.000 OA
ATOM     51  H   UNL     1      -9.875  25.786  22.195  0.00  0.00    +0.000 HD
ENDBRANCH  36  50
BRANCH  39  52
ATOM     52  O   UNL     1      -7.789  24.996  26.414  0.00  0.00    +0.000 OA
ATOM     53  H   UNL     1      -8.642  25.402  26.645  0.00  0.00    +0.000 HD
ENDBRANCH  39  52
ENDBRANCH  29  31
ENDBRANCH   2  29
TORSDOF 14
ENDMDL
MODEL 7
REMARK VINA RESULT:      -6.3     28.294     31.040
REMARK  Name = 
REMARK  14 active torsions:
REMARK  status: ('A' for Active; 'I' for Inactive)
REMARK    1  A    between atoms: O_1  and  C_14
REMARK    2  A    between atoms: O_1  and  C_15
REMARK    3  A    between atoms: O_4  and  C_16
REMARK    4  A    between atoms: O_5  and  C_18
REMARK    5  A    between atoms: O_6  and  C_26
REMARK    6  A    between atoms: O_7  and  C_29
REMARK    7  A    between atoms: O_8  and  C_35
REMARK    8  A    between atoms: O_9  and  C_36
REMARK    9  A    between atoms: O_10  and  C_39
REMARK   10  A    between atoms: O_11  and  C_40
REMARK   11  A    between atoms: O_12  and  C_41
REMARK   12  A    between atoms: O_13  and  C_43
REMARK   13  A    between atoms: C_14  and  C_20
REMARK   14  A    between atoms: C_17  and  C_24
REMARK                            x       y       z     vdW  Elec       q    Type
REMARK                         _______ _______ _______ _____ _____    ______ ____
ROOT
ATOM      1  O   UNL     1     -18.523  36.909   5.086  0.00  0.00    +0.000 OA
ATOM      2  C   UNL     1     -19.495  37.310   6.061  0.00  0.00    +0.000 C 
ATOM      3  C   UNL     1     -19.210  36.647   7.443  0.00  0.00    +0.000 C 
ATOM      4  C   UNL     1     -19.143  35.130   7.305  0.00  0.00    +0.000 C 
ATOM      5  C   UNL     1     -18.271  34.725   6.154  0.00  0.00    +0.000 A 
ATOM      6  C   UNL     1     -18.030  35.634   5.120  0.00  0.00    +0.000 A 
ATOM      7  C   UNL     1     -17.715  33.442   6.051  0.00  0.00    +0.000 A 
ATOM      8  C   UNL     1     -17.240  35.272   4.026  0.00  0.00    +0.000 A 
ATOM      9  C   UNL     1     -16.943  33.065   4.956  0.00  0.00    +0.000 A 
ATOM     10  C   UNL     1     -16.708  33.991   3.950  0.00  0.00    +0.000 A 
ENDROOT
BRANCH   2  11
ATOM     11  C   UNL     1     -20.944  37.044   5.610  0.00  0.00    +0.000 A 
ATOM     12  C   UNL     1     -22.034  37.440   6.418  0.00  0.00    +0.000 A 
ATOM     13  C   UNL     1     -21.226  36.415   4.379  0.00  0.00    +0.000 A 
ATOM     14  C   UNL     1     -23.340  37.199   6.003  0.00  0.00    +0.000 A 
ATOM     15  C   UNL     1     -22.542  36.164   3.978  0.00  0.00    +0.000 A 
ATOM     16  C   UNL     1     -23.585  36.552   4.797  0.00  0.00    +0.000 A 
BRANCH  14  17
ATOM     17  O   UNL     1     -24.425  37.582   6.739  0.00  0.00    +0.000 OA
ATOM     18  H   UNL     1     -24.540  36.970   7.494  0.00  0.00    +0.000 HD
ENDBRANCH  14  17
BRANCH  16  19
ATOM     19  O   UNL     1     -24.871  36.311   4.404  0.00  0.00    +0.000 OA
ATOM     20  H   UNL     1     -24.825  36.286   3.426  0.00  0.00    +0.000 HD
ENDBRANCH  16  19
ENDBRANCH   2  11
BRANCH   3  21
ATOM     21  O   UNL     1     -17.957  37.110   8.023  0.00  0.00    +0.000 OA
ATOM     22  H   UNL     1     -17.400  37.352   7.256  0.00  0.00    +0.000 HD
ENDBRANCH   3  21
BRANCH   4  23
ATOM     23  O   UNL     1     -18.625  34.560   8.519  0.00  0.00    +0.000 OA
ATOM     24  H   UNL     1     -17.994  35.237   8.851  0.00  0.00    +0.000 HD
ENDBRANCH   4  23
BRANCH   7  25
ATOM     25  O   UNL     1     -17.889  32.503   7.033  0.00  0.00    +0.000 OA
ATOM     26  H   UNL     1     -18.308  31.720   6.613  0.00  0.00    +0.000 HD
ENDBRANCH   7  25
BRANCH  10  27
ATOM     27  O   UNL     1     -15.951  33.678   2.858  0.00  0.00    +0.000 OA
ATOM     28  H   UNL     1     -16.489  33.135   2.257  0.00  0.00    +0.000 HD
ENDBRANCH  10  27
BRANCH   2  29
ATOM     29  O   UNL     1     -19.309  38.728   6.331  0.00  0.00    +0.000 OA
BRANCH  29  31
ATOM     30  O   UNL     1     -18.910  41.674   4.120  0.00  0.00    +0.000 OA
ATOM     31  C   UNL     1     -18.675  39.514   5.303  0.00  0.00    +0.000 C 
ATOM     32  C   UNL     1     -19.432  40.860   5.179  0.00  0.00    +0.000 C 
ATOM     33  C   UNL     1     -17.218  39.836   5.651  0.00  0.00    +0.000 C 
ATOM     34  C   UNL     1     -16.692  41.017   4.884  0.00  0.00    +0.000 A 
ATOM     35  C   UNL     1     -17.555  41.855   4.170  0.00  0.00    +0.000 A 
ATOM     36  C   UNL     1     -15.323  41.307   4.874  0.00  0.00    +0.000 A 
ATOM     37  C   UNL     1     -17.058  42.928   3.427  0.00  0.00    +0.000 A 
ATOM     38  C   UNL     1     -14.817  42.385   4.151  0.00  0.00    +0.000 A 
ATOM     39  C   UNL     1     -15.692  43.184   3.427  0.00  0.00    +0.000 A 
BRANCH  32  40
ATOM     40  C   UNL     1     -20.912  40.635   4.896  0.00  0.00    +0.000 A 
ATOM     41  C   UNL     1     -21.897  41.124   5.768  0.00  0.00    +0.000 A 
ATOM     42  C   UNL     1     -21.309  40.000   3.706  0.00  0.00    +0.000 A 
ATOM     43  C   UNL     1     -23.243  41.020   5.425  0.00  0.00    +0.000 A 
ATOM     44  C   UNL     1     -22.662  39.882   3.376  0.00  0.00    +0.000 A 
ATOM     45  C   UNL     1     -23.624  40.408   4.233  0.00  0.00    +0.000 A 
BRANCH  43  46
ATOM     46  O   UNL     1     -24.200  41.579   6.223  0.00  0.00    +0.000 OA
ATOM     47  H   UNL     1     -24.375  42.487   5.922  0.00  0.00    +0.000 HD
ENDBRANCH  43  46
BRANCH  45  48
ATOM     48  O   UNL     1     -24.948  40.360   3.901  0.00  0.00    +0.000 OA
ATOM     49  H   UNL     1     -25.442  40.963   4.481  0.00  0.00    +0.000 HD
ENDBRANCH  45  48
ENDBRANCH  32  40
BRANCH  36  50
ATOM     50  O   UNL     1     -14.480  40.505   5.592  0.00  0.00    +0.000 OA
ATOM     51  H   UNL     1     -14.475  40.801   6.518  0.00  0.00    +0.000 HD
ENDBRANCH  36  50
BRANCH  39  52
ATOM     52  O   UNL     1     -15.164  44.227   2.722  0.00  0.00    +0.000 OA
ATOM     53  H   UNL     1     -15.471  44.168   1.801  0.00  0.00    +0.000 HD
ENDBRANCH  39  52
ENDBRANCH  29  31
ENDBRANCH   2  29
TORSDOF 14
ENDMDL
MODEL 8
REMARK VINA RESULT:      -6.1     11.438     15.593
REMARK  Name = 
REMARK  14 active torsions:
REMARK  status: ('A' for Active; 'I' for Inactive)
REMARK    1  A    between atoms: O_1  and  C_14
REMARK    2  A    between atoms: O_1  and  C_15
REMARK    3  A    between atoms: O_4  and  C_16
REMARK    4  A    between atoms: O_5  and  C_18
REMARK    5  A    between atoms: O_6  and  C_26
REMARK    6  A    between atoms: O_7  and  C_29
REMARK    7  A    between atoms: O_8  and  C_35
REMARK    8  A    between atoms: O_9  and  C_36
REMARK    9  A    between atoms: O_10  and  C_39
REMARK   10  A    between atoms: O_11  and  C_40
REMARK   11  A    between atoms: O_12  and  C_41
REMARK   12  A    between atoms: O_13  and  C_43
REMARK   13  A    between atoms: C_14  and  C_20
REMARK   14  A    between atoms: C_17  and  C_24
REMARK                            x       y       z     vdW  Elec       q    Type
REMARK                         _______ _______ _______ _____ _____    ______ ____
ROOT
ATOM      1  O   UNL     1       3.490  56.615  19.702  0.00  0.00    +0.000 OA
ATOM      2  C   UNL     1       3.903  57.148  18.436  0.00  0.00    +0.000 C 
ATOM      3  C   UNL     1       3.265  58.548  18.182  0.00  0.00    +0.000 C 
ATOM      4  C   UNL     1       1.745  58.470  18.292  0.00  0.00    +0.000 C 
ATOM      5  C   UNL     1       1.326  57.737  19.531  0.00  0.00    +0.000 A 
ATOM      6  C   UNL     1       2.218  56.854  20.144  0.00  0.00    +0.000 A 
ATOM      7  C   UNL     1       0.043  57.873  20.083  0.00  0.00    +0.000 A 
ATOM      8  C   UNL     1       1.842  56.142  21.286  0.00  0.00    +0.000 A 
ATOM      9  C   UNL     1      -0.348  57.153  21.208  0.00  0.00    +0.000 A 
ATOM     10  C   UNL     1       0.562  56.293  21.805  0.00  0.00    +0.000 A 
ENDROOT
BRANCH   2  11
ATOM     11  C   UNL     1       3.622  56.192  17.261  0.00  0.00    +0.000 A 
ATOM     12  C   UNL     1       3.168  54.875  17.498  0.00  0.00    +0.000 A 
ATOM     13  C   UNL     1       3.795  56.603  15.922  0.00  0.00    +0.000 A 
ATOM     14  C   UNL     1       2.914  54.017  16.432  0.00  0.00    +0.000 A 
ATOM     15  C   UNL     1       3.551  55.729  14.859  0.00  0.00    +0.000 A 
ATOM     16  C   UNL     1       3.120  54.442  15.124  0.00  0.00    +0.000 A 
BRANCH  14  17
ATOM     17  O   UNL     1       2.454  52.743  16.610  0.00  0.00    +0.000 OA
ATOM     18  H   UNL     1       1.549  52.669  16.246  0.00  0.00    +0.000 HD
ENDBRANCH  14  17
BRANCH  16  19
ATOM     19  O   UNL     1       2.877  53.590  14.086  0.00  0.00    +0.000 OA
ATOM     20  H   UNL     1       2.891  52.700  14.493  0.00  0.00    +0.000 HD
ENDBRANCH  16  19
ENDBRANCH   2  11
BRANCH   3  21
ATOM     21  O   UNL     1       3.743  59.546  19.127  0.00  0.00    +0.000 OA
ATOM     22  H   UNL     1       3.954  59.042  19.939  0.00  0.00    +0.000 HD
ENDBRANCH   3  21
BRANCH   4  23
ATOM     23  O   UNL     1       1.198  59.800  18.317  0.00  0.00    +0.000 OA
ATOM     24  H   UNL     1       0.932  59.932  19.254  0.00  0.00    +0.000 HD
ENDBRANCH   4  23
BRANCH   7  25
ATOM     25  O   UNL     1      -0.880  58.734  19.552  0.00  0.00    +0.000 OA
ATOM     26  H   UNL     1      -1.732  58.562  20.010  0.00  0.00    +0.000 HD
ENDBRANCH   7  25
BRANCH  10  27
ATOM     27  O   UNL     1       0.234  55.569  22.915  0.00  0.00    +0.000 OA
ATOM     28  H   UNL     1      -0.664  55.216  22.797  0.00  0.00    +0.000 HD
ENDBRANCH  10  27
BRANCH   2  29
ATOM     29  O   UNL     1       5.326  57.444  18.511  0.00  0.00    +0.000 OA
BRANCH  29  31
ATOM     30  O   UNL     1       8.248  55.608  19.859  0.00  0.00    +0.000 OA
ATOM     31  C   UNL     1       6.085  56.763  19.528  0.00  0.00    +0.000 C 
ATOM     32  C   UNL     1       7.457  56.362  18.930  0.00  0.00    +0.000 C 
ATOM     33  C   UNL     1       6.356  57.667  20.735  0.00  0.00    +0.000 C 
ATOM     34  C   UNL     1       7.515  57.186  21.564  0.00  0.00    +0.000 A 
ATOM     35  C   UNL     1       8.381  56.197  21.087  0.00  0.00    +0.000 A 
ATOM     36  C   UNL     1       7.756  57.727  22.833  0.00  0.00    +0.000 A 
ATOM     37  C   UNL     1       9.433  55.726  21.875  0.00  0.00    +0.000 A 
ATOM     38  C   UNL     1       8.812  57.278  23.622  0.00  0.00    +0.000 A 
ATOM     39  C   UNL     1       9.640  56.274  23.136  0.00  0.00    +0.000 A 
BRANCH  32  40
ATOM     40  C   UNL     1       7.284  55.510  17.680  0.00  0.00    +0.000 A 
ATOM     41  C   UNL     1       6.798  54.196  17.763  0.00  0.00    +0.000 A 
ATOM     42  C   UNL     1       7.533  56.066  16.412  0.00  0.00    +0.000 A 
ATOM     43  C   UNL     1       6.525  53.480  16.599  0.00  0.00    +0.000 A 
ATOM     44  C   UNL     1       7.276  55.336  15.249  0.00  0.00    +0.000 A 
ATOM     45  C   UNL     1       6.756  54.049  15.348  0.00  0.00    +0.000 A 
BRANCH  43  46
ATOM     46  O   UNL     1       5.963  52.238  16.672  0.00  0.00    +0.000 OA
ATOM     47  H   UNL     1       6.447  51.635  16.084  0.00  0.00    +0.000 HD
ENDBRANCH  43  46
BRANCH  45  48
ATOM     48  O   UNL     1       6.438  53.342  14.225  0.00  0.00    +0.000 OA
ATOM     49  H   UNL     1       6.498  53.928  13.453  0.00  0.00    +0.000 HD
ENDBRANCH  45  48
ENDBRANCH  32  40
BRANCH  36  50
ATOM     50  O   UNL     1       6.926  58.712  23.291  0.00  0.00    +0.000 OA
ATOM     51  H   UNL     1       7.466  59.440  23.644  0.00  0.00    +0.000 HD
ENDBRANCH  36  50
BRANCH  39  52
ATOM     52  O   UNL     1      10.660  55.850  23.936  0.00  0.00    +0.000 OA
ATOM     53  H   UNL     1      10.531  54.907  24.134  0.00  0.00    +0.000 HD
ENDBRANCH  39  52
ENDBRANCH  29  31
ENDBRANCH   2  29
TORSDOF 14
ENDMDL
MODEL 9
REMARK VINA RESULT:      -6.0     28.313     32.152
REMARK  Name = 
REMARK  14 active torsions:
REMARK  status: ('A' for Active; 'I' for Inactive)
REMARK    1  A    between atoms: O_1  and  C_14
REMARK    2  A    between atoms: O_1  and  C_15
REMARK    3  A    between atoms: O_4  and  C_16
REMARK    4  A    between atoms: O_5  and  C_18
REMARK    5  A    between atoms: O_6  and  C_26
REMARK    6  A    between atoms: O_7  and  C_29
REMARK    7  A    between atoms: O_8  and  C_35
REMARK    8  A    between atoms: O_9  and  C_36
REMARK    9  A    between atoms: O_10  and  C_39
REMARK   10  A    between atoms: O_11  and  C_40
REMARK   11  A    between atoms: O_12  and  C_41
REMARK   12  A    between atoms: O_13  and  C_43
REMARK   13  A    between atoms: C_14  and  C_20
REMARK   14  A    between atoms: C_17  and  C_24
REMARK                            x       y       z     vdW  Elec       q    Type
REMARK                         _______ _______ _______ _____ _____    ______ ____
ROOT
ATOM      1  O   UNL     1     -21.006  39.786   3.858  0.00  0.00    +0.000 OA
ATOM      2  C   UNL     1     -20.498  40.859   4.663  0.00  0.00    +0.000 C 
ATOM      3  C   UNL     1     -21.657  41.649   5.343  0.00  0.00    +0.000 C 
ATOM      4  C   UNL     1     -22.649  42.149   4.297  0.00  0.00    +0.000 C 
ATOM      5  C   UNL     1     -23.027  41.058   3.339  0.00  0.00    +0.000 A 
ATOM      6  C   UNL     1     -22.178  39.960   3.177  0.00  0.00    +0.000 A 
ATOM      7  C   UNL     1     -24.192  41.117   2.560  0.00  0.00    +0.000 A 
ATOM      8  C   UNL     1     -22.498  38.943   2.274  0.00  0.00    +0.000 A 
ATOM      9  C   UNL     1     -24.509  40.119   1.643  0.00  0.00    +0.000 A 
ATOM     10  C   UNL     1     -23.656  39.033   1.511  0.00  0.00    +0.000 A 
ENDROOT
BRANCH   2  11
ATOM     11  C   UNL     1     -19.569  41.807   3.881  0.00  0.00    +0.000 A 
ATOM     12  C   UNL     1     -19.312  41.593   2.508  0.00  0.00    +0.000 A 
ATOM     13  C   UNL     1     -18.961  42.919   4.503  0.00  0.00    +0.000 A 
ATOM     14  C   UNL     1     -18.474  42.455   1.808  0.00  0.00    +0.000 A 
ATOM     15  C   UNL     1     -18.109  43.771   3.794  0.00  0.00    +0.000 A 
ATOM     16  C   UNL     1     -17.868  43.526   2.455  0.00  0.00    +0.000 A 
BRANCH  14  17
ATOM     17  O   UNL     1     -18.212  42.301   0.475  0.00  0.00    +0.000 OA
ATOM     18  H   UNL     1     -18.978  41.876   0.039  0.00  0.00    +0.000 HD
ENDBRANCH  14  17
BRANCH  16  19
ATOM     19  O   UNL     1     -17.039  44.360   1.761  0.00  0.00    +0.000 OA
ATOM     20  H   UNL     1     -17.241  44.176   0.821  0.00  0.00    +0.000 HD
ENDBRANCH  16  19
ENDBRANCH   2  11
BRANCH   3  21
ATOM     21  O   UNL     1     -22.381  40.834   6.308  0.00  0.00    +0.000 OA
ATOM     22  H   UNL     1     -23.054  40.358   5.780  0.00  0.00    +0.000 HD
ENDBRANCH   3  21
BRANCH   4  23
ATOM     23  O   UNL     1     -23.831  42.639   4.953  0.00  0.00    +0.000 OA
ATOM     24  H   UNL     1     -24.406  41.845   5.034  0.00  0.00    +0.000 HD
ENDBRANCH   4  23
BRANCH   7  25
ATOM     25  O   UNL     1     -25.083  42.150   2.678  0.00  0.00    +0.000 OA
ATOM     26  H   UNL     1     -25.840  41.948   2.085  0.00  0.00    +0.000 HD
ENDBRANCH   7  25
BRANCH  10  27
ATOM     27  O   UNL     1     -23.922  38.022   0.634  0.00  0.00    +0.000 OA
ATOM     28  H   UNL     1     -24.661  37.496   0.986  0.00  0.00    +0.000 HD
ENDBRANCH  10  27
BRANCH   2  29
ATOM     29  O   UNL     1     -19.786  40.282   5.793  0.00  0.00    +0.000 OA
BRANCH  29  31
ATOM     30  O   UNL     1     -17.493  37.391   6.133  0.00  0.00    +0.000 OA
ATOM     31  C   UNL     1     -19.407  38.895   5.691  0.00  0.00    +0.000 C 
ATOM     32  C   UNL     1     -17.978  38.734   6.268  0.00  0.00    +0.000 C 
ATOM     33  C   UNL     1     -20.337  37.991   6.505  0.00  0.00    +0.000 C 
ATOM     34  C   UNL     1     -19.712  36.659   6.819  0.00  0.00    +0.000 A 
ATOM     35  C   UNL     1     -18.347  36.438   6.615  0.00  0.00    +0.000 A 
ATOM     36  C   UNL     1     -20.489  35.612   7.330  0.00  0.00    +0.000 A 
ATOM     37  C   UNL     1     -17.779  35.188   6.871  0.00  0.00    +0.000 A 
ATOM     38  C   UNL     1     -19.930  34.365   7.605  0.00  0.00    +0.000 A 
ATOM     39  C   UNL     1     -18.577  34.163   7.366  0.00  0.00    +0.000 A 
BRANCH  32  40
ATOM     40  C   UNL     1     -16.991  39.651   5.556  0.00  0.00    +0.000 A 
ATOM     41  C   UNL     1     -16.729  39.504   4.185  0.00  0.00    +0.000 A 
ATOM     42  C   UNL     1     -16.391  40.713   6.255  0.00  0.00    +0.000 A 
ATOM     43  C   UNL     1     -15.924  40.432   3.528  0.00  0.00    +0.000 A 
ATOM     44  C   UNL     1     -15.569  41.630   5.595  0.00  0.00    +0.000 A 
ATOM     45  C   UNL     1     -15.352  41.493   4.227  0.00  0.00    +0.000 A 
BRANCH  43  46
ATOM     46  O   UNL     1     -15.743  40.351   2.177  0.00  0.00    +0.000 OA
ATOM     47  H   UNL     1     -16.353  40.966   1.736  0.00  0.00    +0.000 HD
ENDBRANCH  43  46
BRANCH  45  48
ATOM     48  O   UNL     1     -14.604  42.413   3.549  0.00  0.00    +0.000 OA
ATOM     49  H   UNL     1     -15.155  43.189   3.355  0.00  0.00    +0.000 HD
ENDBRANCH  45  48
ENDBRANCH  32  40
BRANCH  36  50
ATOM     50  O   UNL     1     -21.819  35.833   7.554  0.00  0.00    +0.000 OA
ATOM     51  H   UNL     1     -22.305  35.005   7.404  0.00  0.00    +0.000 HD
ENDBRANCH  36  50
BRANCH  39  52
ATOM     52  O   UNL     1     -18.062  32.929   7.638  0.00  0.00    +0.000 OA
ATOM     53  H   UNL     1     -18.772  32.270   7.554  0.00  0.00    +0.000 HD
ENDBRANCH  39  52
ENDBRANCH  29  31
ENDBRANCH   2  29
TORSDOF 14
ENDMDL
