MODEL 1
REMARK VINA RESULT:      -8.2      0.000      0.000
REMARK  Name = Progesterone.pdbqt.pdb
REMARK  1 active torsions:
REMARK  status: ('A' for Active; 'I' for Inactive)
REMARK    1  A    between atoms: C_7  and  C_21
REMARK                            x       y       z     vdW  Elec       q    Type
REMARK                         _______ _______ _______ _____ _____    ______ ____
ROOT
ATOM      1  O   UNL     1     -12.704  50.279  25.756  0.00  0.00    +0.000 OA
ATOM      2  C   UNL     1      -5.484  47.748  25.476  0.00  0.00    +0.000 C 
ATOM      3  C   UNL     1      -4.998  46.439  26.305  0.00  0.00    +0.000 C 
ATOM      4  C   UNL     1      -6.881  47.934  25.036  0.00  0.00    +0.000 C 
ATOM      5  C   UNL     1      -8.067  47.131  25.494  0.00  0.00    +0.000 C 
ATOM      6  C   UNL     1      -9.490  47.286  24.915  0.00  0.00    +0.000 C 
ATOM      7  C   UNL     1      -4.095  47.022  27.351  0.00  0.00    +0.000 C 
ATOM      8  C   UNL     1      -6.242  45.857  26.810  0.00  0.00    +0.000 C 
ATOM      9  C   UNL     1      -7.675  46.138  26.434  0.00  0.00    +0.000 C 
ATOM     10  C   UNL     1      -4.728  48.862  25.962  0.00  0.00    +0.000 C 
ATOM     11  C   UNL     1      -7.250  49.022  24.213  0.00  0.00    +0.000 C 
ATOM     12  C   UNL     1      -3.896  48.414  27.134  0.00  0.00    +0.000 C 
ATOM     13  C   UNL     1      -9.786  48.730  24.158  0.00  0.00    +0.000 C 
ATOM     14  C   UNL     1      -4.222  45.548  25.308  0.00  0.00    +0.000 C 
ATOM     15  C   UNL     1      -8.621  49.438  23.772  0.00  0.00    +0.000 C 
ATOM     16  C   UNL     1     -10.507  47.277  26.019  0.00  0.00    +0.000 C 
ATOM     17  C   UNL     1      -9.759  46.166  23.875  0.00  0.00    +0.000 C 
ATOM     18  C   UNL     1     -11.666  48.231  26.386  0.00  0.00    +0.000 C 
ATOM     19  C   UNL     1     -10.828  49.429  24.557  0.00  0.00    +0.000 C 
ATOM     20  C   UNL     1     -11.864  49.419  25.579  0.00  0.00    +0.000 C 
ENDROOT
BRANCH   7  21
ATOM     21  C   UNL     1      -3.479  46.252  28.404  0.00  0.00    +0.000 C 
ATOM     22  O   UNL     1      -3.315  45.043  28.389  0.00  0.00    +0.000 OA
ATOM     23  C   UNL     1      -2.868  46.852  29.627  0.00  0.00    +0.000 C 
ENDBRANCH   7  21
TORSDOF 1
ENDMDL
MODEL 2
REMARK VINA RESULT:      -7.3      2.221      7.543
REMARK  Name = Progesterone.pdbqt.pdb
REMARK  1 active torsions:
REMARK  status: ('A' for Active; 'I' for Inactive)
REMARK    1  A    between atoms: C_7  and  C_21
REMARK                            x       y       z     vdW  Elec       q    Type
REMARK                         _______ _______ _______ _____ _____    ______ ____
ROOT
ATOM      1  O   UNL     1       0.251  47.641  30.911  0.00  0.00    +0.000 OA
ATOM      2  C   UNL     1      -5.222  47.012  25.595  0.00  0.00    +0.000 C 
ATOM      3  C   UNL     1      -6.466  48.053  25.513  0.00  0.00    +0.000 C 
ATOM      4  C   UNL     1      -3.913  47.386  26.165  0.00  0.00    +0.000 C 
ATOM      5  C   UNL     1      -3.618  48.623  26.967  0.00  0.00    +0.000 C 
ATOM      6  C   UNL     1      -2.204  49.028  27.441  0.00  0.00    +0.000 C 
ATOM      7  C   UNL     1      -7.636  47.209  25.924  0.00  0.00    +0.000 C 
ATOM      8  C   UNL     1      -6.103  49.115  26.452  0.00  0.00    +0.000 C 
ATOM      9  C   UNL     1      -4.786  49.419  27.121  0.00  0.00    +0.000 C 
ATOM     10  C   UNL     1      -5.772  45.714  25.843  0.00  0.00    +0.000 C 
ATOM     11  C   UNL     1      -2.813  46.499  26.114  0.00  0.00    +0.000 C 
ATOM     12  C   UNL     1      -7.254  45.846  26.073  0.00  0.00    +0.000 C 
ATOM     13  C   UNL     1      -1.104  47.790  27.504  0.00  0.00    +0.000 C 
ATOM     14  C   UNL     1      -6.571  48.501  24.036  0.00  0.00    +0.000 C 
ATOM     15  C   UNL     1      -1.459  46.652  26.738  0.00  0.00    +0.000 C 
ATOM     16  C   UNL     1      -2.247  49.505  28.863  0.00  0.00    +0.000 C 
ATOM     17  C   UNL     1      -1.620  50.105  26.488  0.00  0.00    +0.000 C 
ATOM     18  C   UNL     1      -1.438  49.123  30.123  0.00  0.00    +0.000 C 
ATOM     19  C   UNL     1      -0.466  47.595  28.639  0.00  0.00    +0.000 C 
ATOM     20  C   UNL     1      -0.441  48.077  30.011  0.00  0.00    +0.000 C 
ENDROOT
BRANCH   7  21
ATOM     21  C   UNL     1      -8.976  47.717  26.095  0.00  0.00    +0.000 C 
ATOM     22  O   UNL     1      -9.377  48.330  27.070  0.00  0.00    +0.000 OA
ATOM     23  C   UNL     1     -10.036  47.643  25.046  0.00  0.00    +0.000 C 
ENDBRANCH   7  21
TORSDOF 1
ENDMDL
MODEL 3
REMARK VINA RESULT:      -6.8      1.882      6.939
REMARK  Name = Progesterone.pdbqt.pdb
REMARK  1 active torsions:
REMARK  status: ('A' for Active; 'I' for Inactive)
REMARK    1  A    between atoms: C_7  and  C_21
REMARK                            x       y       z     vdW  Elec       q    Type
REMARK                         _______ _______ _______ _____ _____    ______ ____
ROOT
ATOM      1  O   UNL     1      -3.454  47.562  32.040  0.00  0.00    +0.000 OA
ATOM      2  C   UNL     1      -7.048  47.757  25.283  0.00  0.00    +0.000 C 
ATOM      3  C   UNL     1      -8.108  48.928  24.905  0.00  0.00    +0.000 C 
ATOM      4  C   UNL     1      -5.952  47.963  26.250  0.00  0.00    +0.000 C 
ATOM      5  C   UNL     1      -5.811  49.125  27.194  0.00  0.00    +0.000 C 
ATOM      6  C   UNL     1      -4.583  49.355  28.103  0.00  0.00    +0.000 C 
ATOM      7  C   UNL     1      -9.418  48.197  24.878  0.00  0.00    +0.000 C 
ATOM      8  C   UNL     1      -7.961  49.902  25.987  0.00  0.00    +0.000 C 
ATOM      9  C   UNL     1      -6.894  50.034  27.045  0.00  0.00    +0.000 C 
ATOM     10  C   UNL     1      -7.760  46.516  25.255  0.00  0.00    +0.000 C 
ATOM     11  C   UNL     1      -4.972  46.966  26.468  0.00  0.00    +0.000 C 
ATOM     12  C   UNL     1      -9.222  46.796  25.033  0.00  0.00    +0.000 C 
ATOM     13  C   UNL     1      -3.671  48.005  28.404  0.00  0.00    +0.000 C 
ATOM     14  C   UNL     1      -7.711  49.448  23.505  0.00  0.00    +0.000 C 
ATOM     15  C   UNL     1      -3.870  46.946  27.484  0.00  0.00    +0.000 C 
ATOM     16  C   UNL     1      -5.022  49.770  29.476  0.00  0.00    +0.000 C 
ATOM     17  C   UNL     1      -3.640  50.404  27.456  0.00  0.00    +0.000 C 
ATOM     18  C   UNL     1      -4.679  49.249  30.890  0.00  0.00    +0.000 C 
ATOM     19  C   UNL     1      -3.434  47.692  29.661  0.00  0.00    +0.000 C 
ATOM     20  C   UNL     1      -3.793  48.108  31.009  0.00  0.00    +0.000 C 
ENDROOT
BRANCH   7  21
ATOM     21  C   UNL     1     -10.694  48.837  24.672  0.00  0.00    +0.000 C 
ATOM     22  O   UNL     1     -11.525  48.502  23.845  0.00  0.00    +0.000 OA
ATOM     23  C   UNL     1     -11.214  49.952  25.520  0.00  0.00    +0.000 C 
ENDBRANCH   7  21
TORSDOF 1
ENDMDL
MODEL 4
REMARK VINA RESULT:      -6.7      4.829      8.409
REMARK  Name = Progesterone.pdbqt.pdb
REMARK  1 active torsions:
REMARK  status: ('A' for Active; 'I' for Inactive)
REMARK    1  A    between atoms: C_7  and  C_21
REMARK                            x       y       z     vdW  Elec       q    Type
REMARK                         _______ _______ _______ _____ _____    ______ ____
ROOT
ATOM      1  O   UNL     1       0.431  55.911  25.932  0.00  0.00    +0.000 OA
ATOM      2  C   UNL     1      -4.173  50.163  28.026  0.00  0.00    +0.000 C 
ATOM      3  C   UNL     1      -4.031  48.673  27.395  0.00  0.00    +0.000 C 
ATOM      4  C   UNL     1      -3.034  51.098  28.114  0.00  0.00    +0.000 C 
ATOM      5  C   UNL     1      -1.706  50.942  27.425  0.00  0.00    +0.000 C 
ATOM      6  C   UNL     1      -0.504  51.887  27.645  0.00  0.00    +0.000 C 
ATOM      7  C   UNL     1      -5.274  48.540  26.567  0.00  0.00    +0.000 C 
ATOM      8  C   UNL     1      -2.780  48.726  26.638  0.00  0.00    +0.000 C 
ATOM      9  C   UNL     1      -1.673  49.750  26.651  0.00  0.00    +0.000 C 
ATOM     10  C   UNL     1      -5.476  50.645  27.682  0.00  0.00    +0.000 C 
ATOM     11  C   UNL     1      -3.157  52.341  28.776  0.00  0.00    +0.000 C 
ATOM     12  C   UNL     1      -6.137  49.655  26.761  0.00  0.00    +0.000 C 
ATOM     13  C   UNL     1      -0.889  53.384  28.243  0.00  0.00    +0.000 C 
ATOM     14  C   UNL     1      -4.027  47.688  28.587  0.00  0.00    +0.000 C 
ATOM     15  C   UNL     1      -2.161  53.458  28.861  0.00  0.00    +0.000 C 
ATOM     16  C   UNL     1       0.148  52.214  26.333  0.00  0.00    +0.000 C 
ATOM     17  C   UNL     1       0.495  51.243  28.642  0.00  0.00    +0.000 C 
ATOM     18  C   UNL     1       0.541  53.548  25.660  0.00  0.00    +0.000 C 
ATOM     19  C   UNL     1      -0.464  54.438  27.578  0.00  0.00    +0.000 C 
ATOM     20  C   UNL     1       0.219  54.786  26.342  0.00  0.00    +0.000 C 
ENDROOT
BRANCH   7  21
ATOM     21  C   UNL     1      -5.564  47.405  25.725  0.00  0.00    +0.000 C 
ATOM     22  O   UNL     1      -6.471  47.346  24.912  0.00  0.00    +0.000 OA
ATOM     23  C   UNL     1      -4.725  46.171  25.671  0.00  0.00    +0.000 C 
ENDBRANCH   7  21
TORSDOF 1
ENDMDL
MODEL 5
REMARK VINA RESULT:      -6.5     23.170     25.228
REMARK  Name = Progesterone.pdbqt.pdb
REMARK  1 active torsions:
REMARK  status: ('A' for Active; 'I' for Inactive)
REMARK    1  A    between atoms: C_7  and  C_21
REMARK                            x       y       z     vdW  Elec       q    Type
REMARK                         _______ _______ _______ _____ _____    ______ ____
ROOT
ATOM      1  O   UNL     1     -15.407  33.889   3.898  0.00  0.00    +0.000 OA
ATOM      2  C   UNL     1     -16.234  41.361   5.343  0.00  0.00    +0.000 C 
ATOM      3  C   UNL     1     -17.641  42.135   5.101  0.00  0.00    +0.000 C 
ATOM      4  C   UNL     1     -16.164  39.916   5.636  0.00  0.00    +0.000 C 
ATOM      5  C   UNL     1     -17.288  38.929   5.492  0.00  0.00    +0.000 C 
ATOM      6  C   UNL     1     -17.198  37.449   5.925  0.00  0.00    +0.000 C 
ATOM      7  C   UNL     1     -17.336  43.029   3.937  0.00  0.00    +0.000 C 
ATOM      8  C   UNL     1     -18.594  41.059   4.827  0.00  0.00    +0.000 C 
ATOM      9  C   UNL     1     -18.468  39.568   5.023  0.00  0.00    +0.000 C 
ATOM     10  C   UNL     1     -15.264  41.970   4.485  0.00  0.00    +0.000 C 
ATOM     11  C   UNL     1     -14.936  39.295   5.961  0.00  0.00    +0.000 C 
ATOM     12  C   UNL     1     -15.954  42.976   3.602  0.00  0.00    +0.000 C 
ATOM     13  C   UNL     1     -15.659  36.848   6.053  0.00  0.00    +0.000 C 
ATOM     14  C   UNL     1     -17.928  42.943   6.388  0.00  0.00    +0.000 C 
ATOM     15  C   UNL     1     -14.652  37.837   6.168  0.00  0.00    +0.000 C 
ATOM     16  C   UNL     1     -17.814  36.562   4.883  0.00  0.00    +0.000 C 
ATOM     17  C   UNL     1     -17.873  37.265   7.310  0.00  0.00    +0.000 C 
ATOM     18  C   UNL     1     -17.306  35.305   4.142  0.00  0.00    +0.000 C 
ATOM     19  C   UNL     1     -15.372  35.750   5.385  0.00  0.00    +0.000 C 
ATOM     20  C   UNL     1     -15.962  34.837   4.418  0.00  0.00    +0.000 C 
ENDROOT
BRANCH   7  21
ATOM     21  C   UNL     1     -18.315  43.864   3.283  0.00  0.00    +0.000 C 
ATOM     22  O   UNL     1     -19.251  44.415   3.836  0.00  0.00    +0.000 OA
ATOM     23  C   UNL     1     -18.255  44.245   1.841  0.00  0.00    +0.000 C 
ENDBRANCH   7  21
TORSDOF 1
ENDMDL
MODEL 6
REMARK VINA RESULT:      -6.4      2.390      3.005
REMARK  Name = Progesterone.pdbqt.pdb
REMARK  1 active torsions:
REMARK  status: ('A' for Active; 'I' for Inactive)
REMARK    1  A    between atoms: C_7  and  C_21
REMARK                            x       y       z     vdW  Elec       q    Type
REMARK                         _______ _______ _______ _____ _____    ______ ____
ROOT
ATOM      1  O   UNL     1      -9.287  52.926  25.273  0.00  0.00    +0.000 OA
ATOM      2  C   UNL     1      -5.825  46.202  26.459  0.00  0.00    +0.000 C 
ATOM      3  C   UNL     1      -4.911  45.923  27.772  0.00  0.00    +0.000 C 
ATOM      4  C   UNL     1      -6.925  47.185  26.453  0.00  0.00    +0.000 C 
ATOM      5  C   UNL     1      -7.187  48.227  27.506  0.00  0.00    +0.000 C 
ATOM      6  C   UNL     1      -8.422  49.155  27.514  0.00  0.00    +0.000 C 
ATOM      7  C   UNL     1      -3.527  45.829  27.203  0.00  0.00    +0.000 C 
ATOM      8  C   UNL     1      -5.156  47.085  28.627  0.00  0.00    +0.000 C 
ATOM      9  C   UNL     1      -6.217  48.154  28.543  0.00  0.00    +0.000 C 
ATOM     10  C   UNL     1      -4.975  46.065  25.315  0.00  0.00    +0.000 C 
ATOM     11  C   UNL     1      -7.780  47.320  25.335  0.00  0.00    +0.000 C 
ATOM     12  C   UNL     1      -3.557  45.864  25.780  0.00  0.00    +0.000 C 
ATOM     13  C   UNL     1      -9.168  49.341  26.047  0.00  0.00    +0.000 C 
ATOM     14  C   UNL     1      -5.383  44.574  28.361  0.00  0.00    +0.000 C 
ATOM     15  C   UNL     1      -8.861  48.333  25.101  0.00  0.00    +0.000 C 
ATOM     16  C   UNL     1      -8.016  50.558  27.859  0.00  0.00    +0.000 C 
ATOM     17  C   UNL     1      -9.487  48.603  28.498  0.00  0.00    +0.000 C 
ATOM     18  C   UNL     1      -8.279  51.922  27.183  0.00  0.00    +0.000 C 
ATOM     19  C   UNL     1      -9.352  50.567  25.603  0.00  0.00    +0.000 C 
ATOM     20  C   UNL     1      -9.026  51.945  25.941  0.00  0.00    +0.000 C 
ENDROOT
BRANCH   7  21
ATOM     21  C   UNL     1      -2.335  45.676  28.002  0.00  0.00    +0.000 C 
ATOM     22  O   UNL     1      -1.248  46.164  27.745  0.00  0.00    +0.000 OA
ATOM     23  C   UNL     1      -2.299  44.969  29.317  0.00  0.00    +0.000 C 
ENDBRANCH   7  21
TORSDOF 1
ENDMDL
MODEL 7
REMARK VINA RESULT:      -6.4      4.120      5.966
REMARK  Name = Progesterone.pdbqt.pdb
REMARK  1 active torsions:
REMARK  status: ('A' for Active; 'I' for Inactive)
REMARK    1  A    between atoms: C_7  and  C_21
REMARK                            x       y       z     vdW  Elec       q    Type
REMARK                         _______ _______ _______ _____ _____    ______ ____
ROOT
ATOM      1  O   UNL     1      -7.149  50.295  28.635  0.00  0.00    +0.000 OA
ATOM      2  C   UNL     1      -0.045  47.514  27.998  0.00  0.00    +0.000 C 
ATOM      3  C   UNL     1       0.351  46.032  28.532  0.00  0.00    +0.000 C 
ATOM      4  C   UNL     1      -1.414  47.863  27.573  0.00  0.00    +0.000 C 
ATOM      5  C   UNL     1      -2.652  47.043  27.812  0.00  0.00    +0.000 C 
ATOM      6  C   UNL     1      -4.044  47.395  27.243  0.00  0.00    +0.000 C 
ATOM      7  C   UNL     1       1.239  46.325  29.704  0.00  0.00    +0.000 C 
ATOM      8  C   UNL     1      -0.936  45.419  28.863  0.00  0.00    +0.000 C 
ATOM      9  C   UNL     1      -2.340  45.850  28.521  0.00  0.00    +0.000 C 
ATOM     10  C   UNL     1       0.742  48.454  28.736  0.00  0.00    +0.000 C 
ATOM     11  C   UNL     1      -1.703  49.123  26.999  0.00  0.00    +0.000 C 
ATOM     12  C   UNL     1       1.509  47.720  29.803  0.00  0.00    +0.000 C 
ATOM     13  C   UNL     1      -4.246  48.982  26.814  0.00  0.00    +0.000 C 
ATOM     14  C   UNL     1       1.123  45.341  27.384  0.00  0.00    +0.000 C 
ATOM     15  C   UNL     1      -3.037  49.695  26.623  0.00  0.00    +0.000 C 
ATOM     16  C   UNL     1      -5.100  47.198  28.291  0.00  0.00    +0.000 C 
ATOM     17  C   UNL     1      -4.323  46.544  25.976  0.00  0.00    +0.000 C 
ATOM     18  C   UNL     1      -6.228  48.108  28.827  0.00  0.00    +0.000 C 
ATOM     19  C   UNL     1      -5.270  49.631  27.329  0.00  0.00    +0.000 C 
ATOM     20  C   UNL     1      -6.342  49.452  28.296  0.00  0.00    +0.000 C 
ENDROOT
BRANCH   7  21
ATOM     21  C   UNL     1       1.780  45.313  30.578  0.00  0.00    +0.000 C 
ATOM     22  O   UNL     1       2.746  44.611  30.329  0.00  0.00    +0.000 OA
ATOM     23  C   UNL     1       1.281  45.054  31.962  0.00  0.00    +0.000 C 
ENDBRANCH   7  21
TORSDOF 1
ENDMDL
MODEL 8
REMARK VINA RESULT:      -6.4      2.811      4.414
REMARK  Name = Progesterone.pdbqt.pdb
REMARK  1 active torsions:
REMARK  status: ('A' for Active; 'I' for Inactive)
REMARK    1  A    between atoms: C_7  and  C_21
REMARK                            x       y       z     vdW  Elec       q    Type
REMARK                         _______ _______ _______ _____ _____    ______ ____
ROOT
ATOM      1  O   UNL     1      -9.970  47.298  24.607  0.00  0.00    +0.000 OA
ATOM      2  C   UNL     1      -2.980  48.612  27.442  0.00  0.00    +0.000 C 
ATOM      3  C   UNL     1      -2.756  49.239  28.924  0.00  0.00    +0.000 C 
ATOM      4  C   UNL     1      -4.182  47.832  27.086  0.00  0.00    +0.000 C 
ATOM      5  C   UNL     1      -5.445  47.732  27.896  0.00  0.00    +0.000 C 
ATOM      6  C   UNL     1      -6.629  46.807  27.538  0.00  0.00    +0.000 C 
ATOM      7  C   UNL     1      -2.214  50.606  28.630  0.00  0.00    +0.000 C 
ATOM      8  C   UNL     1      -4.090  49.213  29.525  0.00  0.00    +0.000 C 
ATOM      9  C   UNL     1      -5.346  48.504  29.086  0.00  0.00    +0.000 C 
ATOM     10  C   UNL     1      -2.414  49.531  26.503  0.00  0.00    +0.000 C 
ATOM     11  C   UNL     1      -4.295  47.196  25.828  0.00  0.00    +0.000 C 
ATOM     12  C   UNL     1      -1.970  50.768  27.237  0.00  0.00    +0.000 C 
ATOM     13  C   UNL     1      -6.695  46.333  25.952  0.00  0.00    +0.000 C 
ATOM     14  C   UNL     1      -1.709  48.345  29.628  0.00  0.00    +0.000 C 
ATOM     15  C   UNL     1      -5.473  46.472  25.249  0.00  0.00    +0.000 C 
ATOM     16  C   UNL     1      -7.930  47.532  27.721  0.00  0.00    +0.000 C 
ATOM     17  C   UNL     1      -6.564  45.515  28.395  0.00  0.00    +0.000 C 
ATOM     18  C   UNL     1      -9.153  47.741  26.800  0.00  0.00    +0.000 C 
ATOM     19  C   UNL     1      -7.814  46.550  25.293  0.00  0.00    +0.000 C 
ATOM     20  C   UNL     1      -9.109  47.193  25.458  0.00  0.00    +0.000 C 
ENDROOT
BRANCH   7  21
ATOM     21  C   UNL     1      -1.937  51.598  29.640  0.00  0.00    +0.000 C 
ATOM     22  O   UNL     1      -0.982  51.583  30.398  0.00  0.00    +0.000 OA
ATOM     23  C   UNL     1      -2.743  52.840  29.830  0.00  0.00    +0.000 C 
ENDBRANCH   7  21
TORSDOF 1
ENDMDL
MODEL 9
REMARK VINA RESULT:      -6.3     22.422     25.003
REMARK  Name = Progesterone.pdbqt.pdb
REMARK  1 active torsions:
REMARK  status: ('A' for Active; 'I' for Inactive)
REMARK    1  A    between atoms: C_7  and  C_21
REMARK                            x       y       z     vdW  Elec       q    Type
REMARK                         _______ _______ _______ _____ _____    ______ ____
ROOT
ATOM      1  O   UNL     1     -16.058  44.387   1.770  0.00  0.00    +0.000 OA
ATOM      2  C   UNL     1     -18.645  38.351   5.705  0.00  0.00    +0.000 C 
ATOM      3  C   UNL     1     -17.644  37.223   6.308  0.00  0.00    +0.000 C 
ATOM      4  C   UNL     1     -18.220  39.745   5.472  0.00  0.00    +0.000 C 
ATOM      5  C   UNL     1     -16.804  40.253   5.489  0.00  0.00    +0.000 C 
ATOM      6  C   UNL     1     -16.421  41.743   5.358  0.00  0.00    +0.000 C 
ATOM      7  C   UNL     1     -17.950  36.019   5.467  0.00  0.00    +0.000 C 
ATOM      8  C   UNL     1     -16.311  37.794   6.117  0.00  0.00    +0.000 C 
ATOM      9  C   UNL     1     -15.890  39.199   5.763  0.00  0.00    +0.000 C 
ATOM     10  C   UNL     1     -19.506  37.695   4.769  0.00  0.00    +0.000 C 
ATOM     11  C   UNL     1     -19.144  40.733   5.060  0.00  0.00    +0.000 C 
ATOM     12  C   UNL     1     -19.056  36.268   4.606  0.00  0.00    +0.000 C 
ATOM     13  C   UNL     1     -17.574  42.706   4.657  0.00  0.00    +0.000 C 
ATOM     14  C   UNL     1     -18.054  37.013   7.784  0.00  0.00    +0.000 C 
ATOM     15  C   UNL     1     -18.878  42.153   4.663  0.00  0.00    +0.000 C 
ATOM     16  C   UNL     1     -15.252  41.901   4.430  0.00  0.00    +0.000 C 
ATOM     17  C   UNL     1     -16.127  42.336   6.761  0.00  0.00    +0.000 C 
ATOM     18  C   UNL     1     -15.007  42.792   3.192  0.00  0.00    +0.000 C 
ATOM     19  C   UNL     1     -17.217  43.435   3.621  0.00  0.00    +0.000 C 
ATOM     20  C   UNL     1     -16.081  43.655   2.739  0.00  0.00    +0.000 C 
ENDROOT
BRANCH   7  21
ATOM     21  C   UNL     1     -17.240  34.767   5.564  0.00  0.00    +0.000 C 
ATOM     22  O   UNL     1     -17.591  33.809   6.232  0.00  0.00    +0.000 OA
ATOM     23  C   UNL     1     -16.016  34.440   4.774  0.00  0.00    +0.000 C 
ENDBRANCH   7  21
TORSDOF 1
ENDMDL
