MODEL 1
REMARK VINA RESULT:      -6.3      0.000      0.000
REMARK  Name = 
REMARK  11 active torsions:
REMARK  status: ('A' for Active; 'I' for Inactive)
REMARK    1  A    between atoms: O_2  and  C_16
REMARK    2  A    between atoms: O_2  and  C_18
REMARK    3  A    between atoms: O_3  and  C_12
REMARK    4  A    between atoms: O_4  and  C_13
REMARK    5  A    between atoms: O_5  and  C_14
REMARK    6  A    between atoms: O_8  and  C_24
REMARK    7  A    between atoms: O_9  and  C_29
REMARK    8  A    between atoms: O_10  and  C_30
REMARK    9  A    between atoms: O_11  and  C_32
REMARK   10  A    between atoms: C_15  and  C_17
REMARK   11  A    between atoms: C_19  and  C_23
REMARK                            x       y       z     vdW  Elec       q    Type
REMARK                         _______ _______ _______ _____ _____    ______ ____
ROOT
ATOM      1  O   UNL     1     -15.545  39.303   4.978  0.00  0.00    +0.000 OA
ATOM      2  O   UNL     1     -19.378  38.789   6.206  0.00  0.00    +0.000 OA
ATOM      3  C   UNL     1     -17.427  37.822   5.291  0.00  0.00    +0.000 A 
ATOM      4  C   UNL     1     -16.130  38.051   5.005  0.00  0.00    +0.000 A 
ATOM      5  C   UNL     1     -18.269  38.976   5.720  0.00  0.00    +0.000 A 
ATOM      6  C   UNL     1     -17.678  40.324   5.559  0.00  0.00    +0.000 A 
ATOM      7  C   UNL     1     -16.331  40.402   5.204  0.00  0.00    +0.000 A 
ATOM      8  C   UNL     1     -18.398  41.510   5.759  0.00  0.00    +0.000 A 
ATOM      9  C   UNL     1     -15.704  41.642   5.060  0.00  0.00    +0.000 A 
ATOM     10  C   UNL     1     -17.777  42.755   5.614  0.00  0.00    +0.000 A 
ATOM     11  C   UNL     1     -16.430  42.807   5.267  0.00  0.00    +0.000 A 
ENDROOT
BRANCH   4  12
ATOM     12  C   UNL     1     -15.185  36.971   4.653  0.00  0.00    +0.000 A 
ATOM     13  C   UNL     1     -14.129  36.660   5.527  0.00  0.00    +0.000 A 
ATOM     14  C   UNL     1     -15.324  36.240   3.459  0.00  0.00    +0.000 A 
ATOM     15  C   UNL     1     -13.227  35.657   5.189  0.00  0.00    +0.000 A 
ATOM     16  C   UNL     1     -14.411  35.237   3.126  0.00  0.00    +0.000 A 
ATOM     17  C   UNL     1     -13.368  34.958   3.994  0.00  0.00    +0.000 A 
BRANCH  15  18
ATOM     18  O   UNL     1     -12.178  35.323   6.001  0.00  0.00    +0.000 OA
ATOM     19  H   UNL     1     -11.478  35.988   5.888  0.00  0.00    +0.000 HD
ENDBRANCH  15  18
BRANCH  17  20
ATOM     20  O   UNL     1     -12.473  33.981   3.666  0.00  0.00    +0.000 OA
ATOM     21  H   UNL     1     -11.701  34.460   3.303  0.00  0.00    +0.000 HD
ENDBRANCH  17  20
ENDBRANCH   4  12
BRANCH   8  22
ATOM     22  O   UNL     1     -19.726  41.476   6.078  0.00  0.00    +0.000 OA
ATOM     23  H   UNL     1     -20.056  42.360   6.301  0.00  0.00    +0.000 HD
ENDBRANCH   8  22
BRANCH  11  24
ATOM     24  O   UNL     1     -15.778  43.993   5.113  0.00  0.00    +0.000 OA
ATOM     25  H   UNL     1     -16.423  44.719   5.103  0.00  0.00    +0.000 HD
ENDBRANCH  11  24
BRANCH   3  26
ATOM     26  O   UNL     1     -18.002  36.560   5.312  0.00  0.00    +0.000 OA
BRANCH  26  32
ATOM     27  O   UNL     1     -16.914  34.577   6.098  0.00  0.00    +0.000 OA
ATOM     28  C   UNL     1     -19.713  34.508   6.788  0.00  0.00    +0.000 C 
ATOM     29  C   UNL     1     -18.942  33.240   6.406  0.00  0.00    +0.000 C 
ATOM     30  C   UNL     1     -18.776  35.561   7.383  0.00  0.00    +0.000 C 
ATOM     31  C   UNL     1     -17.782  33.615   5.477  0.00  0.00    +0.000 C 
ATOM     32  C   UNL     1     -17.569  35.799   6.449  0.00  0.00    +0.000 C 
ATOM     33  C   UNL     1     -16.932  32.401   5.120  0.00  0.00    +0.000 C 
BRANCH  28  34
ATOM     34  O   UNL     1     -20.727  34.154   7.748  0.00  0.00    +0.000 OA
ATOM     35  H   UNL     1     -21.563  34.494   7.365  0.00  0.00    +0.000 HD
ENDBRANCH  28  34
BRANCH  29  36
ATOM     36  O   UNL     1     -19.841  32.318   5.783  0.00  0.00    +0.000 OA
ATOM     37  H   UNL     1     -20.736  32.667   5.963  0.00  0.00    +0.000 HD
ENDBRANCH  29  36
BRANCH  30  38
ATOM     38  O   UNL     1     -18.371  35.091   8.687  0.00  0.00    +0.000 OA
ATOM     39  H   UNL     1     -18.849  34.259   8.857  0.00  0.00    +0.000 HD
ENDBRANCH  30  38
ENDBRANCH  26  32
ENDBRANCH   3  26
TORSDOF 10
ENDMDL
MODEL 2
REMARK VINA RESULT:      -6.1      2.737      4.692
REMARK  Name = 
REMARK  11 active torsions:
REMARK  status: ('A' for Active; 'I' for Inactive)
REMARK    1  A    between atoms: O_2  and  C_16
REMARK    2  A    between atoms: O_2  and  C_18
REMARK    3  A    between atoms: O_3  and  C_12
REMARK    4  A    between atoms: O_4  and  C_13
REMARK    5  A    between atoms: O_5  and  C_14
REMARK    6  A    between atoms: O_8  and  C_24
REMARK    7  A    between atoms: O_9  and  C_29
REMARK    8  A    between atoms: O_10  and  C_30
REMARK    9  A    between atoms: O_11  and  C_32
REMARK   10  A    between atoms: C_15  and  C_17
REMARK   11  A    between atoms: C_19  and  C_23
REMARK                            x       y       z     vdW  Elec       q    Type
REMARK                         _______ _______ _______ _____ _____    ______ ____
ROOT
ATOM      1  O   UNL     1     -16.907  38.916   6.052  0.00  0.00    +0.000 OA
ATOM      2  O   UNL     1     -20.270  41.149   6.464  0.00  0.00    +0.000 OA
ATOM      3  C   UNL     1     -19.313  39.000   6.250  0.00  0.00    +0.000 A 
ATOM      4  C   UNL     1     -18.146  38.327   6.221  0.00  0.00    +0.000 A 
ATOM      5  C   UNL     1     -19.268  40.491   6.212  0.00  0.00    +0.000 A 
ATOM      6  C   UNL     1     -17.959  41.107   5.896  0.00  0.00    +0.000 A 
ATOM      7  C   UNL     1     -16.844  40.269   5.846  0.00  0.00    +0.000 A 
ATOM      8  C   UNL     1     -17.789  42.479   5.661  0.00  0.00    +0.000 A 
ATOM      9  C   UNL     1     -15.575  40.788   5.578  0.00  0.00    +0.000 A 
ATOM     10  C   UNL     1     -16.521  43.004   5.390  0.00  0.00    +0.000 A 
ATOM     11  C   UNL     1     -15.424  42.149   5.353  0.00  0.00    +0.000 A 
ENDROOT
BRANCH   4  12
ATOM     12  C   UNL     1     -18.068  36.856   6.339  0.00  0.00    +0.000 A 
ATOM     13  C   UNL     1     -18.435  36.235   7.546  0.00  0.00    +0.000 A 
ATOM     14  C   UNL     1     -17.640  36.059   5.262  0.00  0.00    +0.000 A 
ATOM     15  C   UNL     1     -18.344  34.853   7.666  0.00  0.00    +0.000 A 
ATOM     16  C   UNL     1     -17.548  34.671   5.392  0.00  0.00    +0.000 A 
ATOM     17  C   UNL     1     -17.897  34.082   6.596  0.00  0.00    +0.000 A 
BRANCH  15  18
ATOM     18  O   UNL     1     -18.679  34.203   8.821  0.00  0.00    +0.000 OA
ATOM     19  H   UNL     1     -18.598  33.245   8.670  0.00  0.00    +0.000 HD
ENDBRANCH  15  18
BRANCH  17  20
ATOM     20  O   UNL     1     -17.803  32.727   6.725  0.00  0.00    +0.000 OA
ATOM     21  H   UNL     1     -18.303  32.368   5.964  0.00  0.00    +0.000 HD
ENDBRANCH  17  20
ENDBRANCH   4  12
BRANCH   8  22
ATOM     22  O   UNL     1     -18.859  43.326   5.672  0.00  0.00    +0.000 OA
ATOM     23  H   UNL     1     -19.566  43.006   5.090  0.00  0.00    +0.000 HD
ENDBRANCH   8  22
BRANCH  11  24
ATOM     24  O   UNL     1     -14.168  42.610   5.093  0.00  0.00    +0.000 OA
ATOM     25  H   UNL     1     -13.948  42.442   4.162  0.00  0.00    +0.000 HD
ENDBRANCH  11  24
BRANCH   3  26
ATOM     26  O   UNL     1     -20.550  38.397   6.419  0.00  0.00    +0.000 OA
BRANCH  26  32
ATOM     27  O   UNL     1     -21.823  38.957   4.469  0.00  0.00    +0.000 OA
ATOM     28  C   UNL     1     -23.276  37.066   6.088  0.00  0.00    +0.000 C 
ATOM     29  C   UNL     1     -23.986  38.174   5.303  0.00  0.00    +0.000 C 
ATOM     30  C   UNL     1     -21.952  36.686   5.424  0.00  0.00    +0.000 C 
ATOM     31  C   UNL     1     -23.032  39.361   5.130  0.00  0.00    +0.000 C 
ATOM     32  C   UNL     1     -21.094  37.946   5.170  0.00  0.00    +0.000 C 
ATOM     33  C   UNL     1     -23.659  40.470   4.292  0.00  0.00    +0.000 C 
BRANCH  28  34
ATOM     34  O   UNL     1     -24.146  35.918   6.145  0.00  0.00    +0.000 OA
ATOM     35  H   UNL     1     -24.584  35.980   7.019  0.00  0.00    +0.000 HD
ENDBRANCH  28  34
BRANCH  29  36
ATOM     36  O   UNL     1     -25.176  38.552   6.003  0.00  0.00    +0.000 OA
ATOM     37  H   UNL     1     -24.982  39.428   6.392  0.00  0.00    +0.000 HD
ENDBRANCH  29  36
BRANCH  30  38
ATOM     38  O   UNL     1     -22.268  35.987   4.200  0.00  0.00    +0.000 OA
ATOM     39  H   UNL     1     -22.263  36.645   3.481  0.00  0.00    +0.000 HD
ENDBRANCH  30  38
ENDBRANCH  26  32
ENDBRANCH   3  26
TORSDOF 10
ENDMDL
MODEL 3
REMARK VINA RESULT:      -6.1     14.458     17.018
REMARK  Name = 
REMARK  11 active torsions:
REMARK  status: ('A' for Active; 'I' for Inactive)
REMARK    1  A    between atoms: O_2  and  C_16
REMARK    2  A    between atoms: O_2  and  C_18
REMARK    3  A    between atoms: O_3  and  C_12
REMARK    4  A    between atoms: O_4  and  C_13
REMARK    5  A    between atoms: O_5  and  C_14
REMARK    6  A    between atoms: O_8  and  C_24
REMARK    7  A    between atoms: O_9  and  C_29
REMARK    8  A    between atoms: O_10  and  C_30
REMARK    9  A    between atoms: O_11  and  C_32
REMARK   10  A    between atoms: C_15  and  C_17
REMARK   11  A    between atoms: C_19  and  C_23
REMARK                            x       y       z     vdW  Elec       q    Type
REMARK                         _______ _______ _______ _____ _____    ______ ____
ROOT
ATOM      1  O   UNL     1     -14.409  55.040   7.992  0.00  0.00    +0.000 OA
ATOM      2  O   UNL     1     -16.795  54.712   4.727  0.00  0.00    +0.000 OA
ATOM      3  C   UNL     1     -16.129  53.823   6.811  0.00  0.00    +0.000 A 
ATOM      4  C   UNL     1     -15.381  54.061   7.907  0.00  0.00    +0.000 A 
ATOM      5  C   UNL     1     -15.987  54.744   5.646  0.00  0.00    +0.000 A 
ATOM      6  C   UNL     1     -14.856  55.699   5.691  0.00  0.00    +0.000 A 
ATOM      7  C   UNL     1     -14.136  55.795   6.882  0.00  0.00    +0.000 A 
ATOM      8  C   UNL     1     -14.491  56.512   4.608  0.00  0.00    +0.000 A 
ATOM      9  C   UNL     1     -13.074  56.695   7.001  0.00  0.00    +0.000 A 
ATOM     10  C   UNL     1     -13.426  57.412   4.720  0.00  0.00    +0.000 A 
ATOM     11  C   UNL     1     -12.728  57.495   5.921  0.00  0.00    +0.000 A 
ENDROOT
BRANCH   4  12
ATOM     12  C   UNL     1     -15.502  53.267   9.147  0.00  0.00    +0.000 A 
ATOM     13  C   UNL     1     -15.103  51.919   9.150  0.00  0.00    +0.000 A 
ATOM     14  C   UNL     1     -16.004  53.835  10.332  0.00  0.00    +0.000 A 
ATOM     15  C   UNL     1     -15.234  51.164  10.310  0.00  0.00    +0.000 A 
ATOM     16  C   UNL     1     -16.136  53.068  11.492  0.00  0.00    +0.000 A 
ATOM     17  C   UNL     1     -15.753  51.737  11.468  0.00  0.00    +0.000 A 
BRANCH  15  18
ATOM     18  O   UNL     1     -14.870  49.847  10.362  0.00  0.00    +0.000 OA
ATOM     19  H   UNL     1     -14.879  49.561  11.292  0.00  0.00    +0.000 HD
ENDBRANCH  15  18
BRANCH  17  20
ATOM     20  O   UNL     1     -15.886  50.986  12.600  0.00  0.00    +0.000 OA
ATOM     21  H   UNL     1     -16.843  51.009  12.804  0.00  0.00    +0.000 HD
ENDBRANCH  17  20
ENDBRANCH   4  12
BRANCH   8  22
ATOM     22  O   UNL     1     -15.152  56.426   3.416  0.00  0.00    +0.000 OA
ATOM     23  H   UNL     1     -15.149  55.516   3.079  0.00  0.00    +0.000 HD
ENDBRANCH   8  22
BRANCH  11  24
ATOM     24  O   UNL     1     -11.684  58.355   6.082  0.00  0.00    +0.000 OA
ATOM     25  H   UNL     1     -11.895  58.993   6.784  0.00  0.00    +0.000 HD
ENDBRANCH  11  24
BRANCH   3  26
ATOM     26  O   UNL     1     -17.101  52.836   6.738  0.00  0.00    +0.000 OA
BRANCH  26  32
ATOM     27  O   UNL     1     -18.824  53.324   8.328  0.00  0.00    +0.000 OA
ATOM     28  C   UNL     1     -19.686  51.225   6.548  0.00  0.00    +0.000 C 
ATOM     29  C   UNL     1     -20.087  51.249   8.028  0.00  0.00    +0.000 C 
ATOM     30  C   UNL     1     -19.413  52.638   6.032  0.00  0.00    +0.000 C 
ATOM     31  C   UNL     1     -19.013  51.992   8.831  0.00  0.00    +0.000 C 
ATOM     32  C   UNL     1     -18.415  53.369   6.958  0.00  0.00    +0.000 C 
ATOM     33  C   UNL     1     -19.393  52.112  10.302  0.00  0.00    +0.000 C 
BRANCH  28  34
ATOM     34  O   UNL     1     -20.756  50.623   5.795  0.00  0.00    +0.000 OA
ATOM     35  H   UNL     1     -20.371  50.446   4.911  0.00  0.00    +0.000 HD
ENDBRANCH  28  34
BRANCH  29  36
ATOM     36  O   UNL     1     -20.253  49.904   8.487  0.00  0.00    +0.000 OA
ATOM     37  H   UNL     1     -20.098  49.938   9.452  0.00  0.00    +0.000 HD
ENDBRANCH  29  36
BRANCH  30  38
ATOM     38  O   UNL     1     -20.683  53.321   5.953  0.00  0.00    +0.000 OA
ATOM     39  H   UNL     1     -21.248  52.966   6.663  0.00  0.00    +0.000 HD
ENDBRANCH  30  38
ENDBRANCH  26  32
ENDBRANCH   3  26
TORSDOF 10
ENDMDL
MODEL 4
REMARK VINA RESULT:      -6.0      1.140      2.078
REMARK  Name = 
REMARK  11 active torsions:
REMARK  status: ('A' for Active; 'I' for Inactive)
REMARK    1  A    between atoms: O_2  and  C_16
REMARK    2  A    between atoms: O_2  and  C_18
REMARK    3  A    between atoms: O_3  and  C_12
REMARK    4  A    between atoms: O_4  and  C_13
REMARK    5  A    between atoms: O_5  and  C_14
REMARK    6  A    between atoms: O_8  and  C_24
REMARK    7  A    between atoms: O_9  and  C_29
REMARK    8  A    between atoms: O_10  and  C_30
REMARK    9  A    between atoms: O_11  and  C_32
REMARK   10  A    between atoms: C_15  and  C_17
REMARK   11  A    between atoms: C_19  and  C_23
REMARK                            x       y       z     vdW  Elec       q    Type
REMARK                         _______ _______ _______ _____ _____    ______ ____
ROOT
ATOM      1  O   UNL     1     -15.383  39.399   4.850  0.00  0.00    +0.000 OA
ATOM      2  O   UNL     1     -18.888  39.276   6.890  0.00  0.00    +0.000 OA
ATOM      3  C   UNL     1     -17.158  38.078   5.817  0.00  0.00    +0.000 A 
ATOM      4  C   UNL     1     -15.946  38.199   5.240  0.00  0.00    +0.000 A 
ATOM      5  C   UNL     1     -17.901  39.324   6.166  0.00  0.00    +0.000 A 
ATOM      6  C   UNL     1     -17.358  40.592   5.627  0.00  0.00    +0.000 A 
ATOM      7  C   UNL     1     -16.111  40.549   5.004  0.00  0.00    +0.000 A 
ATOM      8  C   UNL     1     -18.028  41.820   5.726  0.00  0.00    +0.000 A 
ATOM      9  C   UNL     1     -15.529  41.713   4.496  0.00  0.00    +0.000 A 
ATOM     10  C   UNL     1     -17.452  42.989   5.217  0.00  0.00    +0.000 A 
ATOM     11  C   UNL     1     -16.203  42.922   4.606  0.00  0.00    +0.000 A 
ENDROOT
BRANCH   4  12
ATOM     12  C   UNL     1     -15.088  37.037   4.930  0.00  0.00    +0.000 A 
ATOM     13  C   UNL     1     -13.978  36.756   5.745  0.00  0.00    +0.000 A 
ATOM     14  C   UNL     1     -15.364  36.198   3.835  0.00  0.00    +0.000 A 
ATOM     15  C   UNL     1     -13.158  35.674   5.444  0.00  0.00    +0.000 A 
ATOM     16  C   UNL     1     -14.532  35.116   3.537  0.00  0.00    +0.000 A 
ATOM     17  C   UNL     1     -13.433  34.867   4.343  0.00  0.00    +0.000 A 
BRANCH  15  18
ATOM     18  O   UNL     1     -12.061  35.364   6.200  0.00  0.00    +0.000 OA
ATOM     19  H   UNL     1     -12.347  34.805   6.942  0.00  0.00    +0.000 HD
ENDBRANCH  15  18
BRANCH  17  20
ATOM     20  O   UNL     1     -12.618  33.813   4.050  0.00  0.00    +0.000 OA
ATOM     21  H   UNL     1     -11.738  34.074   4.389  0.00  0.00    +0.000 HD
ENDBRANCH  17  20
ENDBRANCH   4  12
BRANCH   8  22
ATOM     22  O   UNL     1     -19.263  41.897   6.303  0.00  0.00    +0.000 OA
ATOM     23  H   UNL     1     -19.965  41.843   5.635  0.00  0.00    +0.000 HD
ENDBRANCH   8  22
BRANCH  11  24
ATOM     24  O   UNL     1     -15.599  44.030   4.094  0.00  0.00    +0.000 OA
ATOM     25  H   UNL     1     -16.268  44.712   3.916  0.00  0.00    +0.000 HD
ENDBRANCH  11  24
BRANCH   3  26
ATOM     26  O   UNL     1     -17.713  36.867   6.202  0.00  0.00    +0.000 OA
BRANCH  26  32
ATOM     27  O   UNL     1     -20.056  36.790   5.708  0.00  0.00    +0.000 OA
ATOM     28  C   UNL     1     -19.077  34.137   6.275  0.00  0.00    +0.000 C 
ATOM     29  C   UNL     1     -20.483  34.587   6.687  0.00  0.00    +0.000 C 
ATOM     30  C   UNL     1     -18.588  34.917   5.054  0.00  0.00    +0.000 C 
ATOM     31  C   UNL     1     -20.487  36.106   6.895  0.00  0.00    +0.000 C 
ATOM     32  C   UNL     1     -18.734  36.437   5.289  0.00  0.00    +0.000 C 
ATOM     33  C   UNL     1     -21.879  36.624   7.236  0.00  0.00    +0.000 C 
BRANCH  28  34
ATOM     34  O   UNL     1     -19.118  32.729   5.976  0.00  0.00    +0.000 OA
ATOM     35  H   UNL     1     -18.200  32.416   6.116  0.00  0.00    +0.000 HD
ENDBRANCH  28  34
BRANCH  29  36
ATOM     36  O   UNL     1     -20.865  33.890   7.877  0.00  0.00    +0.000 OA
ATOM     37  H   UNL     1     -20.372  33.046   7.853  0.00  0.00    +0.000 HD
ENDBRANCH  29  36
BRANCH  30  38
ATOM     38  O   UNL     1     -19.356  34.467   3.917  0.00  0.00    +0.000 OA
ATOM     39  H   UNL     1     -19.379  35.198   3.274  0.00  0.00    +0.000 HD
ENDBRANCH  30  38
ENDBRANCH  26  32
ENDBRANCH   3  26
TORSDOF 10
ENDMDL
MODEL 5
REMARK VINA RESULT:      -5.8     14.523     17.379
REMARK  Name = 
REMARK  11 active torsions:
REMARK  status: ('A' for Active; 'I' for Inactive)
REMARK    1  A    between atoms: O_2  and  C_16
REMARK    2  A    between atoms: O_2  and  C_18
REMARK    3  A    between atoms: O_3  and  C_12
REMARK    4  A    between atoms: O_4  and  C_13
REMARK    5  A    between atoms: O_5  and  C_14
REMARK    6  A    between atoms: O_8  and  C_24
REMARK    7  A    between atoms: O_9  and  C_29
REMARK    8  A    between atoms: O_10  and  C_30
REMARK    9  A    between atoms: O_11  and  C_32
REMARK   10  A    between atoms: C_15  and  C_17
REMARK   11  A    between atoms: C_19  and  C_23
REMARK                            x       y       z     vdW  Elec       q    Type
REMARK                         _______ _______ _______ _____ _____    ______ ____
ROOT
ATOM      1  O   UNL     1     -24.484  41.324  19.851  0.00  0.00    +0.000 OA
ATOM      2  O   UNL     1     -25.163  40.532  15.930  0.00  0.00    +0.000 OA
ATOM      3  C   UNL     1     -24.768  42.154  17.600  0.00  0.00    +0.000 A 
ATOM      4  C   UNL     1     -24.443  42.324  18.897  0.00  0.00    +0.000 A 
ATOM      5  C   UNL     1     -25.086  40.775  17.128  0.00  0.00    +0.000 A 
ATOM      6  C   UNL     1     -25.261  39.740  18.172  0.00  0.00    +0.000 A 
ATOM      7  C   UNL     1     -24.934  40.083  19.485  0.00  0.00    +0.000 A 
ATOM      8  C   UNL     1     -25.722  38.444  17.903  0.00  0.00    +0.000 A 
ATOM      9  C   UNL     1     -25.050  39.147  20.515  0.00  0.00    +0.000 A 
ATOM     10  C   UNL     1     -25.844  37.502  18.931  0.00  0.00    +0.000 A 
ATOM     11  C   UNL     1     -25.503  37.866  20.230  0.00  0.00    +0.000 A 
ENDROOT
BRANCH   4  12
ATOM     12  C   UNL     1     -24.028  43.628  19.454  0.00  0.00    +0.000 A 
ATOM     13  C   UNL     1     -24.941  44.383  20.210  0.00  0.00    +0.000 A 
ATOM     14  C   UNL     1     -22.730  44.130  19.249  0.00  0.00    +0.000 A 
ATOM     15  C   UNL     1     -24.559  45.619  20.719  0.00  0.00    +0.000 A 
ATOM     16  C   UNL     1     -22.356  45.375  19.760  0.00  0.00    +0.000 A 
ATOM     17  C   UNL     1     -23.278  46.110  20.487  0.00  0.00    +0.000 A 
BRANCH  15  18
ATOM     18  O   UNL     1     -25.414  46.396  21.452  0.00  0.00    +0.000 OA
ATOM     19  H   UNL     1     -25.810  47.059  20.862  0.00  0.00    +0.000 HD
ENDBRANCH  15  18
BRANCH  17  20
ATOM     20  O   UNL     1     -22.914  47.328  20.983  0.00  0.00    +0.000 OA
ATOM     21  H   UNL     1     -22.202  47.638  20.387  0.00  0.00    +0.000 HD
ENDBRANCH  17  20
ENDBRANCH   4  12
BRANCH   8  22
ATOM     22  O   UNL     1     -26.081  38.079  16.637  0.00  0.00    +0.000 OA
ATOM     23  H   UNL     1     -26.228  38.857  16.077  0.00  0.00    +0.000 HD
ENDBRANCH   8  22
BRANCH  11  24
ATOM     24  O   UNL     1     -25.604  36.987  21.266  0.00  0.00    +0.000 OA
ATOM     25  H   UNL     1     -24.987  37.246  21.972  0.00  0.00    +0.000 HD
ENDBRANCH  11  24
BRANCH   3  26
ATOM     26  O   UNL     1     -24.724  43.166  16.653  0.00  0.00    +0.000 OA
BRANCH  26  32
ATOM     27  O   UNL     1     -26.918  43.421  15.727  0.00  0.00    +0.000 OA
ATOM     28  C   UNL     1     -25.228  45.597  14.878  0.00  0.00    +0.000 C 
ATOM     29  C   UNL     1     -26.303  45.001  13.962  0.00  0.00    +0.000 C 
ATOM     30  C   UNL     1     -25.597  45.409  16.350  0.00  0.00    +0.000 C 
ATOM     31  C   UNL     1     -26.539  43.536  14.347  0.00  0.00    +0.000 C 
ATOM     32  C   UNL     1     -25.939  43.930  16.637  0.00  0.00    +0.000 C 
ATOM     33  C   UNL     1     -27.653  42.909  13.517  0.00  0.00    +0.000 C 
BRANCH  28  34
ATOM     34  O   UNL     1     -25.100  47.000  14.577  0.00  0.00    +0.000 OA
ATOM     35  H   UNL     1     -24.143  47.133  14.411  0.00  0.00    +0.000 HD
ENDBRANCH  28  34
BRANCH  29  36
ATOM     36  O   UNL     1     -25.879  45.128  12.602  0.00  0.00    +0.000 OA
ATOM     37  H   UNL     1     -26.571  44.684  12.071  0.00  0.00    +0.000 HD
ENDBRANCH  29  36
BRANCH  30  38
ATOM     38  O   UNL     1     -26.706  46.289  16.633  0.00  0.00    +0.000 OA
ATOM     39  H   UNL     1     -27.188  46.426  15.797  0.00  0.00    +0.000 HD
ENDBRANCH  30  38
ENDBRANCH  26  32
ENDBRANCH   3  26
TORSDOF 10
ENDMDL
MODEL 6
REMARK VINA RESULT:      -5.6     15.925     18.780
REMARK  Name = 
REMARK  11 active torsions:
REMARK  status: ('A' for Active; 'I' for Inactive)
REMARK    1  A    between atoms: O_2  and  C_16
REMARK    2  A    between atoms: O_2  and  C_18
REMARK    3  A    between atoms: O_3  and  C_12
REMARK    4  A    between atoms: O_4  and  C_13
REMARK    5  A    between atoms: O_5  and  C_14
REMARK    6  A    between atoms: O_8  and  C_24
REMARK    7  A    between atoms: O_9  and  C_29
REMARK    8  A    between atoms: O_10  and  C_30
REMARK    9  A    between atoms: O_11  and  C_32
REMARK   10  A    between atoms: C_15  and  C_17
REMARK   11  A    between atoms: C_19  and  C_23
REMARK                            x       y       z     vdW  Elec       q    Type
REMARK                         _______ _______ _______ _____ _____    ______ ____
ROOT
ATOM      1  O   UNL     1     -17.408  52.803   7.716  0.00  0.00    +0.000 OA
ATOM      2  O   UNL     1     -14.449  55.503   7.066  0.00  0.00    +0.000 OA
ATOM      3  C   UNL     1     -15.828  54.387   8.626  0.00  0.00    +0.000 A 
ATOM      4  C   UNL     1     -16.738  53.403   8.765  0.00  0.00    +0.000 A 
ATOM      5  C   UNL     1     -15.425  54.785   7.245  0.00  0.00    +0.000 A 
ATOM      6  C   UNL     1     -16.239  54.240   6.134  0.00  0.00    +0.000 A 
ATOM      7  C   UNL     1     -17.184  53.261   6.444  0.00  0.00    +0.000 A 
ATOM      8  C   UNL     1     -16.094  54.647   4.801  0.00  0.00    +0.000 A 
ATOM      9  C   UNL     1     -17.967  52.686   5.441  0.00  0.00    +0.000 A 
ATOM     10  C   UNL     1     -16.877  54.076   3.792  0.00  0.00    +0.000 A 
ATOM     11  C   UNL     1     -17.807  53.097   4.125  0.00  0.00    +0.000 A 
ENDROOT
BRANCH   4  12
ATOM     12  C   UNL     1     -17.146  52.871  10.083  0.00  0.00    +0.000 A 
ATOM     13  C   UNL     1     -16.208  52.187  10.876  0.00  0.00    +0.000 A 
ATOM     14  C   UNL     1     -18.456  53.043  10.564  0.00  0.00    +0.000 A 
ATOM     15  C   UNL     1     -16.595  51.669  12.107  0.00  0.00    +0.000 A 
ATOM     16  C   UNL     1     -18.837  52.515  11.800  0.00  0.00    +0.000 A 
ATOM     17  C   UNL     1     -17.902  51.829  12.558  0.00  0.00    +0.000 A 
BRANCH  15  18
ATOM     18  O   UNL     1     -15.724  50.988  12.912  0.00  0.00    +0.000 OA
ATOM     19  H   UNL     1     -14.919  51.524  13.017  0.00  0.00    +0.000 HD
ENDBRANCH  15  18
BRANCH  17  20
ATOM     20  O   UNL     1     -18.276  51.311  13.764  0.00  0.00    +0.000 OA
ATOM     21  H   UNL     1     -19.248  51.414  13.791  0.00  0.00    +0.000 HD
ENDBRANCH  17  20
ENDBRANCH   4  12
BRANCH   8  22
ATOM     22  O   UNL     1     -15.200  55.622   4.462  0.00  0.00    +0.000 OA
ATOM     23  H   UNL     1     -14.848  56.064   5.250  0.00  0.00    +0.000 HD
ENDBRANCH   8  22
BRANCH  11  24
ATOM     24  O   UNL     1     -18.595  52.510   3.181  0.00  0.00    +0.000 OA
ATOM     25  H   UNL     1     -19.141  51.822   3.596  0.00  0.00    +0.000 HD
ENDBRANCH  11  24
BRANCH   3  26
ATOM     26  O   UNL     1     -15.163  54.983   9.687  0.00  0.00    +0.000 OA
BRANCH  26  32
ATOM     27  O   UNL     1     -15.030  57.358   9.961  0.00  0.00    +0.000 OA
ATOM     28  C   UNL     1     -15.101  56.068  12.539  0.00  0.00    +0.000 C 
ATOM     29  C   UNL     1     -14.277  57.337  12.290  0.00  0.00    +0.000 C 
ATOM     30  C   UNL     1     -16.292  55.992  11.583  0.00  0.00    +0.000 C 
ATOM     31  C   UNL     1     -13.874  57.395  10.812  0.00  0.00    +0.000 C 
ATOM     32  C   UNL     1     -15.825  56.180  10.122  0.00  0.00    +0.000 C 
ATOM     33  C   UNL     1     -13.113  58.676  10.487  0.00  0.00    +0.000 C 
BRANCH  28  34
ATOM     34  O   UNL     1     -15.564  56.086  13.903  0.00  0.00    +0.000 OA
ATOM     35  H   UNL     1     -16.509  55.829  13.850  0.00  0.00    +0.000 HD
ENDBRANCH  28  34
BRANCH  29  36
ATOM     36  O   UNL     1     -13.133  57.326  13.149  0.00  0.00    +0.000 OA
ATOM     37  H   UNL     1     -13.485  57.453  14.052  0.00  0.00    +0.000 HD
ENDBRANCH  29  36
BRANCH  30  38
ATOM     38  O   UNL     1     -17.236  57.007  11.987  0.00  0.00    +0.000 OA
ATOM     39  H   UNL     1     -17.131  57.760  11.377  0.00  0.00    +0.000 HD
ENDBRANCH  30  38
ENDBRANCH  26  32
ENDBRANCH   3  26
TORSDOF 10
ENDMDL
MODEL 7
REMARK VINA RESULT:      -5.6     11.210     15.010
REMARK  Name = 
REMARK  11 active torsions:
REMARK  status: ('A' for Active; 'I' for Inactive)
REMARK    1  A    between atoms: O_2  and  C_16
REMARK    2  A    between atoms: O_2  and  C_18
REMARK    3  A    between atoms: O_3  and  C_12
REMARK    4  A    between atoms: O_4  and  C_13
REMARK    5  A    between atoms: O_5  and  C_14
REMARK    6  A    between atoms: O_8  and  C_24
REMARK    7  A    between atoms: O_9  and  C_29
REMARK    8  A    between atoms: O_10  and  C_30
REMARK    9  A    between atoms: O_11  and  C_32
REMARK   10  A    between atoms: C_15  and  C_17
REMARK   11  A    between atoms: C_19  and  C_23
REMARK                            x       y       z     vdW  Elec       q    Type
REMARK                         _______ _______ _______ _____ _____    ______ ____
ROOT
ATOM      1  O   UNL     1      -1.405  39.998   1.431  0.00  0.00    +0.000 OA
ATOM      2  O   UNL     1      -1.693  36.255   2.973  0.00  0.00    +0.000 OA
ATOM      3  C   UNL     1      -2.799  38.240   2.327  0.00  0.00    +0.000 A 
ATOM      4  C   UNL     1      -2.632  39.427   1.712  0.00  0.00    +0.000 A 
ATOM      5  C   UNL     1      -1.585  37.426   2.628  0.00  0.00    +0.000 A 
ATOM      6  C   UNL     1      -0.276  38.096   2.451  0.00  0.00    +0.000 A 
ATOM      7  C   UNL     1      -0.269  39.353   1.845  0.00  0.00    +0.000 A 
ATOM      8  C   UNL     1       0.941  37.525   2.847  0.00  0.00    +0.000 A 
ATOM      9  C   UNL     1       0.933  40.029   1.624  0.00  0.00    +0.000 A 
ATOM     10  C   UNL     1       2.148  38.198   2.632  0.00  0.00    +0.000 A 
ATOM     11  C   UNL     1       2.130  39.447   2.018  0.00  0.00    +0.000 A 
ENDROOT
BRANCH   4  12
ATOM     12  C   UNL     1      -3.766  40.276   1.290  0.00  0.00    +0.000 A 
ATOM     13  C   UNL     1      -4.714  40.691   2.241  0.00  0.00    +0.000 A 
ATOM     14  C   UNL     1      -3.914  40.685  -0.048  0.00  0.00    +0.000 A 
ATOM     15  C   UNL     1      -5.792  41.474   1.844  0.00  0.00    +0.000 A 
ATOM     16  C   UNL     1      -5.002  41.468  -0.439  0.00  0.00    +0.000 A 
ATOM     17  C   UNL     1      -5.934  41.851   0.512  0.00  0.00    +0.000 A 
BRANCH  15  18
ATOM     18  O   UNL     1      -6.746  41.895   2.728  0.00  0.00    +0.000 OA
ATOM     19  H   UNL     1      -6.324  42.034   3.594  0.00  0.00    +0.000 HD
ENDBRANCH  15  18
BRANCH  17  20
ATOM     20  O   UNL     1      -7.000  42.612   0.128  0.00  0.00    +0.000 OA
ATOM     21  H   UNL     1      -7.008  43.366   0.752  0.00  0.00    +0.000 HD
ENDBRANCH  17  20
ENDBRANCH   4  12
BRANCH   8  22
ATOM     22  O   UNL     1       0.973  36.310   3.470  0.00  0.00    +0.000 OA
ATOM     23  H   UNL     1       1.084  35.590   2.830  0.00  0.00    +0.000 HD
ENDBRANCH   8  22
BRANCH  11  24
ATOM     24  O   UNL     1       3.277  40.144   1.785  0.00  0.00    +0.000 OA
ATOM     25  H   UNL     1       3.706  39.804   0.982  0.00  0.00    +0.000 HD
ENDBRANCH  11  24
BRANCH   3  26
ATOM     26  O   UNL     1      -4.036  37.680   2.605  0.00  0.00    +0.000 OA
BRANCH  26  32
ATOM     27  O   UNL     1      -5.383  37.428   0.640  0.00  0.00    +0.000 OA
ATOM     28  C   UNL     1      -6.440  35.808   2.777  0.00  0.00    +0.000 C 
ATOM     29  C   UNL     1      -7.352  36.501   1.759  0.00  0.00    +0.000 C 
ATOM     30  C   UNL     1      -5.063  35.524   2.176  0.00  0.00    +0.000 C 
ATOM     31  C   UNL     1      -6.652  37.756   1.226  0.00  0.00    +0.000 C 
ATOM     32  C   UNL     1      -4.472  36.808   1.552  0.00  0.00    +0.000 C 
ATOM     33  C   UNL     1      -7.482  38.450   0.152  0.00  0.00    +0.000 C 
BRANCH  28  34
ATOM     34  O   UNL     1      -7.064  34.574   3.183  0.00  0.00    +0.000 OA
ATOM     35  H   UNL     1      -7.190  34.072   2.351  0.00  0.00    +0.000 HD
ENDBRANCH  28  34
BRANCH  29  36
ATOM     36  O   UNL     1      -8.598  36.818   2.388  0.00  0.00    +0.000 OA
ATOM     37  H   UNL     1      -9.288  36.489   1.778  0.00  0.00    +0.000 HD
ENDBRANCH  29  36
BRANCH  30  38
ATOM     38  O   UNL     1      -5.226  34.470   1.203  0.00  0.00    +0.000 OA
ATOM     39  H   UNL     1      -4.399  34.420   0.689  0.00  0.00    +0.000 HD
ENDBRANCH  30  38
ENDBRANCH  26  32
ENDBRANCH   3  26
TORSDOF 10
ENDMDL
MODEL 8
REMARK VINA RESULT:      -5.5     30.193     31.822
REMARK  Name = 
REMARK  11 active torsions:
REMARK  status: ('A' for Active; 'I' for Inactive)
REMARK    1  A    between atoms: O_2  and  C_16
REMARK    2  A    between atoms: O_2  and  C_18
REMARK    3  A    between atoms: O_3  and  C_12
REMARK    4  A    between atoms: O_4  and  C_13
REMARK    5  A    between atoms: O_5  and  C_14
REMARK    6  A    between atoms: O_8  and  C_24
REMARK    7  A    between atoms: O_9  and  C_29
REMARK    8  A    between atoms: O_10  and  C_30
REMARK    9  A    between atoms: O_11  and  C_32
REMARK   10  A    between atoms: C_15  and  C_17
REMARK   11  A    between atoms: C_19  and  C_23
REMARK                            x       y       z     vdW  Elec       q    Type
REMARK                         _______ _______ _______ _____ _____    ______ ____
ROOT
ATOM      1  O   UNL     1     -12.874  42.710  36.444  0.00  0.00    +0.000 OA
ATOM      2  O   UNL     1     -16.022  40.188  35.999  0.00  0.00    +0.000 OA
ATOM      3  C   UNL     1     -13.850  40.539  36.859  0.00  0.00    +0.000 A 
ATOM      4  C   UNL     1     -12.895  41.469  37.054  0.00  0.00    +0.000 A 
ATOM      5  C   UNL     1     -15.029  40.905  36.020  0.00  0.00    +0.000 A 
ATOM      6  C   UNL     1     -14.937  42.175  35.265  0.00  0.00    +0.000 A 
ATOM      7  C   UNL     1     -13.856  43.014  35.537  0.00  0.00    +0.000 A 
ATOM      8  C   UNL     1     -15.884  42.575  34.311  0.00  0.00    +0.000 A 
ATOM      9  C   UNL     1     -13.722  44.239  34.880  0.00  0.00    +0.000 A 
ATOM     10  C   UNL     1     -15.754  43.799  33.647  0.00  0.00    +0.000 A 
ATOM     11  C   UNL     1     -14.671  44.621  33.942  0.00  0.00    +0.000 A 
ENDROOT
BRANCH   4  12
ATOM     12  C   UNL     1     -11.728  41.246  37.933  0.00  0.00    +0.000 A 
ATOM     13  C   UNL     1     -10.547  40.704  37.397  0.00  0.00    +0.000 A 
ATOM     14  C   UNL     1     -11.772  41.573  39.301  0.00  0.00    +0.000 A 
ATOM     15  C   UNL     1      -9.455  40.475  38.226  0.00  0.00    +0.000 A 
ATOM     16  C   UNL     1     -10.671  41.335  40.127  0.00  0.00    +0.000 A 
ATOM     17  C   UNL     1      -9.524  40.784  39.581  0.00  0.00    +0.000 A 
BRANCH  15  18
ATOM     18  O   UNL     1      -8.288  39.941  37.755  0.00  0.00    +0.000 OA
ATOM     19  H   UNL     1      -8.505  39.265  37.089  0.00  0.00    +0.000 HD
ENDBRANCH  15  18
BRANCH  17  20
ATOM     20  O   UNL     1      -8.450  40.548  40.390  0.00  0.00    +0.000 OA
ATOM     21  H   UNL     1      -7.836  40.018  39.843  0.00  0.00    +0.000 HD
ENDBRANCH  17  20
ENDBRANCH   4  12
BRANCH   8  22
ATOM     22  O   UNL     1     -16.940  41.769  33.996  0.00  0.00    +0.000 OA
ATOM     23  H   UNL     1     -16.645  40.867  33.794  0.00  0.00    +0.000 HD
ENDBRANCH   8  22
BRANCH  11  24
ATOM     24  O   UNL     1     -14.498  45.823  33.324  0.00  0.00    +0.000 OA
ATOM     25  H   UNL     1     -13.600  45.873  32.956  0.00  0.00    +0.000 HD
ENDBRANCH  11  24
BRANCH   3  26
ATOM     26  O   UNL     1     -13.858  39.297  37.475  0.00  0.00    +0.000 OA
BRANCH  26  32
ATOM     27  O   UNL     1     -14.314  37.426  36.052  0.00  0.00    +0.000 OA
ATOM     28  C   UNL     1     -12.921  36.551  38.420  0.00  0.00    +0.000 C 
ATOM     29  C   UNL     1     -13.998  35.691  37.750  0.00  0.00    +0.000 C 
ATOM     30  C   UNL     1     -12.252  37.480  37.406  0.00  0.00    +0.000 C 
ATOM     31  C   UNL     1     -14.989  36.603  37.017  0.00  0.00    +0.000 C 
ATOM     32  C   UNL     1     -13.317  38.279  36.621  0.00  0.00    +0.000 C 
ATOM     33  C   UNL     1     -16.045  35.799  36.267  0.00  0.00    +0.000 C 
BRANCH  28  34
ATOM     34  O   UNL     1     -11.939  35.676  39.008  0.00  0.00    +0.000 OA
ATOM     35  H   UNL     1     -11.222  36.272  39.312  0.00  0.00    +0.000 HD
ENDBRANCH  28  34
BRANCH  29  36
ATOM     36  O   UNL     1     -14.649  34.898  38.747  0.00  0.00    +0.000 OA
ATOM     37  H   UNL     1     -15.026  35.539  39.383  0.00  0.00    +0.000 HD
ENDBRANCH  29  36
BRANCH  30  38
ATOM     38  O   UNL     1     -11.439  36.660  36.540  0.00  0.00    +0.000 OA
ATOM     39  H   UNL     1     -10.533  37.019  36.568  0.00  0.00    +0.000 HD
ENDBRANCH  30  38
ENDBRANCH  26  32
ENDBRANCH   3  26
TORSDOF 10
ENDMDL
MODEL 9
REMARK VINA RESULT:      -5.5     30.459     32.802
REMARK  Name = 
REMARK  11 active torsions:
REMARK  status: ('A' for Active; 'I' for Inactive)
REMARK    1  A    between atoms: O_2  and  C_16
REMARK    2  A    between atoms: O_2  and  C_18
REMARK    3  A    between atoms: O_3  and  C_12
REMARK    4  A    between atoms: O_4  and  C_13
REMARK    5  A    between atoms: O_5  and  C_14
REMARK    6  A    between atoms: O_8  and  C_24
REMARK    7  A    between atoms: O_9  and  C_29
REMARK    8  A    between atoms: O_10  and  C_30
REMARK    9  A    between atoms: O_11  and  C_32
REMARK   10  A    between atoms: C_15  and  C_17
REMARK   11  A    between atoms: C_19  and  C_23
REMARK                            x       y       z     vdW  Elec       q    Type
REMARK                         _______ _______ _______ _____ _____    ______ ____
ROOT
ATOM      1  O   UNL     1     -11.383  35.142  36.989  0.00  0.00    +0.000 OA
ATOM      2  O   UNL     1      -9.492  38.269  38.752  0.00  0.00    +0.000 OA
ATOM      3  C   UNL     1     -11.524  37.335  37.992  0.00  0.00    +0.000 A 
ATOM      4  C   UNL     1     -12.089  36.216  37.498  0.00  0.00    +0.000 A 
ATOM      5  C   UNL     1     -10.037  37.382  38.107  0.00  0.00    +0.000 A 
ATOM      6  C   UNL     1      -9.286  36.294  37.440  0.00  0.00    +0.000 A 
ATOM      7  C   UNL     1     -10.017  35.223  36.926  0.00  0.00    +0.000 A 
ATOM      8  C   UNL     1      -7.889  36.286  37.316  0.00  0.00    +0.000 A 
ATOM      9  C   UNL     1      -9.370  34.151  36.307  0.00  0.00    +0.000 A 
ATOM     10  C   UNL     1      -7.235  35.216  36.694  0.00  0.00    +0.000 A 
ATOM     11  C   UNL     1      -7.986  34.156  36.197  0.00  0.00    +0.000 A 
ENDROOT
BRANCH   4  12
ATOM     12  C   UNL     1     -13.553  36.027  37.419  0.00  0.00    +0.000 A 
ATOM     13  C   UNL     1     -14.176  35.947  36.162  0.00  0.00    +0.000 A 
ATOM     14  C   UNL     1     -14.338  35.917  38.581  0.00  0.00    +0.000 A 
ATOM     15  C   UNL     1     -15.555  35.789  36.085  0.00  0.00    +0.000 A 
ATOM     16  C   UNL     1     -15.724  35.762  38.494  0.00  0.00    +0.000 A 
ATOM     17  C   UNL     1     -16.319  35.704  37.245  0.00  0.00    +0.000 A 
BRANCH  15  18
ATOM     18  O   UNL     1     -16.210  35.716  34.886  0.00  0.00    +0.000 OA
ATOM     19  H   UNL     1     -16.769  36.507  34.792  0.00  0.00    +0.000 HD
ENDBRANCH  15  18
BRANCH  17  20
ATOM     20  O   UNL     1     -17.674  35.557  37.161  0.00  0.00    +0.000 OA
ATOM     21  H   UNL     1     -17.812  34.602  36.998  0.00  0.00    +0.000 HD
ENDBRANCH  17  20
ENDBRANCH   4  12
BRANCH   8  22
ATOM     22  O   UNL     1      -7.141  37.330  37.779  0.00  0.00    +0.000 OA
ATOM     23  H   UNL     1      -7.435  38.170  37.394  0.00  0.00    +0.000 HD
ENDBRANCH   8  22
BRANCH  11  24
ATOM     24  O   UNL     1      -7.398  33.091  35.584  0.00  0.00    +0.000 OA
ATOM     25  H   UNL     1      -6.569  33.375  35.164  0.00  0.00    +0.000 HD
ENDBRANCH  11  24
BRANCH   3  26
ATOM     26  O   UNL     1     -12.243  38.407  38.498  0.00  0.00    +0.000 OA
BRANCH  26  32
ATOM     27  O   UNL     1     -12.349  40.792  38.313  0.00  0.00    +0.000 OA
ATOM     28  C   UNL     1     -14.624  39.598  37.005  0.00  0.00    +0.000 C 
ATOM     29  C   UNL     1     -14.727  40.932  37.753  0.00  0.00    +0.000 C 
ATOM     30  C   UNL     1     -13.203  39.368  36.488  0.00  0.00    +0.000 C 
ATOM     31  C   UNL     1     -13.665  40.976  38.857  0.00  0.00    +0.000 C 
ATOM     32  C   UNL     1     -12.177  39.547  37.630  0.00  0.00    +0.000 C 
ATOM     33  C   UNL     1     -13.670  42.313  39.590  0.00  0.00    +0.000 C 
BRANCH  28  34
ATOM     34  O   UNL     1     -15.552  39.619  35.903  0.00  0.00    +0.000 OA
ATOM     35  H   UNL     1     -16.390  39.952  36.288  0.00  0.00    +0.000 HD
ENDBRANCH  28  34
BRANCH  29  36
ATOM     36  O   UNL     1     -16.048  41.067  38.286  0.00  0.00    +0.000 OA
ATOM     37  H   UNL     1     -16.036  41.895  38.805  0.00  0.00    +0.000 HD
ENDBRANCH  29  36
BRANCH  30  38
ATOM     38  O   UNL     1     -12.982  40.298  35.406  0.00  0.00    +0.000 OA
ATOM     39  H   UNL     1     -13.803  40.334  34.882  0.00  0.00    +0.000 HD
ENDBRANCH  30  38
ENDBRANCH  26  32
ENDBRANCH   3  26
TORSDOF 10
ENDMDL
