MODEL 1
REMARK VINA RESULT:      -6.9      0.000      0.000
REMARK  Name = Quercetin.pdbqt.pdb
REMARK  6 active torsions:
REMARK  status: ('A' for Active; 'I' for Inactive)
REMARK    1  A    between atoms: C_5  and  C_12
REMARK    2  A    between atoms: C_6  and  O_22
REMARK    3  A    between atoms: C_8  and  O_24
REMARK    4  A    between atoms: C_10  and  O_26
REMARK    5  A    between atoms: C_15  and  O_18
REMARK    6  A    between atoms: C_17  and  O_20
REMARK                            x       y       z     vdW  Elec       q    Type
REMARK                         _______ _______ _______ _____ _____    ______ ____
ROOT
ATOM      1  O   UNL     1     -18.348  39.917   5.937  0.00  0.00    +0.000 OA
ATOM      2  O   UNL     1     -14.316  40.356   5.664  0.00  0.00    +0.000 OA
ATOM      3  C   UNL     1     -16.431  41.304   5.408  0.00  0.00    +0.000 A 
ATOM      4  C   UNL     1     -17.801  41.099   5.517  0.00  0.00    +0.000 A 
ATOM      5  C   UNL     1     -17.502  38.876   6.291  0.00  0.00    +0.000 A 
ATOM      6  C   UNL     1     -16.155  38.929   6.224  0.00  0.00    +0.000 A 
ATOM      7  C   UNL     1     -15.531  40.201   5.761  0.00  0.00    +0.000 A 
ATOM      8  C   UNL     1     -15.941  42.540   4.969  0.00  0.00    +0.000 A 
ATOM      9  C   UNL     1     -18.690  42.121   5.188  0.00  0.00    +0.000 A 
ATOM     10  C   UNL     1     -18.193  43.346   4.753  0.00  0.00    +0.000 A 
ATOM     11  C   UNL     1     -16.824  43.565   4.640  0.00  0.00    +0.000 A 
ENDROOT
BRANCH   5  12
ATOM     12  C   UNL     1     -18.246  37.691   6.742  0.00  0.00    +0.000 A 
ATOM     13  C   UNL     1     -19.573  37.794   7.172  0.00  0.00    +0.000 A 
ATOM     14  C   UNL     1     -17.641  36.429   6.683  0.00  0.00    +0.000 A 
ATOM     15  C   UNL     1     -20.264  36.652   7.558  0.00  0.00    +0.000 A 
ATOM     16  C   UNL     1     -18.342  35.283   7.054  0.00  0.00    +0.000 A 
ATOM     17  C   UNL     1     -19.660  35.403   7.474  0.00  0.00    +0.000 A 
BRANCH  15  18
ATOM     18  O   UNL     1     -21.528  36.786   8.051  0.00  0.00    +0.000 OA
ATOM     19  H   UNL     1     -21.926  35.895   8.063  0.00  0.00    +0.000 HD
ENDBRANCH  15  18
BRANCH  17  20
ATOM     20  O   UNL     1     -20.362  34.275   7.783  0.00  0.00    +0.000 OA
ATOM     21  H   UNL     1     -19.922  33.538   7.320  0.00  0.00    +0.000 HD
ENDBRANCH  17  20
ENDBRANCH   5  12
BRANCH   6  22
ATOM     22  O   UNL     1     -15.297  37.890   6.534  0.00  0.00    +0.000 OA
ATOM     23  H   UNL     1     -15.796  37.137   6.886  0.00  0.00    +0.000 HD
ENDBRANCH   6  22
BRANCH   8  24
ATOM     24  O   UNL     1     -14.606  42.812   4.837  0.00  0.00    +0.000 OA
ATOM     25  H   UNL     1     -14.276  43.169   5.694  0.00  0.00    +0.000 HD
ENDBRANCH   8  24
BRANCH  10  26
ATOM     26  O   UNL     1     -19.083  44.331   4.438  0.00  0.00    +0.000 OA
ATOM     27  H   UNL     1     -18.628  45.188   4.522  0.00  0.00    +0.000 HD
ENDBRANCH  10  26
TORSDOF 6
ENDMDL
MODEL 2
REMARK VINA RESULT:      -6.5      1.784      6.606
REMARK  Name = Quercetin.pdbqt.pdb
REMARK  6 active torsions:
REMARK  status: ('A' for Active; 'I' for Inactive)
REMARK    1  A    between atoms: C_5  and  C_12
REMARK    2  A    between atoms: C_6  and  O_22
REMARK    3  A    between atoms: C_8  and  O_24
REMARK    4  A    between atoms: C_10  and  O_26
REMARK    5  A    between atoms: C_15  and  O_18
REMARK    6  A    between atoms: C_17  and  O_20
REMARK                            x       y       z     vdW  Elec       q    Type
REMARK                         _______ _______ _______ _____ _____    ______ ____
ROOT
ATOM      1  O   UNL     1     -19.023  39.095   5.978  0.00  0.00    +0.000 OA
ATOM      2  O   UNL     1     -17.542  35.626   7.494  0.00  0.00    +0.000 OA
ATOM      3  C   UNL     1     -19.412  36.891   6.911  0.00  0.00    +0.000 A 
ATOM      4  C   UNL     1     -19.864  38.098   6.389  0.00  0.00    +0.000 A 
ATOM      5  C   UNL     1     -17.653  38.896   6.067  0.00  0.00    +0.000 A 
ATOM      6  C   UNL     1     -17.073  37.782   6.564  0.00  0.00    +0.000 A 
ATOM      7  C   UNL     1     -17.965  36.681   7.027  0.00  0.00    +0.000 A 
ATOM      8  C   UNL     1     -20.331  35.914   7.313  0.00  0.00    +0.000 A 
ATOM      9  C   UNL     1     -21.231  38.337   6.265  0.00  0.00    +0.000 A 
ATOM     10  C   UNL     1     -22.137  37.360   6.666  0.00  0.00    +0.000 A 
ATOM     11  C   UNL     1     -21.697  36.148   7.191  0.00  0.00    +0.000 A 
ENDROOT
BRANCH   5  12
ATOM     12  C   UNL     1     -16.894  40.050   5.565  0.00  0.00    +0.000 A 
ATOM     13  C   UNL     1     -16.584  40.172   4.206  0.00  0.00    +0.000 A 
ATOM     14  C   UNL     1     -16.527  41.075   6.446  0.00  0.00    +0.000 A 
ATOM     15  C   UNL     1     -15.898  41.291   3.753  0.00  0.00    +0.000 A 
ATOM     16  C   UNL     1     -15.854  42.206   5.985  0.00  0.00    +0.000 A 
ATOM     17  C   UNL     1     -15.558  42.313   4.633  0.00  0.00    +0.000 A 
BRANCH  15  18
ATOM     18  O   UNL     1     -15.535  41.351   2.440  0.00  0.00    +0.000 OA
ATOM     19  H   UNL     1     -14.855  40.665   2.300  0.00  0.00    +0.000 HD
ENDBRANCH  15  18
BRANCH  17  20
ATOM     20  O   UNL     1     -14.950  43.445   4.175  0.00  0.00    +0.000 OA
ATOM     21  H   UNL     1     -15.342  43.637   3.303  0.00  0.00    +0.000 HD
ENDBRANCH  17  20
ENDBRANCH   5  12
BRANCH   6  22
ATOM     22  O   UNL     1     -15.712  37.580   6.698  0.00  0.00    +0.000 OA
ATOM     23  H   UNL     1     -15.319  37.367   5.837  0.00  0.00    +0.000 HD
ENDBRANCH   6  22
BRANCH   8  24
ATOM     24  O   UNL     1     -19.957  34.706   7.836  0.00  0.00    +0.000 OA
ATOM     25  H   UNL     1     -19.131  34.415   7.384  0.00  0.00    +0.000 HD
ENDBRANCH   8  24
BRANCH  10  26
ATOM     26  O   UNL     1     -23.470  37.618   6.535  0.00  0.00    +0.000 OA
ATOM     27  H   UNL     1     -23.904  37.409   7.382  0.00  0.00    +0.000 HD
ENDBRANCH  10  26
TORSDOF 6
ENDMDL
MODEL 3
REMARK VINA RESULT:      -6.5     22.326     23.949
REMARK  Name = Quercetin.pdbqt.pdb
REMARK  6 active torsions:
REMARK  status: ('A' for Active; 'I' for Inactive)
REMARK    1  A    between atoms: C_5  and  C_12
REMARK    2  A    between atoms: C_6  and  O_22
REMARK    3  A    between atoms: C_8  and  O_24
REMARK    4  A    between atoms: C_10  and  O_26
REMARK    5  A    between atoms: C_15  and  O_18
REMARK    6  A    between atoms: C_17  and  O_20
REMARK                            x       y       z     vdW  Elec       q    Type
REMARK                         _______ _______ _______ _____ _____    ______ ____
ROOT
ATOM      1  O   UNL     1      -2.801  27.542  19.367  0.00  0.00    +0.000 OA
ATOM      2  O   UNL     1       0.446  28.571  21.584  0.00  0.00    +0.000 OA
ATOM      3  C   UNL     1      -0.579  28.503  19.492  0.00  0.00    +0.000 A 
ATOM      4  C   UNL     1      -1.713  28.128  18.780  0.00  0.00    +0.000 A 
ATOM      5  C   UNL     1      -2.789  27.323  20.737  0.00  0.00    +0.000 A 
ATOM      6  C   UNL     1      -1.753  27.625  21.549  0.00  0.00    +0.000 A 
ATOM      7  C   UNL     1      -0.550  28.257  20.937  0.00  0.00    +0.000 A 
ATOM      8  C   UNL     1       0.500  29.098  18.825  0.00  0.00    +0.000 A 
ATOM      9  C   UNL     1      -1.779  28.342  17.405  0.00  0.00    +0.000 A 
ATOM     10  C   UNL     1      -0.702  28.934  16.752  0.00  0.00    +0.000 A 
ATOM     11  C   UNL     1       0.439  29.314  17.452  0.00  0.00    +0.000 A 
ENDROOT
BRANCH   5  12
ATOM     12  C   UNL     1      -4.039  26.711  21.209  0.00  0.00    +0.000 A 
ATOM     13  C   UNL     1      -5.206  26.775  20.442  0.00  0.00    +0.000 A 
ATOM     14  C   UNL     1      -4.049  25.999  22.415  0.00  0.00    +0.000 A 
ATOM     15  C   UNL     1      -6.364  26.155  20.895  0.00  0.00    +0.000 A 
ATOM     16  C   UNL     1      -5.207  25.363  22.859  0.00  0.00    +0.000 A 
ATOM     17  C   UNL     1      -6.356  25.433  22.084  0.00  0.00    +0.000 A 
BRANCH  15  18
ATOM     18  O   UNL     1      -7.512  26.299  20.173  0.00  0.00    +0.000 OA
ATOM     19  H   UNL     1      -8.236  25.925  20.709  0.00  0.00    +0.000 HD
ENDBRANCH  15  18
BRANCH  17  20
ATOM     20  O   UNL     1      -7.473  24.763  22.492  0.00  0.00    +0.000 OA
ATOM     21  H   UNL     1      -7.193  24.169  23.212  0.00  0.00    +0.000 HD
ENDBRANCH  17  20
ENDBRANCH   5  12
BRANCH   6  22
ATOM     22  O   UNL     1      -1.705  27.379  22.908  0.00  0.00    +0.000 OA
ATOM     23  H   UNL     1      -2.462  27.794  23.351  0.00  0.00    +0.000 HD
ENDBRANCH   6  22
BRANCH   8  24
ATOM     24  O   UNL     1       1.647  29.490  19.460  0.00  0.00    +0.000 OA
ATOM     25  H   UNL     1       2.384  29.475  18.805  0.00  0.00    +0.000 HD
ENDBRANCH   8  24
BRANCH  10  26
ATOM     26  O   UNL     1      -0.790  29.133  15.406  0.00  0.00    +0.000 OA
ATOM     27  H   UNL     1      -0.550  30.059  15.220  0.00  0.00    +0.000 HD
ENDBRANCH  10  26
TORSDOF 6
ENDMDL
MODEL 4
REMARK VINA RESULT:      -6.1     13.630     16.532
REMARK  Name = Quercetin.pdbqt.pdb
REMARK  6 active torsions:
REMARK  status: ('A' for Active; 'I' for Inactive)
REMARK    1  A    between atoms: C_5  and  C_12
REMARK    2  A    between atoms: C_6  and  O_22
REMARK    3  A    between atoms: C_8  and  O_24
REMARK    4  A    between atoms: C_10  and  O_26
REMARK    5  A    between atoms: C_15  and  O_18
REMARK    6  A    between atoms: C_17  and  O_20
REMARK                            x       y       z     vdW  Elec       q    Type
REMARK                         _______ _______ _______ _____ _____    ______ ____
ROOT
ATOM      1  O   UNL     1      -2.549  38.031   2.703  0.00  0.00    +0.000 OA
ATOM      2  O   UNL     1       0.559  40.528   1.911  0.00  0.00    +0.000 OA
ATOM      3  C   UNL     1      -0.183  38.349   2.278  0.00  0.00    +0.000 A 
ATOM      4  C   UNL     1      -1.280  37.541   2.553  0.00  0.00    +0.000 A 
ATOM      5  C   UNL     1      -2.762  39.394   2.559  0.00  0.00    +0.000 A 
ATOM      6  C   UNL     1      -1.791  40.297   2.305  0.00  0.00    +0.000 A 
ATOM      7  C   UNL     1      -0.397  39.793   2.144  0.00  0.00    +0.000 A 
ATOM      8  C   UNL     1       1.089  37.778   2.138  0.00  0.00    +0.000 A 
ATOM      9  C   UNL     1      -1.118  36.163   2.690  0.00  0.00    +0.000 A 
ATOM     10  C   UNL     1       0.149  35.606   2.548  0.00  0.00    +0.000 A 
ATOM     11  C   UNL     1       1.256  36.403   2.273  0.00  0.00    +0.000 A 
ENDROOT
BRANCH   5  12
ATOM     12  C   UNL     1      -4.178  39.751   2.727  0.00  0.00    +0.000 A 
ATOM     13  C   UNL     1      -4.714  40.880   2.100  0.00  0.00    +0.000 A 
ATOM     14  C   UNL     1      -5.019  38.917   3.475  0.00  0.00    +0.000 A 
ATOM     15  C   UNL     1      -6.065  41.174   2.246  0.00  0.00    +0.000 A 
ATOM     16  C   UNL     1      -6.377  39.205   3.605  0.00  0.00    +0.000 A 
ATOM     17  C   UNL     1      -6.894  40.327   2.972  0.00  0.00    +0.000 A 
BRANCH  15  18
ATOM     18  O   UNL     1      -6.549  42.323   1.694  0.00  0.00    +0.000 OA
ATOM     19  H   UNL     1      -7.517  42.312   1.816  0.00  0.00    +0.000 HD
ENDBRANCH  15  18
BRANCH  17  20
ATOM     20  O   UNL     1      -8.233  40.575   3.054  0.00  0.00    +0.000 OA
ATOM     21  H   UNL     1      -8.403  41.368   2.510  0.00  0.00    +0.000 HD
ENDBRANCH  17  20
ENDBRANCH   5  12
BRANCH   6  22
ATOM     22  O   UNL     1      -1.977  41.662   2.197  0.00  0.00    +0.000 OA
ATOM     23  H   UNL     1      -1.830  42.090   3.056  0.00  0.00    +0.000 HD
ENDBRANCH   6  22
BRANCH   8  24
ATOM     24  O   UNL     1       2.212  38.512   1.869  0.00  0.00    +0.000 OA
ATOM     25  H   UNL     1       2.621  38.776   2.726  0.00  0.00    +0.000 HD
ENDBRANCH   8  24
BRANCH  10  26
ATOM     26  O   UNL     1       0.283  34.255   2.687  0.00  0.00    +0.000 OA
ATOM     27  H   UNL     1       0.224  33.853   1.802  0.00  0.00    +0.000 HD
ENDBRANCH  10  26
TORSDOF 6
ENDMDL
MODEL 5
REMARK VINA RESULT:      -6.0      1.534      6.503
REMARK  Name = Quercetin.pdbqt.pdb
REMARK  6 active torsions:
REMARK  status: ('A' for Active; 'I' for Inactive)
REMARK    1  A    between atoms: C_5  and  C_12
REMARK    2  A    between atoms: C_6  and  O_22
REMARK    3  A    between atoms: C_8  and  O_24
REMARK    4  A    between atoms: C_10  and  O_26
REMARK    5  A    between atoms: C_15  and  O_18
REMARK    6  A    between atoms: C_17  and  O_20
REMARK                            x       y       z     vdW  Elec       q    Type
REMARK                         _______ _______ _______ _____ _____    ______ ____
ROOT
ATOM      1  O   UNL     1     -18.653  40.519   5.268  0.00  0.00    +0.000 OA
ATOM      2  O   UNL     1     -14.624  40.044   5.526  0.00  0.00    +0.000 OA
ATOM      3  C   UNL     1     -16.748  39.167   5.919  0.00  0.00    +0.000 A 
ATOM      4  C   UNL     1     -18.117  39.382   5.810  0.00  0.00    +0.000 A 
ATOM      5  C   UNL     1     -17.798  41.500   4.787  0.00  0.00    +0.000 A 
ATOM      6  C   UNL     1     -16.450  41.431   4.839  0.00  0.00    +0.000 A 
ATOM      7  C   UNL     1     -15.838  40.208   5.431  0.00  0.00    +0.000 A 
ATOM      8  C   UNL     1     -16.269  37.979   6.486  0.00  0.00    +0.000 A 
ATOM      9  C   UNL     1     -19.015  38.418   6.264  0.00  0.00    +0.000 A 
ATOM     10  C   UNL     1     -18.530  37.241   6.826  0.00  0.00    +0.000 A 
ATOM     11  C   UNL     1     -17.162  37.013   6.941  0.00  0.00    +0.000 A 
ENDROOT
BRANCH   5  12
ATOM     12  C   UNL     1     -18.531  42.639   4.218  0.00  0.00    +0.000 A 
ATOM     13  C   UNL     1     -19.394  43.406   5.007  0.00  0.00    +0.000 A 
ATOM     14  C   UNL     1     -18.318  43.003   2.882  0.00  0.00    +0.000 A 
ATOM     15  C   UNL     1     -20.046  44.501   4.453  0.00  0.00    +0.000 A 
ATOM     16  C   UNL     1     -18.960  44.112   2.333  0.00  0.00    +0.000 A 
ATOM     17  C   UNL     1     -19.810  44.865   3.132  0.00  0.00    +0.000 A 
BRANCH  15  18
ATOM     18  O   UNL     1     -20.945  45.185   5.217  0.00  0.00    +0.000 OA
ATOM     19  H   UNL     1     -20.458  45.537   5.985  0.00  0.00    +0.000 HD
ENDBRANCH  15  18
BRANCH  17  20
ATOM     20  O   UNL     1     -20.393  45.983   2.610  0.00  0.00    +0.000 OA
ATOM     21  H   UNL     1     -20.292  46.687   3.277  0.00  0.00    +0.000 HD
ENDBRANCH  17  20
ENDBRANCH   5  12
BRANCH   6  22
ATOM     22  O   UNL     1     -15.582  42.414   4.401  0.00  0.00    +0.000 OA
ATOM     23  H   UNL     1     -15.373  42.284   3.463  0.00  0.00    +0.000 HD
ENDBRANCH   6  22
BRANCH   8  24
ATOM     24  O   UNL     1     -14.936  37.702   6.627  0.00  0.00    +0.000 OA
ATOM     25  H   UNL     1     -14.622  37.267   5.800  0.00  0.00    +0.000 HD
ENDBRANCH   8  24
BRANCH  10  26
ATOM     26  O   UNL     1     -19.428  36.313   7.263  0.00  0.00    +0.000 OA
ATOM     27  H   UNL     1     -18.936  35.513   7.521  0.00  0.00    +0.000 HD
ENDBRANCH  10  26
TORSDOF 6
ENDMDL
MODEL 6
REMARK VINA RESULT:      -5.9     21.962     24.247
REMARK  Name = Quercetin.pdbqt.pdb
REMARK  6 active torsions:
REMARK  status: ('A' for Active; 'I' for Inactive)
REMARK    1  A    between atoms: C_5  and  C_12
REMARK    2  A    between atoms: C_6  and  O_22
REMARK    3  A    between atoms: C_8  and  O_24
REMARK    4  A    between atoms: C_10  and  O_26
REMARK    5  A    between atoms: C_15  and  O_18
REMARK    6  A    between atoms: C_17  and  O_20
REMARK                            x       y       z     vdW  Elec       q    Type
REMARK                         _______ _______ _______ _____ _____    ______ ____
ROOT
ATOM      1  O   UNL     1      -3.269  27.247  18.720  0.00  0.00    +0.000 OA
ATOM      2  O   UNL     1      -1.257  26.402  22.150  0.00  0.00    +0.000 OA
ATOM      3  C   UNL     1      -3.304  26.563  21.046  0.00  0.00    +0.000 A 
ATOM      4  C   UNL     1      -3.942  26.867  19.849  0.00  0.00    +0.000 A 
ATOM      5  C   UNL     1      -1.884  27.319  18.758  0.00  0.00    +0.000 A 
ATOM      6  C   UNL     1      -1.135  27.065  19.852  0.00  0.00    +0.000 A 
ATOM      7  C   UNL     1      -1.842  26.657  21.100  0.00  0.00    +0.000 A 
ATOM      8  C   UNL     1      -4.058  26.182  22.163  0.00  0.00    +0.000 A 
ATOM      9  C   UNL     1      -5.331  26.794  19.758  0.00  0.00    +0.000 A 
ATOM     10  C   UNL     1      -6.071  26.413  20.873  0.00  0.00    +0.000 A 
ATOM     11  C   UNL     1      -5.445  26.107  22.077  0.00  0.00    +0.000 A 
ENDROOT
BRANCH   5  12
ATOM     12  C   UNL     1      -1.317  27.717  17.461  0.00  0.00    +0.000 A 
ATOM     13  C   UNL     1      -0.789  26.765  16.584  0.00  0.00    +0.000 A 
ATOM     14  C   UNL     1      -1.360  29.061  17.069  0.00  0.00    +0.000 A 
ATOM     15  C   UNL     1      -0.293  27.165  15.349  0.00  0.00    +0.000 A 
ATOM     16  C   UNL     1      -0.878  29.457  15.823  0.00  0.00    +0.000 A 
ATOM     17  C   UNL     1      -0.361  28.499  14.962  0.00  0.00    +0.000 A 
BRANCH  15  18
ATOM     18  O   UNL     1       0.292  26.232  14.544  0.00  0.00    +0.000 OA
ATOM     19  H   UNL     1      -0.428  25.732  14.116  0.00  0.00    +0.000 HD
ENDBRANCH  15  18
BRANCH  17  20
ATOM     20  O   UNL     1       0.058  28.879  13.721  0.00  0.00    +0.000 OA
ATOM     21  H   UNL     1      -0.392  29.721  13.521  0.00  0.00    +0.000 HD
ENDBRANCH  17  20
ENDBRANCH   5  12
BRANCH   6  22
ATOM     22  O   UNL     1       0.242  27.169  19.921  0.00  0.00    +0.000 OA
ATOM     23  H   UNL     1       0.560  26.848  20.779  0.00  0.00    +0.000 HD
ENDBRANCH   6  22
BRANCH   8  24
ATOM     24  O   UNL     1      -3.498  25.872  23.373  0.00  0.00    +0.000 OA
ATOM     25  H   UNL     1      -2.744  26.487  23.532  0.00  0.00    +0.000 HD
ENDBRANCH   8  24
BRANCH  10  26
ATOM     26  O   UNL     1      -7.429  26.348  20.759  0.00  0.00    +0.000 OA
ATOM     27  H   UNL     1      -7.809  27.115  21.225  0.00  0.00    +0.000 HD
ENDBRANCH  10  26
TORSDOF 6
ENDMDL
MODEL 7
REMARK VINA RESULT:      -5.9     13.423     16.450
REMARK  Name = Quercetin.pdbqt.pdb
REMARK  6 active torsions:
REMARK  status: ('A' for Active; 'I' for Inactive)
REMARK    1  A    between atoms: C_5  and  C_12
REMARK    2  A    between atoms: C_6  and  O_22
REMARK    3  A    between atoms: C_8  and  O_24
REMARK    4  A    between atoms: C_10  and  O_26
REMARK    5  A    between atoms: C_15  and  O_18
REMARK    6  A    between atoms: C_17  and  O_20
REMARK                            x       y       z     vdW  Elec       q    Type
REMARK                         _______ _______ _______ _____ _____    ______ ____
ROOT
ATOM      1  O   UNL     1     -16.934  53.176  14.521  0.00  0.00    +0.000 OA
ATOM      2  O   UNL     1     -20.369  51.207  15.442  0.00  0.00    +0.000 OA
ATOM      3  C   UNL     1     -18.667  52.643  16.131  0.00  0.00    +0.000 A 
ATOM      4  C   UNL     1     -17.492  53.291  15.764  0.00  0.00    +0.000 A 
ATOM      5  C   UNL     1     -17.571  52.392  13.569  0.00  0.00    +0.000 A 
ATOM      6  C   UNL     1     -18.708  51.697  13.789  0.00  0.00    +0.000 A 
ATOM      7  C   UNL     1     -19.335  51.797  15.138  0.00  0.00    +0.000 A 
ATOM      8  C   UNL     1     -19.181  52.806  17.424  0.00  0.00    +0.000 A 
ATOM      9  C   UNL     1     -16.826  54.102  16.681  0.00  0.00    +0.000 A 
ATOM     10  C   UNL     1     -17.345  54.257  17.962  0.00  0.00    +0.000 A 
ATOM     11  C   UNL     1     -18.519  53.615  18.342  0.00  0.00    +0.000 A 
ENDROOT
BRANCH   5  12
ATOM     12  C   UNL     1     -16.856  52.394  12.285  0.00  0.00    +0.000 A 
ATOM     13  C   UNL     1     -16.139  51.272  11.859  0.00  0.00    +0.000 A 
ATOM     14  C   UNL     1     -16.944  53.512  11.445  0.00  0.00    +0.000 A 
ATOM     15  C   UNL     1     -15.504  51.288  10.623  0.00  0.00    +0.000 A 
ATOM     16  C   UNL     1     -16.319  53.518  10.199  0.00  0.00    +0.000 A 
ATOM     17  C   UNL     1     -15.615  52.395   9.789  0.00  0.00    +0.000 A 
BRANCH  15  18
ATOM     18  O   UNL     1     -14.742  50.215  10.263  0.00  0.00    +0.000 OA
ATOM     19  H   UNL     1     -15.270  49.415  10.446  0.00  0.00    +0.000 HD
ENDBRANCH  15  18
BRANCH  17  20
ATOM     20  O   UNL     1     -15.053  52.381   8.546  0.00  0.00    +0.000 OA
ATOM     21  H   UNL     1     -15.746  52.673   7.924  0.00  0.00    +0.000 HD
ENDBRANCH  17  20
ENDBRANCH   5  12
BRANCH   6  22
ATOM     22  O   UNL     1     -19.336  50.880  12.868  0.00  0.00    +0.000 OA
ATOM     23  H   UNL     1     -18.904  50.012  12.840  0.00  0.00    +0.000 HD
ENDBRANCH   6  22
BRANCH   8  24
ATOM     24  O   UNL     1     -20.330  52.197  17.853  0.00  0.00    +0.000 OA
ATOM     25  H   UNL     1     -20.768  52.791  18.507  0.00  0.00    +0.000 HD
ENDBRANCH   8  24
BRANCH  10  26
ATOM     26  O   UNL     1     -16.674  55.056  18.841  0.00  0.00    +0.000 OA
ATOM     27  H   UNL     1     -17.061  55.949  18.795  0.00  0.00    +0.000 HD
ENDBRANCH  10  26
TORSDOF 6
ENDMDL
MODEL 8
REMARK VINA RESULT:      -5.9     26.976     29.210
REMARK  Name = Quercetin.pdbqt.pdb
REMARK  6 active torsions:
REMARK  status: ('A' for Active; 'I' for Inactive)
REMARK    1  A    between atoms: C_5  and  C_12
REMARK    2  A    between atoms: C_6  and  O_22
REMARK    3  A    between atoms: C_8  and  O_24
REMARK    4  A    between atoms: C_10  and  O_26
REMARK    5  A    between atoms: C_15  and  O_18
REMARK    6  A    between atoms: C_17  and  O_20
REMARK                            x       y       z     vdW  Elec       q    Type
REMARK                         _______ _______ _______ _____ _____    ______ ____
ROOT
ATOM      1  O   UNL     1       3.358  56.755  16.804  0.00  0.00    +0.000 OA
ATOM      2  O   UNL     1       2.713  52.911  15.650  0.00  0.00    +0.000 OA
ATOM      3  C   UNL     1       3.174  55.111  15.031  0.00  0.00    +0.000 A 
ATOM      4  C   UNL     1       3.384  56.410  15.480  0.00  0.00    +0.000 A 
ATOM      5  C   UNL     1       3.129  55.767  17.750  0.00  0.00    +0.000 A 
ATOM      6  C   UNL     1       2.897  54.469  17.459  0.00  0.00    +0.000 A 
ATOM      7  C   UNL     1       2.911  54.065  16.024  0.00  0.00    +0.000 A 
ATOM      8  C   UNL     1       3.213  54.830  13.660  0.00  0.00    +0.000 A 
ATOM      9  C   UNL     1       3.634  57.434  14.568  0.00  0.00    +0.000 A 
ATOM     10  C   UNL     1       3.672  57.144  13.208  0.00  0.00    +0.000 A 
ATOM     11  C   UNL     1       3.463  55.849  12.745  0.00  0.00    +0.000 A 
ENDROOT
BRANCH   5  12
ATOM     12  C   UNL     1       3.157  56.298  19.120  0.00  0.00    +0.000 A 
ATOM     13  C   UNL     1       1.972  56.544  19.821  0.00  0.00    +0.000 A 
ATOM     14  C   UNL     1       4.387  56.504  19.759  0.00  0.00    +0.000 A 
ATOM     15  C   UNL     1       2.028  57.011  21.128  0.00  0.00    +0.000 A 
ATOM     16  C   UNL     1       4.440  56.956  21.077  0.00  0.00    +0.000 A 
ATOM     17  C   UNL     1       3.255  57.191  21.759  0.00  0.00    +0.000 A 
BRANCH  15  18
ATOM     18  O   UNL     1       0.863  57.322  21.765  0.00  0.00    +0.000 OA
ATOM     19  H   UNL     1       0.147  57.239  21.107  0.00  0.00    +0.000 HD
ENDBRANCH  15  18
BRANCH  17  20
ATOM     20  O   UNL     1       3.308  57.579  23.066  0.00  0.00    +0.000 OA
ATOM     21  H   UNL     1       3.762  56.865  23.550  0.00  0.00    +0.000 HD
ENDBRANCH  17  20
ENDBRANCH   5  12
BRANCH   6  22
ATOM     22  O   UNL     1       2.628  53.477  18.384  0.00  0.00    +0.000 OA
ATOM     23  H   UNL     1       2.373  53.871  19.233  0.00  0.00    +0.000 HD
ENDBRANCH   6  22
BRANCH   8  24
ATOM     24  O   UNL     1       3.014  53.577  13.147  0.00  0.00    +0.000 OA
ATOM     25  H   UNL     1       2.139  53.564  12.693  0.00  0.00    +0.000 HD
ENDBRANCH   8  24
BRANCH  10  26
ATOM     26  O   UNL     1       3.919  58.163  12.335  0.00  0.00    +0.000 OA
ATOM     27  H   UNL     1       4.883  58.286  12.278  0.00  0.00    +0.000 HD
ENDBRANCH  10  26
TORSDOF 6
ENDMDL
MODEL 9
REMARK VINA RESULT:      -5.9     26.199     28.248
REMARK  Name = Quercetin.pdbqt.pdb
REMARK  6 active torsions:
REMARK  status: ('A' for Active; 'I' for Inactive)
REMARK    1  A    between atoms: C_5  and  C_12
REMARK    2  A    between atoms: C_6  and  O_22
REMARK    3  A    between atoms: C_8  and  O_24
REMARK    4  A    between atoms: C_10  and  O_26
REMARK    5  A    between atoms: C_15  and  O_18
REMARK    6  A    between atoms: C_17  and  O_20
REMARK                            x       y       z     vdW  Elec       q    Type
REMARK                         _______ _______ _______ _____ _____    ______ ____
ROOT
ATOM      1  O   UNL     1      10.278  40.687   7.819  0.00  0.00    +0.000 OA
ATOM      2  O   UNL     1       8.274  38.842  10.836  0.00  0.00    +0.000 OA
ATOM      3  C   UNL     1       9.909  38.714   9.180  0.00  0.00    +0.000 A 
ATOM      4  C   UNL     1      10.561  39.391   8.155  0.00  0.00    +0.000 A 
ATOM      5  C   UNL     1       9.308  41.370   8.539  0.00  0.00    +0.000 A 
ATOM      6  C   UNL     1       8.588  40.836   9.549  0.00  0.00    +0.000 A 
ATOM      7  C   UNL     1       8.870  39.423   9.933  0.00  0.00    +0.000 A 
ATOM      8  C   UNL     1      10.250  37.387   9.469  0.00  0.00    +0.000 A 
ATOM      9  C   UNL     1      11.553  38.752   7.415  0.00  0.00    +0.000 A 
ATOM     10  C   UNL     1      11.885  37.433   7.710  0.00  0.00    +0.000 A 
ATOM     11  C   UNL     1      11.241  36.744   8.732  0.00  0.00    +0.000 A 
ENDROOT
BRANCH   5  12
ATOM     12  C   UNL     1       9.144  42.753   8.068  0.00  0.00    +0.000 A 
ATOM     13  C   UNL     1       8.257  43.058   7.031  0.00  0.00    +0.000 A 
ATOM     14  C   UNL     1       9.836  43.789   8.706  0.00  0.00    +0.000 A 
ATOM     15  C   UNL     1       8.093  44.378   6.631  0.00  0.00    +0.000 A 
ATOM     16  C   UNL     1       9.657  45.115   8.314  0.00  0.00    +0.000 A 
ATOM     17  C   UNL     1       8.770  45.402   7.286  0.00  0.00    +0.000 A 
BRANCH  15  18
ATOM     18  O   UNL     1       7.286  44.645   5.564  0.00  0.00    +0.000 OA
ATOM     19  H   UNL     1       7.060  45.593   5.606  0.00  0.00    +0.000 HD
ENDBRANCH  15  18
BRANCH  17  20
ATOM     20  O   UNL     1       8.553  46.704   6.941  0.00  0.00    +0.000 OA
ATOM     21  H   UNL     1       9.348  47.199   7.212  0.00  0.00    +0.000 HD
ENDBRANCH  17  20
ENDBRANCH   5  12
BRANCH   6  22
ATOM     22  O   UNL     1       7.592  41.486  10.252  0.00  0.00    +0.000 OA
ATOM     23  H   UNL     1       6.848  40.885  10.415  0.00  0.00    +0.000 HD
ENDBRANCH   6  22
BRANCH   8  24
ATOM     24  O   UNL     1       9.650  36.659  10.461  0.00  0.00    +0.000 OA
ATOM     25  H   UNL     1       9.902  37.053  11.329  0.00  0.00    +0.000 HD
ENDBRANCH   8  24
BRANCH  10  26
ATOM     26  O   UNL     1      12.860  36.829   6.971  0.00  0.00    +0.000 OA
ATOM     27  H   UNL     1      13.495  37.512   6.691  0.00  0.00    +0.000 HD
ENDBRANCH  10  26
TORSDOF 6
ENDMDL
