MODEL 1
REMARK VINA RESULT:      -6.6      0.000      0.000
REMARK  Name = 
REMARK  14 active torsions:
REMARK  status: ('A' for Active; 'I' for Inactive)
REMARK    1  A    between atoms: O_1  and  C_24
REMARK    2  A    between atoms: O_1  and  C_36
REMARK    3  A    between atoms: O_4  and  C_30
REMARK    4  A    between atoms: O_4  and  C_37
REMARK    5  A    between atoms: O_7  and  C_33
REMARK    6  A    between atoms: O_7  and  C_38
REMARK    7  A    between atoms: N_10  and  C_23
REMARK    8  A    between atoms: C_15  and  C_26
REMARK    9  A    between atoms: C_16  and  C_24
REMARK   10  A    between atoms: C_31  and  C_34
REMARK   11  A    between atoms: C_32  and  C_35
REMARK   12  A    between atoms: C_36  and  C_39
REMARK   13  A    between atoms: C_39  and  C_40
REMARK   14  A    between atoms: C_41  and  C_42
REMARK                            x       y       z     vdW  Elec       q    Type
REMARK                         _______ _______ _______ _____ _____    ______ ____
ROOT
ATOM      1  O   UNL     1      -1.870  46.469  26.215  0.00  0.00    +0.000 OA
ATOM      2  O   UNL     1      -6.058  49.712  26.677  0.00  0.00    +0.000 OA
ATOM      3  O   UNL     1      -0.672  44.034  30.008  0.00  0.00    +0.000 OA
ATOM      4  O   UNL     1      -2.185  47.103  34.078  0.00  0.00    +0.000 OA
ATOM      5  N   UNL     1      -2.421  48.797  30.176  0.00  0.00    +0.000 NA
ATOM      6  N   UNL     1      -1.219  50.206  27.896  0.00  0.00    +0.000 NA
ATOM      7  C   UNL     1      -1.383  48.177  29.312  0.00  0.00    +0.000 C 
ATOM      8  C   UNL     1      -1.447  48.734  27.826  0.00  0.00    +0.000 C 
ATOM      9  C   UNL     1      -2.346  50.829  28.637  0.00  0.00    +0.000 C 
ATOM     10  C   UNL     1      -2.369  50.294  30.118  0.00  0.00    +0.000 C 
ATOM     11  C   UNL     1      -2.532  48.259  31.560  0.00  0.00    +0.000 C 
ATOM     12  C   UNL     1      -1.494  46.638  29.339  0.00  0.00    +0.000 C 
ATOM     13  C   UNL     1      -3.713  50.583  27.939  0.00  0.00    +0.000 C 
ATOM     14  C   UNL     1      -2.780  48.410  27.166  0.00  0.00    +0.000 C 
ATOM     15  C   UNL     1      -3.821  49.251  27.240  0.00  0.00    +0.000 C 
ATOM     16  C   UNL     1      -1.973  46.858  31.751  0.00  0.00    +0.000 C 
ATOM     17  C   UNL     1      -1.521  46.106  30.739  0.00  0.00    +0.000 C 
ATOM     18  C   UNL     1      -0.947  50.819  26.600  0.00  0.00    +0.000 C 
ATOM     19  C   UNL     1      -2.872  47.157  26.382  0.00  0.00    +0.000 C 
ATOM     20  C   UNL     1      -5.117  48.928  26.608  0.00  0.00    +0.000 C 
ATOM     21  C   UNL     1      -1.031  44.726  30.954  0.00  0.00    +0.000 C 
ATOM     22  C   UNL     1      -1.894  46.358  33.148  0.00  0.00    +0.000 C 
ATOM     23  C   UNL     1      -4.209  46.777  25.818  0.00  0.00    +0.000 C 
ATOM     24  C   UNL     1      -5.247  47.624  25.908  0.00  0.00    +0.000 C 
ATOM     25  C   UNL     1      -1.023  44.195  32.340  0.00  0.00    +0.000 C 
ATOM     26  C   UNL     1      -1.444  44.944  33.371  0.00  0.00    +0.000 C 
ATOM     27  C   UNL     1      -6.604  47.352  25.327  0.00  0.00    +0.000 C 
ATOM     28  C   UNL     1      -0.519  42.787  32.474  0.00  0.00    +0.000 C 
ENDROOT
BRANCH  23  29
ATOM     29  O   UNL     1      -4.380  45.576  25.138  0.00  0.00    +0.000 OA
ATOM     30  C   UNL     1      -4.579  44.429  25.960  0.00  0.00    +0.000 C 
ENDBRANCH  23  29
BRANCH  26  31
ATOM     31  O   UNL     1      -1.396  44.411  34.655  0.00  0.00    +0.000 OA
ATOM     32  C   UNL     1      -0.224  44.739  35.400  0.00  0.00    +0.000 C 
ENDBRANCH  26  31
BRANCH  10  34
ATOM     33  N   UNL     1      -0.356  51.370  31.470  0.00  0.00    +0.000 NA
ATOM     34  C   UNL     1      -1.226  50.902  30.860  0.00  0.00    +0.000 C 
ENDBRANCH  10  34
BRANCH  11  35
ATOM     35  C   UNL     1      -4.040  48.287  31.952  0.00  0.00    +0.000 C 
BRANCH  35  36
ATOM     36  O   UNL     1      -4.842  48.218  30.755  0.00  0.00    +0.000 OA
BRANCH  36  38
ATOM     37  O   UNL     1      -6.674  47.619  31.992  0.00  0.00    +0.000 OA
ATOM     38  C   UNL     1      -6.081  47.703  30.929  0.00  0.00    +0.000 C 
BRANCH  38  39
ATOM     39  C   UNL     1      -6.699  47.366  29.614  0.00  0.00    +0.000 C 
ATOM     40  C   UNL     1      -6.077  46.166  28.956  0.00  0.00    +0.000 C 
ATOM     41  C   UNL     1      -7.704  48.052  29.036  0.00  0.00    +0.000 C 
ATOM     42  C   UNL     1      -8.358  49.313  29.505  0.00  0.00    +0.000 C 
ENDBRANCH  38  39
ENDBRANCH  36  38
ENDBRANCH  35  36
ENDBRANCH  11  35
TORSDOF 7
ENDMDL
MODEL 2
REMARK VINA RESULT:      -6.1     28.036     30.696
REMARK  Name = 
REMARK  14 active torsions:
REMARK  status: ('A' for Active; 'I' for Inactive)
REMARK    1  A    between atoms: O_1  and  C_24
REMARK    2  A    between atoms: O_1  and  C_36
REMARK    3  A    between atoms: O_4  and  C_30
REMARK    4  A    between atoms: O_4  and  C_37
REMARK    5  A    between atoms: O_7  and  C_33
REMARK    6  A    between atoms: O_7  and  C_38
REMARK    7  A    between atoms: N_10  and  C_23
REMARK    8  A    between atoms: C_15  and  C_26
REMARK    9  A    between atoms: C_16  and  C_24
REMARK   10  A    between atoms: C_31  and  C_34
REMARK   11  A    between atoms: C_32  and  C_35
REMARK   12  A    between atoms: C_36  and  C_39
REMARK   13  A    between atoms: C_39  and  C_40
REMARK   14  A    between atoms: C_41  and  C_42
REMARK                            x       y       z     vdW  Elec       q    Type
REMARK                         _______ _______ _______ _____ _____    ______ ____
ROOT
ATOM      1  O   UNL     1     -19.955  38.987   1.529  0.00  0.00    +0.000 OA
ATOM      2  O   UNL     1     -21.617  41.103   6.114  0.00  0.00    +0.000 OA
ATOM      3  O   UNL     1     -16.687  35.672   1.808  0.00  0.00    +0.000 OA
ATOM      4  O   UNL     1     -13.950  36.885   6.203  0.00  0.00    +0.000 OA
ATOM      5  N   UNL     1     -16.837  39.720   4.869  0.00  0.00    +0.000 NA
ATOM      6  N   UNL     1     -17.638  41.998   3.197  0.00  0.00    +0.000 NA
ATOM      7  C   UNL     1     -16.976  39.617   3.393  0.00  0.00    +0.000 C 
ATOM      8  C   UNL     1     -18.075  40.619   2.835  0.00  0.00    +0.000 C 
ATOM      9  C   UNL     1     -17.649  42.129   4.677  0.00  0.00    +0.000 C 
ATOM     10  C   UNL     1     -16.604  41.134   5.306  0.00  0.00    +0.000 C 
ATOM     11  C   UNL     1     -15.922  38.738   5.514  0.00  0.00    +0.000 C 
ATOM     12  C   UNL     1     -17.277  38.163   2.970  0.00  0.00    +0.000 C 
ATOM     13  C   UNL     1     -19.064  41.897   5.275  0.00  0.00    +0.000 C 
ATOM     14  C   UNL     1     -19.453  40.307   3.401  0.00  0.00    +0.000 C 
ATOM     15  C   UNL     1     -19.892  40.879   4.531  0.00  0.00    +0.000 C 
ATOM     16  C   UNL     1     -15.664  37.475   4.707  0.00  0.00    +0.000 C 
ATOM     17  C   UNL     1     -16.297  37.197   3.561  0.00  0.00    +0.000 C 
ATOM     18  C   UNL     1     -18.376  43.048   2.500  0.00  0.00    +0.000 C 
ATOM     19  C   UNL     1     -20.324  39.393   2.626  0.00  0.00    +0.000 C 
ATOM     20  C   UNL     1     -21.226  40.565   5.084  0.00  0.00    +0.000 C 
ATOM     21  C   UNL     1     -16.059  35.933   2.828  0.00  0.00    +0.000 C 
ATOM     22  C   UNL     1     -14.617  36.558   5.226  0.00  0.00    +0.000 C 
ATOM     23  C   UNL     1     -21.640  38.997   3.228  0.00  0.00    +0.000 C 
ATOM     24  C   UNL     1     -22.063  39.569   4.367  0.00  0.00    +0.000 C 
ATOM     25  C   UNL     1     -15.068  34.979   3.384  0.00  0.00    +0.000 C 
ATOM     26  C   UNL     1     -14.403  35.253   4.518  0.00  0.00    +0.000 C 
ATOM     27  C   UNL     1     -23.387  39.275   5.011  0.00  0.00    +0.000 C 
ATOM     28  C   UNL     1     -14.889  33.718   2.589  0.00  0.00    +0.000 C 
ENDROOT
BRANCH  23  29
ATOM     29  O   UNL     1     -22.469  38.083   2.588  0.00  0.00    +0.000 OA
ATOM     30  C   UNL     1     -23.274  38.615   1.539  0.00  0.00    +0.000 C 
ENDBRANCH  23  29
BRANCH  26  31
ATOM     31  O   UNL     1     -13.466  34.338   4.987  0.00  0.00    +0.000 OA
ATOM     32  C   UNL     1     -12.110  34.649   4.674  0.00  0.00    +0.000 C 
ENDBRANCH  26  31
BRANCH  10  34
ATOM     33  N   UNL     1     -14.149  42.015   4.821  0.00  0.00    +0.000 NA
ATOM     34  C   UNL     1     -15.231  41.649   5.028  0.00  0.00    +0.000 C 
ENDBRANCH  10  34
BRANCH  11  35
ATOM     35  C   UNL     1     -16.534  38.369   6.899  0.00  0.00    +0.000 C 
BRANCH  35  36
ATOM     36  O   UNL     1     -17.972  38.335   6.787  0.00  0.00    +0.000 OA
BRANCH  36  38
ATOM     37  O   UNL     1     -18.030  36.303   7.844  0.00  0.00    +0.000 OA
ATOM     38  C   UNL     1     -18.542  37.159   7.140  0.00  0.00    +0.000 C 
BRANCH  38  39
ATOM     39  C   UNL     1     -19.954  37.096   6.664  0.00  0.00    +0.000 C 
ATOM     40  C   UNL     1     -20.923  37.775   7.590  0.00  0.00    +0.000 C 
ATOM     41  C   UNL     1     -20.359  36.487   5.532  0.00  0.00    +0.000 C 
ATOM     42  C   UNL     1     -19.545  35.688   4.564  0.00  0.00    +0.000 C 
ENDBRANCH  38  39
ENDBRANCH  36  38
ENDBRANCH  35  36
ENDBRANCH  11  35
TORSDOF 7
ENDMDL
MODEL 3
REMARK VINA RESULT:      -6.1     27.962     31.394
REMARK  Name = 
REMARK  14 active torsions:
REMARK  status: ('A' for Active; 'I' for Inactive)
REMARK    1  A    between atoms: O_1  and  C_24
REMARK    2  A    between atoms: O_1  and  C_36
REMARK    3  A    between atoms: O_4  and  C_30
REMARK    4  A    between atoms: O_4  and  C_37
REMARK    5  A    between atoms: O_7  and  C_33
REMARK    6  A    between atoms: O_7  and  C_38
REMARK    7  A    between atoms: N_10  and  C_23
REMARK    8  A    between atoms: C_15  and  C_26
REMARK    9  A    between atoms: C_16  and  C_24
REMARK   10  A    between atoms: C_31  and  C_34
REMARK   11  A    between atoms: C_32  and  C_35
REMARK   12  A    between atoms: C_36  and  C_39
REMARK   13  A    between atoms: C_39  and  C_40
REMARK   14  A    between atoms: C_41  and  C_42
REMARK                            x       y       z     vdW  Elec       q    Type
REMARK                         _______ _______ _______ _____ _____    ______ ____
ROOT
ATOM      1  O   UNL     1     -16.635  38.802   1.830  0.00  0.00    +0.000 OA
ATOM      2  O   UNL     1     -15.397  41.906   5.965  0.00  0.00    +0.000 OA
ATOM      3  O   UNL     1     -21.122  37.624   1.358  0.00  0.00    +0.000 OA
ATOM      4  O   UNL     1     -23.014  37.611   6.327  0.00  0.00    +0.000 OA
ATOM      5  N   UNL     1     -18.804  38.074   5.852  0.00  0.00    +0.000 NA
ATOM      6  N   UNL     1     -16.107  36.963   5.513  0.00  0.00    +0.000 NA
ATOM      7  C   UNL     1     -18.376  37.386   4.607  0.00  0.00    +0.000 C 
ATOM      8  C   UNL     1     -16.819  37.559   4.346  0.00  0.00    +0.000 C 
ATOM      9  C   UNL     1     -16.430  37.756   6.726  0.00  0.00    +0.000 C 
ATOM     10  C   UNL     1     -17.973  37.661   7.028  0.00  0.00    +0.000 C 
ATOM     11  C   UNL     1     -20.268  38.080   6.130  0.00  0.00    +0.000 C 
ATOM     12  C   UNL     1     -19.204  37.871   3.398  0.00  0.00    +0.000 C 
ATOM     13  C   UNL     1     -15.984  39.239   6.593  0.00  0.00    +0.000 C 
ATOM     14  C   UNL     1     -16.445  39.023   4.157  0.00  0.00    +0.000 C 
ATOM     15  C   UNL     1     -16.084  39.793   5.194  0.00  0.00    +0.000 C 
ATOM     16  C   UNL     1     -21.153  37.864   4.913  0.00  0.00    +0.000 C 
ATOM     17  C   UNL     1     -20.677  37.793   3.664  0.00  0.00    +0.000 C 
ATOM     18  C   UNL     1     -14.677  36.770   5.290  0.00  0.00    +0.000 C 
ATOM     19  C   UNL     1     -16.432  39.557   2.776  0.00  0.00    +0.000 C 
ATOM     20  C   UNL     1     -15.733  41.217   5.009  0.00  0.00    +0.000 C 
ATOM     21  C   UNL     1     -21.573  37.634   2.498  0.00  0.00    +0.000 C 
ATOM     22  C   UNL     1     -22.605  37.678   5.172  0.00  0.00    +0.000 C 
ATOM     23  C   UNL     1     -16.169  41.021   2.590  0.00  0.00    +0.000 C 
ATOM     24  C   UNL     1     -15.820  41.785   3.638  0.00  0.00    +0.000 C 
ATOM     25  C   UNL     1     -23.031  37.524   2.746  0.00  0.00    +0.000 C 
ATOM     26  C   UNL     1     -23.526  37.564   3.994  0.00  0.00    +0.000 C 
ATOM     27  C   UNL     1     -15.485  43.245   3.539  0.00  0.00    +0.000 C 
ATOM     28  C   UNL     1     -23.874  37.372   1.513  0.00  0.00    +0.000 C 
ENDROOT
BRANCH  23  29
ATOM     29  O   UNL     1     -16.219  41.600   1.327  0.00  0.00    +0.000 OA
ATOM     30  C   UNL     1     -15.037  41.461   0.542  0.00  0.00    +0.000 C 
ENDBRANCH  23  29
BRANCH  26  31
ATOM     31  O   UNL     1     -24.899  37.433   4.179  0.00  0.00    +0.000 OA
ATOM     32  C   UNL     1     -25.597  38.658   4.395  0.00  0.00    +0.000 C 
ENDBRANCH  26  31
BRANCH  10  34
ATOM     33  N   UNL     1     -18.504  35.217   7.914  0.00  0.00    +0.000 NA
ATOM     34  C   UNL     1     -18.271  36.293   7.547  0.00  0.00    +0.000 C 
ENDBRANCH  10  34
BRANCH  11  35
ATOM     35  C   UNL     1     -20.610  39.444   6.801  0.00  0.00    +0.000 C 
BRANCH  35  36
ATOM     36  O   UNL     1     -19.829  40.487   6.180  0.00  0.00    +0.000 OA
BRANCH  36  38
ATOM     37  O   UNL     1     -21.743  41.508   5.445  0.00  0.00    +0.000 OA
ATOM     38  C   UNL     1     -20.535  41.340   5.402  0.00  0.00    +0.000 C 
BRANCH  38  39
ATOM     39  C   UNL     1     -19.620  42.164   4.561  0.00  0.00    +0.000 C 
ATOM     40  C   UNL     1     -18.811  43.150   5.355  0.00  0.00    +0.000 C 
ATOM     41  C   UNL     1     -19.513  42.073   3.220  0.00  0.00    +0.000 C 
ATOM     42  C   UNL     1     -20.311  41.224   2.281  0.00  0.00    +0.000 C 
ENDBRANCH  38  39
ENDBRANCH  36  38
ENDBRANCH  35  36
ENDBRANCH  11  35
TORSDOF 7
ENDMDL
MODEL 4
REMARK VINA RESULT:      -5.8     28.429     30.922
REMARK  Name = 
REMARK  14 active torsions:
REMARK  status: ('A' for Active; 'I' for Inactive)
REMARK    1  A    between atoms: O_1  and  C_24
REMARK    2  A    between atoms: O_1  and  C_36
REMARK    3  A    between atoms: O_4  and  C_30
REMARK    4  A    between atoms: O_4  and  C_37
REMARK    5  A    between atoms: O_7  and  C_33
REMARK    6  A    between atoms: O_7  and  C_38
REMARK    7  A    between atoms: N_10  and  C_23
REMARK    8  A    between atoms: C_15  and  C_26
REMARK    9  A    between atoms: C_16  and  C_24
REMARK   10  A    between atoms: C_31  and  C_34
REMARK   11  A    between atoms: C_32  and  C_35
REMARK   12  A    between atoms: C_36  and  C_39
REMARK   13  A    between atoms: C_39  and  C_40
REMARK   14  A    between atoms: C_41  and  C_42
REMARK                            x       y       z     vdW  Elec       q    Type
REMARK                         _______ _______ _______ _____ _____    ______ ____
ROOT
ATOM      1  O   UNL     1     -16.448  40.085   6.516  0.00  0.00    +0.000 OA
ATOM      2  O   UNL     1     -20.678  40.045   3.295  0.00  0.00    +0.000 OA
ATOM      3  O   UNL     1     -13.294  36.710   5.881  0.00  0.00    +0.000 OA
ATOM      4  O   UNL     1     -16.106  32.615   3.984  0.00  0.00    +0.000 OA
ATOM      5  N   UNL     1     -18.294  36.001   5.362  0.00  0.00    +0.000 NA
ATOM      6  N   UNL     1     -19.581  37.547   7.502  0.00  0.00    +0.000 NA
ATOM      7  C   UNL     1     -17.519  36.680   6.433  0.00  0.00    +0.000 C 
ATOM      8  C   UNL     1     -18.261  37.981   6.960  0.00  0.00    +0.000 C 
ATOM      9  C   UNL     1     -20.400  37.008   6.388  0.00  0.00    +0.000 C 
ATOM     10  C   UNL     1     -19.705  35.729   5.787  0.00  0.00    +0.000 C 
ATOM     11  C   UNL     1     -17.634  34.837   4.708  0.00  0.00    +0.000 C 
ATOM     12  C   UNL     1     -16.089  37.005   5.952  0.00  0.00    +0.000 C 
ATOM     13  C   UNL     1     -20.657  38.069   5.282  0.00  0.00    +0.000 C 
ATOM     14  C   UNL     1     -18.427  39.014   5.855  0.00  0.00    +0.000 C 
ATOM     15  C   UNL     1     -19.518  39.036   5.075  0.00  0.00    +0.000 C 
ATOM     16  C   UNL     1     -16.118  34.808   4.830  0.00  0.00    +0.000 C 
ATOM     17  C   UNL     1     -15.408  35.803   5.373  0.00  0.00    +0.000 C 
ATOM     18  C   UNL     1     -20.253  38.572   8.295  0.00  0.00    +0.000 C 
ATOM     19  C   UNL     1     -17.370  40.040   5.707  0.00  0.00    +0.000 C 
ATOM     20  C   UNL     1     -19.672  40.033   3.995  0.00  0.00    +0.000 C 
ATOM     21  C   UNL     1     -13.930  35.764   5.428  0.00  0.00    +0.000 C 
ATOM     22  C   UNL     1     -15.438  33.574   4.356  0.00  0.00    +0.000 C 
ATOM     23  C   UNL     1     -17.473  40.996   4.556  0.00  0.00    +0.000 C 
ATOM     24  C   UNL     1     -18.565  41.000   3.774  0.00  0.00    +0.000 C 
ATOM     25  C   UNL     1     -13.242  34.566   4.886  0.00  0.00    +0.000 C 
ATOM     26  C   UNL     1     -13.938  33.545   4.363  0.00  0.00    +0.000 C 
ATOM     27  C   UNL     1     -18.779  41.954   2.636  0.00  0.00    +0.000 C 
ATOM     28  C   UNL     1     -11.743  34.605   4.971  0.00  0.00    +0.000 C 
ENDROOT
BRANCH  23  29
ATOM     29  O   UNL     1     -16.474  41.933   4.316  0.00  0.00    +0.000 OA
ATOM     30  C   UNL     1     -16.537  43.114   5.112  0.00  0.00    +0.000 C 
ENDBRANCH  23  29
BRANCH  26  31
ATOM     31  O   UNL     1     -13.250  32.433   3.889  0.00  0.00    +0.000 OA
ATOM     32  C   UNL     1     -13.115  31.363   4.823  0.00  0.00    +0.000 C 
ENDBRANCH  26  31
BRANCH  10  34
ATOM     33  N   UNL     1     -19.931  33.742   7.531  0.00  0.00    +0.000 NA
ATOM     34  C   UNL     1     -19.852  34.607   6.761  0.00  0.00    +0.000 C 
ENDBRANCH  10  34
BRANCH  11  35
ATOM     35  C   UNL     1     -18.047  34.849   3.206  0.00  0.00    +0.000 C 
BRANCH  35  36
ATOM     36  O   UNL     1     -18.052  36.210   2.727  0.00  0.00    +0.000 OA
BRANCH  36  38
ATOM     37  O   UNL     1     -17.722  36.243   0.461  0.00  0.00    +0.000 OA
ATOM     38  C   UNL     1     -17.329  36.420   1.602  0.00  0.00    +0.000 C 
BRANCH  38  39
ATOM     39  C   UNL     1     -16.012  37.035   1.932  0.00  0.00    +0.000 C 
ATOM     40  C   UNL     1     -16.128  38.422   2.498  0.00  0.00    +0.000 C 
ATOM     41  C   UNL     1     -14.815  36.444   1.741  0.00  0.00    +0.000 C 
ATOM     42  C   UNL     1     -14.524  35.123   1.102  0.00  0.00    +0.000 C 
ENDBRANCH  38  39
ENDBRANCH  36  38
ENDBRANCH  35  36
ENDBRANCH  11  35
TORSDOF 7
ENDMDL
MODEL 5
REMARK VINA RESULT:      -5.8     28.141     31.451
REMARK  Name = 
REMARK  14 active torsions:
REMARK  status: ('A' for Active; 'I' for Inactive)
REMARK    1  A    between atoms: O_1  and  C_24
REMARK    2  A    between atoms: O_1  and  C_36
REMARK    3  A    between atoms: O_4  and  C_30
REMARK    4  A    between atoms: O_4  and  C_37
REMARK    5  A    between atoms: O_7  and  C_33
REMARK    6  A    between atoms: O_7  and  C_38
REMARK    7  A    between atoms: N_10  and  C_23
REMARK    8  A    between atoms: C_15  and  C_26
REMARK    9  A    between atoms: C_16  and  C_24
REMARK   10  A    between atoms: C_31  and  C_34
REMARK   11  A    between atoms: C_32  and  C_35
REMARK   12  A    between atoms: C_36  and  C_39
REMARK   13  A    between atoms: C_39  and  C_40
REMARK   14  A    between atoms: C_41  and  C_42
REMARK                            x       y       z     vdW  Elec       q    Type
REMARK                         _______ _______ _______ _____ _____    ______ ____
ROOT
ATOM      1  O   UNL     1     -17.952  37.812   2.177  0.00  0.00    +0.000 OA
ATOM      2  O   UNL     1     -16.814  38.067   7.364  0.00  0.00    +0.000 OA
ATOM      3  O   UNL     1     -18.305  41.868  -0.097  0.00  0.00    +0.000 OA
ATOM      4  O   UNL     1     -19.960  45.314   3.599  0.00  0.00    +0.000 OA
ATOM      5  N   UNL     1     -19.872  41.194   4.685  0.00  0.00    +0.000 NA
ATOM      6  N   UNL     1     -21.094  38.526   4.792  0.00  0.00    +0.000 NA
ATOM      7  C   UNL     1     -20.086  40.365   3.470  0.00  0.00    +0.000 C 
ATOM      8  C   UNL     1     -20.019  38.813   3.799  0.00  0.00    +0.000 C 
ATOM      9  C   UNL     1     -20.783  39.246   6.053  0.00  0.00    +0.000 C 
ATOM     10  C   UNL     1     -20.796  40.799   5.795  0.00  0.00    +0.000 C 
ATOM     11  C   UNL     1     -19.792  42.666   4.471  0.00  0.00    +0.000 C 
ATOM     12  C   UNL     1     -19.083  40.747   2.361  0.00  0.00    +0.000 C 
ATOM     13  C   UNL     1     -19.427  38.798   6.665  0.00  0.00    +0.000 C 
ATOM     14  C   UNL     1     -18.650  38.415   4.332  0.00  0.00    +0.000 C 
ATOM     15  C   UNL     1     -18.378  38.431   5.646  0.00  0.00    +0.000 C 
ATOM     16  C   UNL     1     -19.422  43.091   3.058  0.00  0.00    +0.000 C 
ATOM     17  C   UNL     1     -19.075  42.223   2.100  0.00  0.00    +0.000 C 
ATOM     18  C   UNL     1     -21.361  37.102   4.969  0.00  0.00    +0.000 C 
ATOM     19  C   UNL     1     -17.640  37.947   3.356  0.00  0.00    +0.000 C 
ATOM     20  C   UNL     1     -17.044  38.055   6.160  0.00  0.00    +0.000 C 
ATOM     21  C   UNL     1     -18.671  42.675   0.751  0.00  0.00    +0.000 C 
ATOM     22  C   UNL     1     -19.513  44.543   2.756  0.00  0.00    +0.000 C 
ATOM     23  C   UNL     1     -16.258  37.654   3.858  0.00  0.00    +0.000 C 
ATOM     24  C   UNL     1     -15.995  37.685   5.175  0.00  0.00    +0.000 C 
ATOM     25  C   UNL     1     -18.687  44.131   0.467  0.00  0.00    +0.000 C 
ATOM     26  C   UNL     1     -19.061  45.016   1.406  0.00  0.00    +0.000 C 
ATOM     27  C   UNL     1     -14.658  37.354   5.772  0.00  0.00    +0.000 C 
ATOM     28  C   UNL     1     -18.258  44.511  -0.921  0.00  0.00    +0.000 C 
ENDROOT
BRANCH  23  29
ATOM     29  O   UNL     1     -15.244  37.285   2.981  0.00  0.00    +0.000 OA
ATOM     30  C   UNL     1     -15.210  35.905   2.628  0.00  0.00    +0.000 C 
ENDBRANCH  23  29
BRANCH  26  31
ATOM     31  O   UNL     1     -19.082  46.369   1.086  0.00  0.00    +0.000 OA
ATOM     32  C   UNL     1     -20.352  46.870   0.671  0.00  0.00    +0.000 C 
ENDBRANCH  26  31
BRANCH  10  34
ATOM     33  N   UNL     1     -23.305  41.606   5.488  0.00  0.00    +0.000 NA
ATOM     34  C   UNL     1     -22.211  41.238   5.608  0.00  0.00    +0.000 C 
ENDBRANCH  10  34
BRANCH  11  35
ATOM     35  C   UNL     1     -18.751  43.229   5.485  0.00  0.00    +0.000 C 
BRANCH  35  36
ATOM     36  O   UNL     1     -17.550  42.430   5.424  0.00  0.00    +0.000 OA
BRANCH  36  38
ATOM     37  O   UNL     1     -16.313  44.237   4.752  0.00  0.00    +0.000 OA
ATOM     38  C   UNL     1     -16.496  43.033   4.826  0.00  0.00    +0.000 C 
BRANCH  38  39
ATOM     39  C   UNL     1     -15.498  42.021   4.376  0.00  0.00    +0.000 C 
ATOM     40  C   UNL     1     -15.032  41.115   5.482  0.00  0.00    +0.000 C 
ATOM     41  C   UNL     1     -15.026  41.908   3.119  0.00  0.00    +0.000 C 
ATOM     42  C   UNL     1     -15.307  42.784   1.940  0.00  0.00    +0.000 C 
ENDBRANCH  38  39
ENDBRANCH  36  38
ENDBRANCH  35  36
ENDBRANCH  11  35
TORSDOF 7
ENDMDL
MODEL 6
REMARK VINA RESULT:      -5.7     15.406     18.838
REMARK  Name = 
REMARK  14 active torsions:
REMARK  status: ('A' for Active; 'I' for Inactive)
REMARK    1  A    between atoms: O_1  and  C_24
REMARK    2  A    between atoms: O_1  and  C_36
REMARK    3  A    between atoms: O_4  and  C_30
REMARK    4  A    between atoms: O_4  and  C_37
REMARK    5  A    between atoms: O_7  and  C_33
REMARK    6  A    between atoms: O_7  and  C_38
REMARK    7  A    between atoms: N_10  and  C_23
REMARK    8  A    between atoms: C_15  and  C_26
REMARK    9  A    between atoms: C_16  and  C_24
REMARK   10  A    between atoms: C_31  and  C_34
REMARK   11  A    between atoms: C_32  and  C_35
REMARK   12  A    between atoms: C_36  and  C_39
REMARK   13  A    between atoms: C_39  and  C_40
REMARK   14  A    between atoms: C_41  and  C_42
REMARK                            x       y       z     vdW  Elec       q    Type
REMARK                         _______ _______ _______ _____ _____    ______ ____
ROOT
ATOM      1  O   UNL     1       4.796  60.270  17.577  0.00  0.00    +0.000 OA
ATOM      2  O   UNL     1       2.519  56.813  20.913  0.00  0.00    +0.000 OA
ATOM      3  O   UNL     1       6.143  58.611  13.432  0.00  0.00    +0.000 OA
ATOM      4  O   UNL     1       7.283  53.502  14.362  0.00  0.00    +0.000 OA
ATOM      5  N   UNL     1       6.462  55.956  17.747  0.00  0.00    +0.000 NA
ATOM      6  N   UNL     1       7.304  57.849  19.829  0.00  0.00    +0.000 NA
ATOM      7  C   UNL     1       6.854  57.356  17.441  0.00  0.00    +0.000 C 
ATOM      8  C   UNL     1       6.531  58.334  18.650  0.00  0.00    +0.000 C 
ATOM      9  C   UNL     1       6.794  56.508  20.214  0.00  0.00    +0.000 C 
ATOM     10  C   UNL     1       7.049  55.486  19.043  0.00  0.00    +0.000 C 
ATOM     11  C   UNL     1       6.607  54.974  16.637  0.00  0.00    +0.000 C 
ATOM     12  C   UNL     1       6.190  57.839  16.135  0.00  0.00    +0.000 C 
ATOM     13  C   UNL     1       5.290  56.541  20.602  0.00  0.00    +0.000 C 
ATOM     14  C   UNL     1       5.038  58.381  18.945  0.00  0.00    +0.000 C 
ATOM     15  C   UNL     1       4.472  57.541  19.825  0.00  0.00    +0.000 C 
ATOM     16  C   UNL     1       6.630  55.580  15.243  0.00  0.00    +0.000 C 
ATOM     17  C   UNL     1       6.416  56.880  15.006  0.00  0.00    +0.000 C 
ATOM     18  C   UNL     1       7.354  58.806  20.930  0.00  0.00    +0.000 C 
ATOM     19  C   UNL     1       4.237  59.428  18.273  0.00  0.00    +0.000 C 
ATOM     20  C   UNL     1       3.021  57.581  20.100  0.00  0.00    +0.000 C 
ATOM     21  C   UNL     1       6.393  57.428  13.632  0.00  0.00    +0.000 C 
ATOM     22  C   UNL     1       6.958  54.660  14.123  0.00  0.00    +0.000 C 
ATOM     23  C   UNL     1       2.750  59.415  18.476  0.00  0.00    +0.000 C 
ATOM     24  C   UNL     1       2.194  58.562  19.350  0.00  0.00    +0.000 C 
ATOM     25  C   UNL     1       6.646  56.497  12.504  0.00  0.00    +0.000 C 
ATOM     26  C   UNL     1       6.891  55.195  12.723  0.00  0.00    +0.000 C 
ATOM     27  C   UNL     1       0.725  58.515  19.658  0.00  0.00    +0.000 C 
ATOM     28  C   UNL     1       6.599  57.125  11.142  0.00  0.00    +0.000 C 
ENDROOT
BRANCH  23  29
ATOM     29  O   UNL     1       1.933  60.324  17.813  0.00  0.00    +0.000 OA
ATOM     30  C   UNL     1       1.854  61.620  18.400  0.00  0.00    +0.000 C 
ENDBRANCH  23  29
BRANCH  26  31
ATOM     31  O   UNL     1       7.146  54.365  11.635  0.00  0.00    +0.000 OA
ATOM     32  C   UNL     1       8.527  54.142  11.357  0.00  0.00    +0.000 C 
ENDBRANCH  26  31
BRANCH  10  34
ATOM     33  N   UNL     1       9.645  54.942  18.980  0.00  0.00    +0.000 NA
ATOM     34  C   UNL     1       8.510  55.183  18.986  0.00  0.00    +0.000 C 
ENDBRANCH  10  34
BRANCH  11  35
ATOM     35  C   UNL     1       5.432  53.957  16.755  0.00  0.00    +0.000 C 
BRANCH  35  36
ATOM     36  O   UNL     1       4.241  54.657  17.173  0.00  0.00    +0.000 OA
BRANCH  36  38
ATOM     37  O   UNL     1       2.404  53.436  16.557  0.00  0.00    +0.000 OA
ATOM     38  C   UNL     1       3.140  54.400  16.429  0.00  0.00    +0.000 C 
BRANCH  38  39
ATOM     39  C   UNL     1       2.856  55.534  15.503  0.00  0.00    +0.000 C 
ATOM     40  C   UNL     1       2.355  56.764  16.206  0.00  0.00    +0.000 C 
ATOM     41  C   UNL     1       3.006  55.492  14.164  0.00  0.00    +0.000 C 
ATOM     42  C   UNL     1       3.393  54.327  13.309  0.00  0.00    +0.000 C 
ENDBRANCH  38  39
ENDBRANCH  36  38
ENDBRANCH  35  36
ENDBRANCH  11  35
TORSDOF 7
ENDMDL
MODEL 7
REMARK VINA RESULT:      -5.6      3.262      6.331
REMARK  Name = 
REMARK  14 active torsions:
REMARK  status: ('A' for Active; 'I' for Inactive)
REMARK    1  A    between atoms: O_1  and  C_24
REMARK    2  A    between atoms: O_1  and  C_36
REMARK    3  A    between atoms: O_4  and  C_30
REMARK    4  A    between atoms: O_4  and  C_37
REMARK    5  A    between atoms: O_7  and  C_33
REMARK    6  A    between atoms: O_7  and  C_38
REMARK    7  A    between atoms: N_10  and  C_23
REMARK    8  A    between atoms: C_15  and  C_26
REMARK    9  A    between atoms: C_16  and  C_24
REMARK   10  A    between atoms: C_31  and  C_34
REMARK   11  A    between atoms: C_32  and  C_35
REMARK   12  A    between atoms: C_36  and  C_39
REMARK   13  A    between atoms: C_39  and  C_40
REMARK   14  A    between atoms: C_41  and  C_42
REMARK                            x       y       z     vdW  Elec       q    Type
REMARK                         _______ _______ _______ _____ _____    ______ ____
ROOT
ATOM      1  O   UNL     1      -3.499  47.217  30.830  0.00  0.00    +0.000 OA
ATOM      2  O   UNL     1      -1.883  46.289  25.850  0.00  0.00    +0.000 OA
ATOM      3  O   UNL     1      -2.037  51.178  32.808  0.00  0.00    +0.000 OA
ATOM      4  O   UNL     1       2.653  52.154  30.499  0.00  0.00    +0.000 OA
ATOM      5  N   UNL     1       0.821  48.399  29.664  0.00  0.00    +0.000 NA
ATOM      6  N   UNL     1       0.283  45.586  30.318  0.00  0.00    +0.000 NA
ATOM      7  C   UNL     1      -0.015  47.995  30.825  0.00  0.00    +0.000 C 
ATOM      8  C   UNL     1      -0.764  46.620  30.559  0.00  0.00    +0.000 C 
ATOM      9  C   UNL     1       1.011  45.927  29.069  0.00  0.00    +0.000 C 
ATOM     10  C   UNL     1       1.754  47.304  29.245  0.00  0.00    +0.000 C 
ATOM     11  C   UNL     1       1.473  49.735  29.756  0.00  0.00    +0.000 C 
ATOM     12  C   UNL     1      -1.010  49.113  31.201  0.00  0.00    +0.000 C 
ATOM     13  C   UNL     1       0.070  45.961  27.832  0.00  0.00    +0.000 C 
ATOM     14  C   UNL     1      -1.722  46.727  29.381  0.00  0.00    +0.000 C 
ATOM     15  C   UNL     1      -1.327  46.444  28.130  0.00  0.00    +0.000 C 
ATOM     16  C   UNL     1       0.818  50.703  30.728  0.00  0.00    +0.000 C 
ATOM     17  C   UNL     1      -0.325  50.435  31.371  0.00  0.00    +0.000 C 
ATOM     18  C   UNL     1      -0.225  44.218  30.357  0.00  0.00    +0.000 C 
ATOM     19  C   UNL     1      -3.127  47.094  29.667  0.00  0.00    +0.000 C 
ATOM     20  C   UNL     1      -2.256  46.559  26.986  0.00  0.00    +0.000 C 
ATOM     21  C   UNL     1      -0.962  51.422  32.271  0.00  0.00    +0.000 C 
ATOM     22  C   UNL     1       1.542  51.975  30.988  0.00  0.00    +0.000 C 
ATOM     23  C   UNL     1      -4.051  47.304  28.504  0.00  0.00    +0.000 C 
ATOM     24  C   UNL     1      -3.640  47.029  27.255  0.00  0.00    +0.000 C 
ATOM     25  C   UNL     1      -0.280  52.724  32.474  0.00  0.00    +0.000 C 
ATOM     26  C   UNL     1       0.882  53.001  31.861  0.00  0.00    +0.000 C 
ATOM     27  C   UNL     1      -4.510  47.156  26.039  0.00  0.00    +0.000 C 
ATOM     28  C   UNL     1      -0.992  53.674  33.394  0.00  0.00    +0.000 C 
ENDROOT
BRANCH  23  29
ATOM     29  O   UNL     1      -5.361  47.724  28.702  0.00  0.00    +0.000 OA
ATOM     30  C   UNL     1      -6.282  46.705  29.081  0.00  0.00    +0.000 C 
ENDBRANCH  23  29
BRANCH  26  31
ATOM     31  O   UNL     1       1.495  54.226  32.101  0.00  0.00    +0.000 OA
ATOM     32  C   UNL     1       1.317  55.200  31.075  0.00  0.00    +0.000 C 
ENDBRANCH  26  31
BRANCH  10  34
ATOM     33  N   UNL     1       3.804  46.917  30.884  0.00  0.00    +0.000 NA
ATOM     34  C   UNL     1       2.918  47.102  30.157  0.00  0.00    +0.000 C 
ENDBRANCH  10  34
BRANCH  11  35
ATOM     35  C   UNL     1       1.485  50.348  28.323  0.00  0.00    +0.000 C 
BRANCH  35  36
ATOM     36  O   UNL     1       0.204  50.119  27.699  0.00  0.00    +0.000 OA
BRANCH  36  38
ATOM     37  O   UNL     1       0.147  51.842  26.191  0.00  0.00    +0.000 OA
ATOM     38  C   UNL     1      -0.344  51.207  27.110  0.00  0.00    +0.000 C 
BRANCH  38  39
ATOM     39  C   UNL     1      -1.713  51.461  27.645  0.00  0.00    +0.000 C 
ATOM     40  C   UNL     1      -2.727  50.454  27.180  0.00  0.00    +0.000 C 
ATOM     41  C   UNL     1      -2.048  52.487  28.452  0.00  0.00    +0.000 C 
ATOM     42  C   UNL     1      -1.190  53.620  28.919  0.00  0.00    +0.000 C 
ENDBRANCH  38  39
ENDBRANCH  36  38
ENDBRANCH  35  36
ENDBRANCH  11  35
TORSDOF 7
ENDMDL
MODEL 8
REMARK VINA RESULT:      -5.5     23.715     27.188
REMARK  Name = 
REMARK  14 active torsions:
REMARK  status: ('A' for Active; 'I' for Inactive)
REMARK    1  A    between atoms: O_1  and  C_24
REMARK    2  A    between atoms: O_1  and  C_36
REMARK    3  A    between atoms: O_4  and  C_30
REMARK    4  A    between atoms: O_4  and  C_37
REMARK    5  A    between atoms: O_7  and  C_33
REMARK    6  A    between atoms: O_7  and  C_38
REMARK    7  A    between atoms: N_10  and  C_23
REMARK    8  A    between atoms: C_15  and  C_26
REMARK    9  A    between atoms: C_16  and  C_24
REMARK   10  A    between atoms: C_31  and  C_34
REMARK   11  A    between atoms: C_32  and  C_35
REMARK   12  A    between atoms: C_36  and  C_39
REMARK   13  A    between atoms: C_39  and  C_40
REMARK   14  A    between atoms: C_41  and  C_42
REMARK                            x       y       z     vdW  Elec       q    Type
REMARK                         _______ _______ _______ _____ _____    ______ ____
ROOT
ATOM      1  O   UNL     1     -23.938  39.172  17.125  0.00  0.00    +0.000 OA
ATOM      2  O   UNL     1     -28.298  37.354  19.564  0.00  0.00    +0.000 OA
ATOM      3  O   UNL     1     -23.016  43.720  17.585  0.00  0.00    +0.000 OA
ATOM      4  O   UNL     1     -27.792  45.981  18.181  0.00  0.00    +0.000 OA
ATOM      5  N   UNL     1     -27.715  41.845  17.157  0.00  0.00    +0.000 NA
ATOM      6  N   UNL     1     -27.569  39.677  15.181  0.00  0.00    +0.000 NA
ATOM      7  C   UNL     1     -26.483  41.560  16.375  0.00  0.00    +0.000 C 
ATOM      8  C   UNL     1     -26.371  40.021  15.999  0.00  0.00    +0.000 C 
ATOM      9  C   UNL     1     -28.782  39.825  16.025  0.00  0.00    +0.000 C 
ATOM     10  C   UNL     1     -28.941  41.328  16.469  0.00  0.00    +0.000 C 
ATOM     11  C   UNL     1     -27.861  43.237  17.669  0.00  0.00    +0.000 C 
ATOM     12  C   UNL     1     -25.228  42.046  17.130  0.00  0.00    +0.000 C 
ATOM     13  C   UNL     1     -28.754  38.884  17.261  0.00  0.00    +0.000 C 
ATOM     14  C   UNL     1     -26.279  39.148  17.243  0.00  0.00    +0.000 C 
ATOM     15  C   UNL     1     -27.377  38.648  17.830  0.00  0.00    +0.000 C 
ATOM     16  C   UNL     1     -26.562  44.017  17.786  0.00  0.00    +0.000 C 
ATOM     17  C   UNL     1     -25.358  43.474  17.566  0.00  0.00    +0.000 C 
ATOM     18  C   UNL     1     -27.466  38.387  14.506  0.00  0.00    +0.000 C 
ATOM     19  C   UNL     1     -24.930  38.816  17.753  0.00  0.00    +0.000 C 
ATOM     20  C   UNL     1     -27.286  37.811  19.045  0.00  0.00    +0.000 C 
ATOM     21  C   UNL     1     -24.111  44.250  17.740  0.00  0.00    +0.000 C 
ATOM     22  C   UNL     1     -26.682  45.462  18.113  0.00  0.00    +0.000 C 
ATOM     23  C   UNL     1     -24.832  38.046  19.037  0.00  0.00    +0.000 C 
ATOM     24  C   UNL     1     -25.940  37.561  19.621  0.00  0.00    +0.000 C 
ATOM     25  C   UNL     1     -24.223  45.674  18.141  0.00  0.00    +0.000 C 
ATOM     26  C   UNL     1     -25.423  46.245  18.338  0.00  0.00    +0.000 C 
ATOM     27  C   UNL     1     -25.934  36.735  20.875  0.00  0.00    +0.000 C 
ATOM     28  C   UNL     1     -22.914  46.391  18.304  0.00  0.00    +0.000 C 
ENDROOT
BRANCH  23  29
ATOM     29  O   UNL     1     -23.596  37.769  19.609  0.00  0.00    +0.000 OA
ATOM     30  C   UNL     1     -22.857  36.717  18.993  0.00  0.00    +0.000 C 
ENDBRANCH  23  29
BRANCH  26  31
ATOM     31  O   UNL     1     -25.478  47.589  18.691  0.00  0.00    +0.000 OA
ATOM     32  C   UNL     1     -25.665  48.491  17.602  0.00  0.00    +0.000 C 
ENDBRANCH  26  31
BRANCH  10  34
ATOM     33  N   UNL     1     -29.691  42.784  14.382  0.00  0.00    +0.000 NA
ATOM     34  C   UNL     1     -29.371  42.129  15.285  0.00  0.00    +0.000 C 
ENDBRANCH  10  34
BRANCH  11  35
ATOM     35  C   UNL     1     -28.558  43.152  19.060  0.00  0.00    +0.000 C 
BRANCH  35  36
ATOM     36  O   UNL     1     -28.001  42.045  19.801  0.00  0.00    +0.000 OA
BRANCH  36  38
ATOM     37  O   UNL     1     -28.263  42.463  22.038  0.00  0.00    +0.000 OA
ATOM     38  C   UNL     1     -27.564  42.356  21.043  0.00  0.00    +0.000 C 
BRANCH  38  39
ATOM     39  C   UNL     1     -26.075  42.421  21.075  0.00  0.00    +0.000 C 
ATOM     40  C   UNL     1     -25.417  41.096  20.806  0.00  0.00    +0.000 C 
ATOM     41  C   UNL     1     -25.356  43.532  21.329  0.00  0.00    +0.000 C 
ATOM     42  C   UNL     1     -25.852  44.891  21.712  0.00  0.00    +0.000 C 
ENDBRANCH  38  39
ENDBRANCH  36  38
ENDBRANCH  35  36
ENDBRANCH  11  35
TORSDOF 7
ENDMDL
MODEL 9
REMARK VINA RESULT:      -5.5     27.896     31.320
REMARK  Name = 
REMARK  14 active torsions:
REMARK  status: ('A' for Active; 'I' for Inactive)
REMARK    1  A    between atoms: O_1  and  C_24
REMARK    2  A    between atoms: O_1  and  C_36
REMARK    3  A    between atoms: O_4  and  C_30
REMARK    4  A    between atoms: O_4  and  C_37
REMARK    5  A    between atoms: O_7  and  C_33
REMARK    6  A    between atoms: O_7  and  C_38
REMARK    7  A    between atoms: N_10  and  C_23
REMARK    8  A    between atoms: C_15  and  C_26
REMARK    9  A    between atoms: C_16  and  C_24
REMARK   10  A    between atoms: C_31  and  C_34
REMARK   11  A    between atoms: C_32  and  C_35
REMARK   12  A    between atoms: C_36  and  C_39
REMARK   13  A    between atoms: C_39  and  C_40
REMARK   14  A    between atoms: C_41  and  C_42
REMARK                            x       y       z     vdW  Elec       q    Type
REMARK                         _______ _______ _______ _____ _____    ______ ____
ROOT
ATOM      1  O   UNL     1     -18.805  36.369   2.917  0.00  0.00    +0.000 OA
ATOM      2  O   UNL     1     -20.432  37.416   7.869  0.00  0.00    +0.000 OA
ATOM      3  O   UNL     1     -16.038  39.537   0.902  0.00  0.00    +0.000 OA
ATOM      4  O   UNL     1     -17.476  44.149   3.123  0.00  0.00    +0.000 OA
ATOM      5  N   UNL     1     -19.875  40.739   4.001  0.00  0.00    +0.000 NA
ATOM      6  N   UNL     1     -22.069  38.892   3.365  0.00  0.00    +0.000 NA
ATOM      7  C   UNL     1     -19.815  39.793   2.857  0.00  0.00    +0.000 C 
ATOM      8  C   UNL     1     -20.655  38.475   3.140  0.00  0.00    +0.000 C 
ATOM      9  C   UNL     1     -22.132  39.715   4.600  0.00  0.00    +0.000 C 
ATOM     10  C   UNL     1     -21.288  41.030   4.406  0.00  0.00    +0.000 C 
ATOM     11  C   UNL     1     -19.023  41.956   3.895  0.00  0.00    +0.000 C 
ATOM     12  C   UNL     1     -18.352  39.459   2.496  0.00  0.00    +0.000 C 
ATOM     13  C   UNL     1     -21.654  38.930   5.853  0.00  0.00    +0.000 C 
ATOM     14  C   UNL     1     -20.105  37.710   4.335  0.00  0.00    +0.000 C 
ATOM     15  C   UNL     1     -20.552  37.938   5.579  0.00  0.00    +0.000 C 
ATOM     16  C   UNL     1     -17.853  41.837   2.931  0.00  0.00    +0.000 C 
ATOM     17  C   UNL     1     -17.528  40.696   2.310  0.00  0.00    +0.000 C 
ATOM     18  C   UNL     1     -23.018  37.783   3.338  0.00  0.00    +0.000 C 
ATOM     19  C   UNL     1     -19.100  36.654   4.073  0.00  0.00    +0.000 C 
ATOM     20  C   UNL     1     -20.007  37.202   6.739  0.00  0.00    +0.000 C 
ATOM     21  C   UNL     1     -16.351  40.604   1.419  0.00  0.00    +0.000 C 
ATOM     22  C   UNL     1     -17.090  43.083   2.655  0.00  0.00    +0.000 C 
ATOM     23  C   UNL     1     -18.475  35.969   5.252  0.00  0.00    +0.000 C 
ATOM     24  C   UNL     1     -18.923  36.215   6.494  0.00  0.00    +0.000 C 
ATOM     25  C   UNL     1     -15.541  41.828   1.200  0.00  0.00    +0.000 C 
ATOM     26  C   UNL     1     -15.868  42.989   1.791  0.00  0.00    +0.000 C 
ATOM     27  C   UNL     1     -18.397  35.537   7.725  0.00  0.00    +0.000 C 
ATOM     28  C   UNL     1     -14.360  41.651   0.290  0.00  0.00    +0.000 C 
ENDROOT
BRANCH  23  29
ATOM     29  O   UNL     1     -17.471  35.024   5.077  0.00  0.00    +0.000 OA
ATOM     30  C   UNL     1     -16.177  35.550   4.789  0.00  0.00    +0.000 C 
ENDBRANCH  23  29
BRANCH  26  31
ATOM     31  O   UNL     1     -15.092  44.115   1.537  0.00  0.00    +0.000 OA
ATOM     32  C   UNL     1     -15.589  44.970   0.509  0.00  0.00    +0.000 C 
ENDBRANCH  26  31
BRANCH  10  34
ATOM     33  N   UNL     1     -22.627  42.614   2.752  0.00  0.00    +0.000 NA
ATOM     34  C   UNL     1     -22.024  41.934   3.475  0.00  0.00    +0.000 C 
ENDBRANCH  10  34
BRANCH  11  35
ATOM     35  C   UNL     1     -18.502  42.288   5.325  0.00  0.00    +0.000 C 
BRANCH  35  36
ATOM     36  O   UNL     1     -17.624  41.232   5.767  0.00  0.00    +0.000 OA
BRANCH  36  38
ATOM     37  O   UNL     1     -16.253  42.440   7.148  0.00  0.00    +0.000 OA
ATOM     38  C   UNL     1     -16.425  41.648   6.236  0.00  0.00    +0.000 C 
BRANCH  38  39
ATOM     39  C   UNL     1     -15.315  40.902   5.576  0.00  0.00    +0.000 C 
ATOM     40  C   UNL     1     -14.397  41.786   4.779  0.00  0.00    +0.000 C 
ATOM     41  C   UNL     1     -15.131  39.569   5.650  0.00  0.00    +0.000 C 
ATOM     42  C   UNL     1     -16.002  38.546   6.308  0.00  0.00    +0.000 C 
ENDBRANCH  38  39
ENDBRANCH  36  38
ENDBRANCH  35  36
ENDBRANCH  11  35
TORSDOF 7
ENDMDL
