MODEL 1
REMARK VINA RESULT:      -5.7      0.000      0.000
REMARK  Name = Resveratrol.pdbqt.pdb
REMARK  5 active torsions:
REMARK  status: ('A' for Active; 'I' for Inactive)
REMARK    1  A    between atoms: C_1  and  C_11
REMARK    2  A    between atoms: C_4  and  O_7
REMARK    3  A    between atoms: C_5  and  O_9
REMARK    4  A    between atoms: C_12  and  C_13
REMARK    5  A    between atoms: C_18  and  O_19
REMARK                            x       y       z     vdW  Elec       q    Type
REMARK                         _______ _______ _______ _____ _____    ______ ____
ROOT
ATOM      1  C   UNL     1      -3.999  48.869  26.548  0.00  0.00    +0.000 A 
ATOM      2  C   UNL     1      -3.458  50.120  26.841  0.00  0.00    +0.000 A 
ATOM      3  C   UNL     1      -3.234  47.716  26.721  0.00  0.00    +0.000 A 
ATOM      4  C   UNL     1      -1.926  47.826  27.188  0.00  0.00    +0.000 A 
ATOM      5  C   UNL     1      -2.150  50.208  27.306  0.00  0.00    +0.000 A 
ATOM      6  C   UNL     1      -1.374  49.067  27.485  0.00  0.00    +0.000 A 
ENDROOT
BRANCH   4   7
ATOM      7  O   UNL     1      -1.155  46.714  27.367  0.00  0.00    +0.000 OA
ATOM      8  H   UNL     1      -0.914  46.367  26.490  0.00  0.00    +0.000 HD
ENDBRANCH   4   7
BRANCH   5   9
ATOM      9  O   UNL     1      -1.642  51.444  27.587  0.00  0.00    +0.000 OA
ATOM     10  H   UNL     1      -0.810  51.546  27.091  0.00  0.00    +0.000 HD
ENDBRANCH   5   9
BRANCH   1  11
ATOM     11  C   UNL     1      -5.338  48.766  26.069  0.00  0.00    +0.000 C 
ATOM     12  C   UNL     1      -6.466  48.679  25.665  0.00  0.00    +0.000 C 
BRANCH  12  13
ATOM     13  C   UNL     1      -7.805  48.574  25.186  0.00  0.00    +0.000 A 
ATOM     14  C   UNL     1      -8.459  47.342  25.212  0.00  0.00    +0.000 A 
ATOM     15  C   UNL     1      -8.458  49.704  24.694  0.00  0.00    +0.000 A 
ATOM     16  C   UNL     1      -9.766  47.238  24.745  0.00  0.00    +0.000 A 
ATOM     17  C   UNL     1      -9.765  49.604  24.226  0.00  0.00    +0.000 A 
ATOM     18  C   UNL     1     -10.409  48.371  24.255  0.00  0.00    +0.000 A 
BRANCH  18  19
ATOM     19  O   UNL     1     -11.690  48.298  23.791  0.00  0.00    +0.000 OA
ATOM     20  H   UNL     1     -11.756  48.845  22.989  0.00  0.00    +0.000 HD
ENDBRANCH  18  19
ENDBRANCH  12  13
ENDBRANCH   1  11
TORSDOF 5
ENDMDL
MODEL 2
REMARK VINA RESULT:      -5.7      0.049      2.007
REMARK  Name = Resveratrol.pdbqt.pdb
REMARK  5 active torsions:
REMARK  status: ('A' for Active; 'I' for Inactive)
REMARK    1  A    between atoms: C_1  and  C_11
REMARK    2  A    between atoms: C_4  and  O_7
REMARK    3  A    between atoms: C_5  and  O_9
REMARK    4  A    between atoms: C_12  and  C_13
REMARK    5  A    between atoms: C_18  and  O_19
REMARK                            x       y       z     vdW  Elec       q    Type
REMARK                         _______ _______ _______ _____ _____    ______ ____
ROOT
ATOM      1  C   UNL     1      -3.978  48.892  26.543  0.00  0.00    +0.000 A 
ATOM      2  C   UNL     1      -3.214  47.742  26.734  0.00  0.00    +0.000 A 
ATOM      3  C   UNL     1      -3.438  50.147  26.822  0.00  0.00    +0.000 A 
ATOM      4  C   UNL     1      -2.131  50.241  27.292  0.00  0.00    +0.000 A 
ATOM      5  C   UNL     1      -1.910  47.857  27.206  0.00  0.00    +0.000 A 
ATOM      6  C   UNL     1      -1.357  49.102  27.487  0.00  0.00    +0.000 A 
ENDROOT
BRANCH   4   7
ATOM      7  O   UNL     1      -1.576  51.456  27.572  0.00  0.00    +0.000 OA
ATOM      8  H   UNL     1      -0.611  51.382  27.463  0.00  0.00    +0.000 HD
ENDBRANCH   4   7
BRANCH   5   9
ATOM      9  O   UNL     1      -1.181  46.717  27.385  0.00  0.00    +0.000 OA
ATOM     10  H   UNL     1      -0.238  46.953  27.338  0.00  0.00    +0.000 HD
ENDBRANCH   5   9
BRANCH   1  11
ATOM     11  C   UNL     1      -5.316  48.787  26.061  0.00  0.00    +0.000 C 
ATOM     12  C   UNL     1      -6.443  48.699  25.655  0.00  0.00    +0.000 C 
BRANCH  12  13
ATOM     13  C   UNL     1      -7.781  48.593  25.173  0.00  0.00    +0.000 A 
ATOM     14  C   UNL     1      -8.411  47.349  25.138  0.00  0.00    +0.000 A 
ATOM     15  C   UNL     1      -8.456  49.733  24.736  0.00  0.00    +0.000 A 
ATOM     16  C   UNL     1      -9.717  47.243  24.669  0.00  0.00    +0.000 A 
ATOM     17  C   UNL     1      -9.762  49.631  24.266  0.00  0.00    +0.000 A 
ATOM     18  C   UNL     1     -10.382  48.386  24.235  0.00  0.00    +0.000 A 
BRANCH  18  19
ATOM     19  O   UNL     1     -11.663  48.312  23.770  0.00  0.00    +0.000 OA
ATOM     20  H   UNL     1     -11.685  47.668  23.040  0.00  0.00    +0.000 HD
ENDBRANCH  18  19
ENDBRANCH  12  13
ENDBRANCH   1  11
TORSDOF 5
ENDMDL
MODEL 3
REMARK VINA RESULT:      -5.4      2.699      7.629
REMARK  Name = Resveratrol.pdbqt.pdb
REMARK  5 active torsions:
REMARK  status: ('A' for Active; 'I' for Inactive)
REMARK    1  A    between atoms: C_1  and  C_11
REMARK    2  A    between atoms: C_4  and  O_7
REMARK    3  A    between atoms: C_5  and  O_9
REMARK    4  A    between atoms: C_12  and  C_13
REMARK    5  A    between atoms: C_18  and  O_19
REMARK                            x       y       z     vdW  Elec       q    Type
REMARK                         _______ _______ _______ _____ _____    ______ ____
ROOT
ATOM      1  C   UNL     1      -4.501  47.933  26.413  0.00  0.00    +0.000 A 
ATOM      2  C   UNL     1      -4.103  46.618  26.649  0.00  0.00    +0.000 A 
ATOM      3  C   UNL     1      -5.753  48.199  25.859  0.00  0.00    +0.000 A 
ATOM      4  C   UNL     1      -6.601  47.140  25.545  0.00  0.00    +0.000 A 
ATOM      5  C   UNL     1      -4.965  45.574  26.327  0.00  0.00    +0.000 A 
ATOM      6  C   UNL     1      -6.218  45.823  25.775  0.00  0.00    +0.000 A 
ENDROOT
BRANCH   4   7
ATOM      7  O   UNL     1      -7.832  47.371  25.003  0.00  0.00    +0.000 OA
ATOM      8  H   UNL     1      -8.504  47.173  25.680  0.00  0.00    +0.000 HD
ENDBRANCH   4   7
BRANCH   5   9
ATOM      9  O   UNL     1      -4.554  44.295  26.567  0.00  0.00    +0.000 OA
ATOM     10  H   UNL     1      -3.660  44.333  26.950  0.00  0.00    +0.000 HD
ENDBRANCH   5   9
BRANCH   1  11
ATOM     11  C   UNL     1      -3.626  49.011  26.737  0.00  0.00    +0.000 C 
ATOM     12  C   UNL     1      -2.889  49.920  27.011  0.00  0.00    +0.000 C 
BRANCH  12  13
ATOM     13  C   UNL     1      -2.013  50.998  27.337  0.00  0.00    +0.000 A 
ATOM     14  C   UNL     1      -2.423  51.977  28.242  0.00  0.00    +0.000 A 
ATOM     15  C   UNL     1      -0.751  51.070  26.749  0.00  0.00    +0.000 A 
ATOM     16  C   UNL     1      -1.570  53.029  28.561  0.00  0.00    +0.000 A 
ATOM     17  C   UNL     1       0.105  52.122  27.065  0.00  0.00    +0.000 A 
ATOM     18  C   UNL     1      -0.312  53.094  27.969  0.00  0.00    +0.000 A 
BRANCH  18  19
ATOM     19  O   UNL     1       0.544  54.114  28.264  0.00  0.00    +0.000 OA
ATOM     20  H   UNL     1       1.378  53.961  27.786  0.00  0.00    +0.000 HD
ENDBRANCH  18  19
ENDBRANCH  12  13
ENDBRANCH   1  11
TORSDOF 5
ENDMDL
MODEL 4
REMARK VINA RESULT:      -5.4      2.720      7.462
REMARK  Name = Resveratrol.pdbqt.pdb
REMARK  5 active torsions:
REMARK  status: ('A' for Active; 'I' for Inactive)
REMARK    1  A    between atoms: C_1  and  C_11
REMARK    2  A    between atoms: C_4  and  O_7
REMARK    3  A    between atoms: C_5  and  O_9
REMARK    4  A    between atoms: C_12  and  C_13
REMARK    5  A    between atoms: C_18  and  O_19
REMARK                            x       y       z     vdW  Elec       q    Type
REMARK                         _______ _______ _______ _____ _____    ______ ____
ROOT
ATOM      1  C   UNL     1      -4.450  47.975  26.422  0.00  0.00    +0.000 A 
ATOM      2  C   UNL     1      -5.689  48.234  25.838  0.00  0.00    +0.000 A 
ATOM      3  C   UNL     1      -4.062  46.663  26.691  0.00  0.00    +0.000 A 
ATOM      4  C   UNL     1      -4.921  45.615  26.371  0.00  0.00    +0.000 A 
ATOM      5  C   UNL     1      -6.533  47.173  25.526  0.00  0.00    +0.000 A 
ATOM      6  C   UNL     1      -6.160  45.859  25.788  0.00  0.00    +0.000 A 
ENDROOT
BRANCH   4   7
ATOM      7  O   UNL     1      -4.568  44.321  26.622  0.00  0.00    +0.000 OA
ATOM      8  H   UNL     1      -4.547  44.194  27.588  0.00  0.00    +0.000 HD
ENDBRANCH   4   7
BRANCH   5   9
ATOM      9  O   UNL     1      -7.742  47.452  24.955  0.00  0.00    +0.000 OA
ATOM     10  H   UNL     1      -8.280  46.640  24.980  0.00  0.00    +0.000 HD
ENDBRANCH   5   9
BRANCH   1  11
ATOM     11  C   UNL     1      -3.575  49.053  26.746  0.00  0.00    +0.000 C 
ATOM     12  C   UNL     1      -2.839  49.963  27.020  0.00  0.00    +0.000 C 
BRANCH  12  13
ATOM     13  C   UNL     1      -1.965  51.042  27.346  0.00  0.00    +0.000 A 
ATOM     14  C   UNL     1      -2.383  52.030  28.237  0.00  0.00    +0.000 A 
ATOM     15  C   UNL     1      -0.696  51.106  26.772  0.00  0.00    +0.000 A 
ATOM     16  C   UNL     1      -1.532  53.083  28.557  0.00  0.00    +0.000 A 
ATOM     17  C   UNL     1       0.158  52.159  27.089  0.00  0.00    +0.000 A 
ATOM     18  C   UNL     1      -0.267  53.140  27.979  0.00  0.00    +0.000 A 
BRANCH  18  19
ATOM     19  O   UNL     1       0.588  54.161  28.274  0.00  0.00    +0.000 OA
ATOM     20  H   UNL     1       0.994  54.469  27.445  0.00  0.00    +0.000 HD
ENDBRANCH  18  19
ENDBRANCH  12  13
ENDBRANCH   1  11
TORSDOF 5
ENDMDL
MODEL 5
REMARK VINA RESULT:      -5.2     23.876     26.587
REMARK  Name = Resveratrol.pdbqt.pdb
REMARK  5 active torsions:
REMARK  status: ('A' for Active; 'I' for Inactive)
REMARK    1  A    between atoms: C_1  and  C_11
REMARK    2  A    between atoms: C_4  and  O_7
REMARK    3  A    between atoms: C_5  and  O_9
REMARK    4  A    between atoms: C_12  and  C_13
REMARK    5  A    between atoms: C_18  and  O_19
REMARK                            x       y       z     vdW  Elec       q    Type
REMARK                         _______ _______ _______ _____ _____    ______ ____
ROOT
ATOM      1  C   UNL     1     -15.877  43.180   3.801  0.00  0.00    +0.000 A 
ATOM      2  C   UNL     1     -15.064  42.102   4.147  0.00  0.00    +0.000 A 
ATOM      3  C   UNL     1     -16.960  43.529   4.607  0.00  0.00    +0.000 A 
ATOM      4  C   UNL     1     -17.220  42.793   5.761  0.00  0.00    +0.000 A 
ATOM      5  C   UNL     1     -15.341  41.379   5.302  0.00  0.00    +0.000 A 
ATOM      6  C   UNL     1     -16.417  41.716   6.118  0.00  0.00    +0.000 A 
ENDROOT
BRANCH   4   7
ATOM      7  O   UNL     1     -18.272  43.113   6.569  0.00  0.00    +0.000 OA
ATOM      8  H   UNL     1     -18.131  42.687   7.433  0.00  0.00    +0.000 HD
ENDBRANCH   4   7
BRANCH   5   9
ATOM      9  O   UNL     1     -14.531  40.328   5.621  0.00  0.00    +0.000 OA
ATOM     10  H   UNL     1     -13.691  40.440   5.141  0.00  0.00    +0.000 HD
ENDBRANCH   5   9
BRANCH   1  11
ATOM     11  C   UNL     1     -15.604  43.928   2.618  0.00  0.00    +0.000 C 
ATOM     12  C   UNL     1     -15.373  44.559   1.621  0.00  0.00    +0.000 C 
BRANCH  12  13
ATOM     13  C   UNL     1     -15.100  45.306   0.438  0.00  0.00    +0.000 A 
ATOM     14  C   UNL     1     -16.141  45.643  -0.427  0.00  0.00    +0.000 A 
ATOM     15  C   UNL     1     -13.793  45.697   0.149  0.00  0.00    +0.000 A 
ATOM     16  C   UNL     1     -15.877  46.373  -1.582  0.00  0.00    +0.000 A 
ATOM     17  C   UNL     1     -13.525  46.427  -1.006  0.00  0.00    +0.000 A 
ATOM     18  C   UNL     1     -14.569  46.759  -1.863  0.00  0.00    +0.000 A 
BRANCH  18  19
ATOM     19  O   UNL     1     -14.281  47.474  -2.989  0.00  0.00    +0.000 OA
ATOM     20  H   UNL     1     -15.057  48.018  -3.211  0.00  0.00    +0.000 HD
ENDBRANCH  18  19
ENDBRANCH  12  13
ENDBRANCH   1  11
TORSDOF 5
ENDMDL
MODEL 6
REMARK VINA RESULT:      -5.0     24.125     25.813
REMARK  Name = Resveratrol.pdbqt.pdb
REMARK  5 active torsions:
REMARK  status: ('A' for Active; 'I' for Inactive)
REMARK    1  A    between atoms: C_1  and  C_11
REMARK    2  A    between atoms: C_4  and  O_7
REMARK    3  A    between atoms: C_5  and  O_9
REMARK    4  A    between atoms: C_12  and  C_13
REMARK    5  A    between atoms: C_18  and  O_19
REMARK                            x       y       z     vdW  Elec       q    Type
REMARK                         _______ _______ _______ _____ _____    ______ ____
ROOT
ATOM      1  C   UNL     1     -21.111  29.178  22.420  0.00  0.00    +0.000 A 
ATOM      2  C   UNL     1     -22.257  28.630  22.994  0.00  0.00    +0.000 A 
ATOM      3  C   UNL     1     -20.106  29.708  23.229  0.00  0.00    +0.000 A 
ATOM      4  C   UNL     1     -20.256  29.683  24.613  0.00  0.00    +0.000 A 
ATOM      5  C   UNL     1     -22.388  28.615  24.379  0.00  0.00    +0.000 A 
ATOM      6  C   UNL     1     -21.394  29.139  25.199  0.00  0.00    +0.000 A 
ENDROOT
BRANCH   4   7
ATOM      7  O   UNL     1     -19.289  30.194  25.429  0.00  0.00    +0.000 OA
ATOM      8  H   UNL     1     -18.445  29.760  25.207  0.00  0.00    +0.000 HD
ENDBRANCH   4   7
BRANCH   5   9
ATOM      9  O   UNL     1     -23.519  28.072  24.918  0.00  0.00    +0.000 OA
ATOM     10  H   UNL     1     -23.343  27.132  25.101  0.00  0.00    +0.000 HD
ENDBRANCH   5   9
BRANCH   1  11
ATOM     11  C   UNL     1     -20.964  29.200  21.001  0.00  0.00    +0.000 C 
ATOM     12  C   UNL     1     -20.841  29.218  19.806  0.00  0.00    +0.000 C 
BRANCH  12  13
ATOM     13  C   UNL     1     -20.695  29.238  18.388  0.00  0.00    +0.000 A 
ATOM     14  C   UNL     1     -19.579  29.846  17.813  0.00  0.00    +0.000 A 
ATOM     15  C   UNL     1     -21.668  28.652  17.580  0.00  0.00    +0.000 A 
ATOM     16  C   UNL     1     -19.434  29.867  16.429  0.00  0.00    +0.000 A 
ATOM     17  C   UNL     1     -21.527  28.672  16.195  0.00  0.00    +0.000 A 
ATOM     18  C   UNL     1     -20.411  29.280  15.630  0.00  0.00    +0.000 A 
BRANCH  18  19
ATOM     19  O   UNL     1     -20.294  29.286  14.271  0.00  0.00    +0.000 OA
ATOM     20  H   UNL     1     -20.441  30.195  13.956  0.00  0.00    +0.000 HD
ENDBRANCH  18  19
ENDBRANCH  12  13
ENDBRANCH   1  11
TORSDOF 5
ENDMDL
MODEL 7
REMARK VINA RESULT:      -5.0     21.824     22.477
REMARK  Name = Resveratrol.pdbqt.pdb
REMARK  5 active torsions:
REMARK  status: ('A' for Active; 'I' for Inactive)
REMARK    1  A    between atoms: C_1  and  C_11
REMARK    2  A    between atoms: C_4  and  O_7
REMARK    3  A    between atoms: C_5  and  O_9
REMARK    4  A    between atoms: C_12  and  C_13
REMARK    5  A    between atoms: C_18  and  O_19
REMARK                            x       y       z     vdW  Elec       q    Type
REMARK                         _______ _______ _______ _____ _____    ______ ____
ROOT
ATOM      1  C   UNL     1      -2.759  27.733  20.124  0.00  0.00    +0.000 A 
ATOM      2  C   UNL     1      -1.789  27.939  21.104  0.00  0.00    +0.000 A 
ATOM      3  C   UNL     1      -2.468  27.986  18.784  0.00  0.00    +0.000 A 
ATOM      4  C   UNL     1      -1.201  28.445  18.434  0.00  0.00    +0.000 A 
ATOM      5  C   UNL     1      -0.530  28.399  20.733  0.00  0.00    +0.000 A 
ATOM      6  C   UNL     1      -0.224  28.655  19.400  0.00  0.00    +0.000 A 
ENDROOT
BRANCH   4   7
ATOM      7  O   UNL     1      -0.888  28.700  17.130  0.00  0.00    +0.000 OA
ATOM      8  H   UNL     1      -1.486  29.397  16.805  0.00  0.00    +0.000 HD
ENDBRANCH   4   7
BRANCH   5   9
ATOM      9  O   UNL     1       0.404  28.594  21.710  0.00  0.00    +0.000 OA
ATOM     10  H   UNL     1       1.192  28.070  21.480  0.00  0.00    +0.000 HD
ENDBRANCH   5   9
BRANCH   1  11
ATOM     11  C   UNL     1      -4.055  27.262  20.491  0.00  0.00    +0.000 C 
ATOM     12  C   UNL     1      -5.146  26.867  20.801  0.00  0.00    +0.000 C 
BRANCH  12  13
ATOM     13  C   UNL     1      -6.441  26.397  21.168  0.00  0.00    +0.000 A 
ATOM     14  C   UNL     1      -7.131  25.528  20.323  0.00  0.00    +0.000 A 
ATOM     15  C   UNL     1      -7.016  26.809  22.371  0.00  0.00    +0.000 A 
ATOM     16  C   UNL     1      -8.395  25.068  20.679  0.00  0.00    +0.000 A 
ATOM     17  C   UNL     1      -8.281  26.351  22.730  0.00  0.00    +0.000 A 
ATOM     18  C   UNL     1      -8.961  25.485  21.881  0.00  0.00    +0.000 A 
BRANCH  18  19
ATOM     19  O   UNL     1     -10.199  25.050  22.255  0.00  0.00    +0.000 OA
ATOM     20  H   UNL     1     -10.774  25.055  21.470  0.00  0.00    +0.000 HD
ENDBRANCH  18  19
ENDBRANCH  12  13
ENDBRANCH   1  11
TORSDOF 5
ENDMDL
MODEL 8
REMARK VINA RESULT:      -4.9     22.165     22.673
REMARK  Name = Resveratrol.pdbqt.pdb
REMARK  5 active torsions:
REMARK  status: ('A' for Active; 'I' for Inactive)
REMARK    1  A    between atoms: C_1  and  C_11
REMARK    2  A    between atoms: C_4  and  O_7
REMARK    3  A    between atoms: C_5  and  O_9
REMARK    4  A    between atoms: C_12  and  C_13
REMARK    5  A    between atoms: C_18  and  O_19
REMARK                            x       y       z     vdW  Elec       q    Type
REMARK                         _______ _______ _______ _____ _____    ______ ____
ROOT
ATOM      1  C   UNL     1      -1.931  28.016  18.925  0.00  0.00    +0.000 A 
ATOM      2  C   UNL     1      -1.786  28.373  17.586  0.00  0.00    +0.000 A 
ATOM      3  C   UNL     1      -0.868  28.175  19.813  0.00  0.00    +0.000 A 
ATOM      4  C   UNL     1       0.339  28.694  19.350  0.00  0.00    +0.000 A 
ATOM      5  C   UNL     1      -0.572  28.889  17.143  0.00  0.00    +0.000 A 
ATOM      6  C   UNL     1       0.498  29.055  18.016  0.00  0.00    +0.000 A 
ENDROOT
BRANCH   4   7
ATOM      7  O   UNL     1       1.396  28.861  20.196  0.00  0.00    +0.000 OA
ATOM      8  H   UNL     1       1.085  29.353  20.977  0.00  0.00    +0.000 HD
ENDBRANCH   4   7
BRANCH   5   9
ATOM      9  O   UNL     1      -0.454  29.232  15.827  0.00  0.00    +0.000 OA
ATOM     10  H   UNL     1      -0.902  30.086  15.697  0.00  0.00    +0.000 HD
ENDBRANCH   5   9
BRANCH   1  11
ATOM     11  C   UNL     1      -3.170  27.485  19.391  0.00  0.00    +0.000 C 
ATOM     12  C   UNL     1      -4.213  27.036  19.784  0.00  0.00    +0.000 C 
BRANCH  12  13
ATOM     13  C   UNL     1      -5.452  26.505  20.250  0.00  0.00    +0.000 A 
ATOM     14  C   UNL     1      -5.778  26.588  21.604  0.00  0.00    +0.000 A 
ATOM     15  C   UNL     1      -6.333  25.903  19.352  0.00  0.00    +0.000 A 
ATOM     16  C   UNL     1      -6.986  26.070  22.061  0.00  0.00    +0.000 A 
ATOM     17  C   UNL     1      -7.542  25.383  19.806  0.00  0.00    +0.000 A 
ATOM     18  C   UNL     1      -7.859  25.471  21.158  0.00  0.00    +0.000 A 
BRANCH  18  19
ATOM     19  O   UNL     1      -9.050  24.954  21.579  0.00  0.00    +0.000 OA
ATOM     20  H   UNL     1      -9.517  25.640  22.088  0.00  0.00    +0.000 HD
ENDBRANCH  18  19
ENDBRANCH  12  13
ENDBRANCH   1  11
TORSDOF 5
ENDMDL
MODEL 9
REMARK VINA RESULT:      -4.7     10.285     14.265
REMARK  Name = Resveratrol.pdbqt.pdb
REMARK  5 active torsions:
REMARK  status: ('A' for Active; 'I' for Inactive)
REMARK    1  A    between atoms: C_1  and  C_11
REMARK    2  A    between atoms: C_4  and  O_7
REMARK    3  A    between atoms: C_5  and  O_9
REMARK    4  A    between atoms: C_12  and  C_13
REMARK    5  A    between atoms: C_18  and  O_19
REMARK                            x       y       z     vdW  Elec       q    Type
REMARK                         _______ _______ _______ _____ _____    ______ ____
ROOT
ATOM      1  C   UNL     1     -18.815  48.626  22.267  0.00  0.00    +0.000 A 
ATOM      2  C   UNL     1     -19.539  48.707  23.456  0.00  0.00    +0.000 A 
ATOM      3  C   UNL     1     -19.139  47.663  21.312  0.00  0.00    +0.000 A 
ATOM      4  C   UNL     1     -20.192  46.785  21.556  0.00  0.00    +0.000 A 
ATOM      5  C   UNL     1     -20.587  47.820  23.680  0.00  0.00    +0.000 A 
ATOM      6  C   UNL     1     -20.923  46.855  22.737  0.00  0.00    +0.000 A 
ENDROOT
BRANCH   4   7
ATOM      7  O   UNL     1     -20.533  45.833  20.639  0.00  0.00    +0.000 OA
ATOM      8  H   UNL     1     -21.504  45.773  20.610  0.00  0.00    +0.000 HD
ENDBRANCH   4   7
BRANCH   5   9
ATOM      9  O   UNL     1     -21.282  47.919  24.851  0.00  0.00    +0.000 OA
ATOM     10  H   UNL     1     -21.605  48.833  24.932  0.00  0.00    +0.000 HD
ENDBRANCH   5   9
BRANCH   1  11
ATOM     11  C   UNL     1     -17.738  49.529  22.026  0.00  0.00    +0.000 C 
ATOM     12  C   UNL     1     -16.831  50.290  21.822  0.00  0.00    +0.000 C 
BRANCH  12  13
ATOM     13  C   UNL     1     -15.754  51.193  21.581  0.00  0.00    +0.000 A 
ATOM     14  C   UNL     1     -15.712  51.925  20.395  0.00  0.00    +0.000 A 
ATOM     15  C   UNL     1     -14.745  51.343  22.533  0.00  0.00    +0.000 A 
ATOM     16  C   UNL     1     -14.663  52.807  20.158  0.00  0.00    +0.000 A 
ATOM     17  C   UNL     1     -13.693  52.224  22.299  0.00  0.00    +0.000 A 
ATOM     18  C   UNL     1     -13.660  52.950  21.113  0.00  0.00    +0.000 A 
BRANCH  18  19
ATOM     19  O   UNL     1     -12.619  53.807  20.906  0.00  0.00    +0.000 OA
ATOM     20  H   UNL     1     -12.984  54.678  20.670  0.00  0.00    +0.000 HD
ENDBRANCH  18  19
ENDBRANCH  12  13
ENDBRANCH   1  11
TORSDOF 5
ENDMDL
