MODEL 1
REMARK VINA RESULT:      -7.0      0.000      0.000
REMARK  Name = RetinoicAcid.pdbqt.pdb
REMARK  6 active torsions:
REMARK  status: ('A' for Active; 'I' for Inactive)
REMARK    1  A    between atoms: C_1  and  C_3
REMARK    2  A    between atoms: C_1  and  C_5
REMARK    3  A    between atoms: C_3  and  C_15
REMARK    4  A    between atoms: C_4  and  C_9
REMARK    5  A    between atoms: C_16  and  C_17
REMARK    6  A    between atoms: C_21  and  O_22
REMARK                            x       y       z     vdW  Elec       q    Type
REMARK                         _______ _______ _______ _____ _____    ______ ____
ROOT
ATOM      1  C   UNL     1      -3.358  49.230  26.910  0.00  0.00    +0.000 C 
ATOM      2  C   UNL     1      -3.145  50.675  27.239  0.00  0.00    +0.000 C 
ENDROOT
BRANCH   1   4
ATOM      3  C   UNL     1      -5.620  48.447  25.848  0.00  0.00    +0.000 C 
ATOM      4  C   UNL     1      -4.578  48.806  26.330  0.00  0.00    +0.000 C 
BRANCH   3   8
ATOM      5  C   UNL     1      -7.638  48.966  24.289  0.00  0.00    +0.000 C 
ATOM      6  C   UNL     1      -8.876  48.279  23.853  0.00  0.00    +0.000 C 
ATOM      7  C   UNL     1      -9.645  46.985  24.035  0.00  0.00    +0.000 C 
ATOM      8  C   UNL     1      -6.874  48.019  25.274  0.00  0.00    +0.000 C 
ATOM      9  C   UNL     1      -8.620  46.415  24.991  0.00  0.00    +0.000 C 
ATOM     10  C   UNL     1      -7.384  46.801  25.582  0.00  0.00    +0.000 C 
ATOM     11  C   UNL     1      -7.998  50.282  25.030  0.00  0.00    +0.000 C 
ATOM     12  C   UNL     1      -6.727  49.245  23.060  0.00  0.00    +0.000 C 
ATOM     13  C   UNL     1      -6.726  45.812  26.504  0.00  0.00    +0.000 C 
ENDBRANCH   3   8
ENDBRANCH   1   4
BRANCH   1  14
ATOM     14  C   UNL     1      -2.443  48.359  27.202  0.00  0.00    +0.000 C 
BRANCH  14  15
ATOM     15  C   UNL     1      -1.358  47.330  27.545  0.00  0.00    +0.000 C 
ATOM     16  C   UNL     1      -0.511  46.524  27.816  0.00  0.00    +0.000 C 
BRANCH  16  17
ATOM     17  C   UNL     1       0.485  45.571  28.137  0.00  0.00    +0.000 C 
ATOM     18  C   UNL     1       1.515  45.198  27.115  0.00  0.00    +0.000 C 
ATOM     19  C   UNL     1       0.487  45.002  29.295  0.00  0.00    +0.000 C 
ATOM     20  O   UNL     1       0.965  44.914  31.567  0.00  0.00    +0.000 OA
ATOM     21  C   UNL     1       0.485  44.392  30.578  0.00  0.00    +0.000 C 
BRANCH  21  22
ATOM     22  O   UNL     1      -0.115  43.191  30.611  0.00  0.00    +0.000 OA
ATOM     23  H   UNL     1       0.622  42.552  30.520  0.00  0.00    +0.000 HD
ENDBRANCH  21  22
ENDBRANCH  16  17
ENDBRANCH  14  15
ENDBRANCH   1  14
TORSDOF 6
ENDMDL
MODEL 2
REMARK VINA RESULT:      -6.9      4.228      9.070
REMARK  Name = RetinoicAcid.pdbqt.pdb
REMARK  6 active torsions:
REMARK  status: ('A' for Active; 'I' for Inactive)
REMARK    1  A    between atoms: C_1  and  C_3
REMARK    2  A    between atoms: C_1  and  C_5
REMARK    3  A    between atoms: C_3  and  C_15
REMARK    4  A    between atoms: C_4  and  C_9
REMARK    5  A    between atoms: C_16  and  C_17
REMARK    6  A    between atoms: C_21  and  O_22
REMARK                            x       y       z     vdW  Elec       q    Type
REMARK                         _______ _______ _______ _____ _____    ______ ____
ROOT
ATOM      1  C   UNL     1      -4.259  45.520  25.590  0.00  0.00    +0.000 C 
ATOM      2  C   UNL     1      -4.080  44.118  25.094  0.00  0.00    +0.000 C 
ENDROOT
BRANCH   1   4
ATOM      3  C   UNL     1      -2.294  46.740  26.819  0.00  0.00    +0.000 C 
ATOM      4  C   UNL     1      -3.194  46.181  26.249  0.00  0.00    +0.000 C 
BRANCH   3   8
ATOM      5  C   UNL     1      -0.092  46.557  28.194  0.00  0.00    +0.000 C 
ATOM      6  C   UNL     1       0.879  47.488  28.814  0.00  0.00    +0.000 C 
ATOM      7  C   UNL     1       1.151  48.967  29.009  0.00  0.00    +0.000 C 
ATOM      8  C   UNL     1      -1.215  47.406  27.509  0.00  0.00    +0.000 C 
ATOM      9  C   UNL     1      -0.087  49.379  28.244  0.00  0.00    +0.000 C 
ATOM     10  C   UNL     1      -1.171  48.761  27.558  0.00  0.00    +0.000 C 
ATOM     11  C   UNL     1      -0.734  45.659  29.286  0.00  0.00    +0.000 C 
ATOM     12  C   UNL     1       0.617  45.700  27.107  0.00  0.00    +0.000 C 
ATOM     13  C   UNL     1      -2.188  49.668  26.923  0.00  0.00    +0.000 C 
ENDBRANCH   3   8
ENDBRANCH   1   4
BRANCH   1  14
ATOM     14  C   UNL     1      -5.405  46.111  25.458  0.00  0.00    +0.000 C 
BRANCH  14  15
ATOM     15  C   UNL     1      -6.761  46.811  25.304  0.00  0.00    +0.000 C 
ATOM     16  C   UNL     1      -7.823  47.359  25.182  0.00  0.00    +0.000 C 
BRANCH  16  17
ATOM     17  C   UNL     1      -9.075  48.001  25.034  0.00  0.00    +0.000 C 
ATOM     18  C   UNL     1      -9.304  48.932  23.883  0.00  0.00    +0.000 C 
ATOM     19  C   UNL     1     -10.007  47.810  25.906  0.00  0.00    +0.000 C 
ATOM     20  O   UNL     1     -11.762  46.611  26.844  0.00  0.00    +0.000 OA
ATOM     21  C   UNL     1     -11.029  47.582  26.866  0.00  0.00    +0.000 C 
BRANCH  21  22
ATOM     22  O   UNL     1     -11.103  48.525  27.820  0.00  0.00    +0.000 OA
ATOM     23  H   UNL     1     -10.169  48.688  28.069  0.00  0.00    +0.000 HD
ENDBRANCH  21  22
ENDBRANCH  16  17
ENDBRANCH  14  15
ENDBRANCH   1  14
TORSDOF 6
ENDMDL
MODEL 3
REMARK VINA RESULT:      -6.8      2.566      5.035
REMARK  Name = RetinoicAcid.pdbqt.pdb
REMARK  6 active torsions:
REMARK  status: ('A' for Active; 'I' for Inactive)
REMARK    1  A    between atoms: C_1  and  C_3
REMARK    2  A    between atoms: C_1  and  C_5
REMARK    3  A    between atoms: C_3  and  C_15
REMARK    4  A    between atoms: C_4  and  C_9
REMARK    5  A    between atoms: C_16  and  C_17
REMARK    6  A    between atoms: C_21  and  O_22
REMARK                            x       y       z     vdW  Elec       q    Type
REMARK                         _______ _______ _______ _____ _____    ______ ____
ROOT
ATOM      1  C   UNL     1      -0.509  45.765  28.538  0.00  0.00    +0.000 C 
ATOM      2  C   UNL     1       0.808  46.229  27.996  0.00  0.00    +0.000 C 
ENDROOT
BRANCH   1   4
ATOM      3  C   UNL     1      -2.739  46.423  27.332  0.00  0.00    +0.000 C 
ATOM      4  C   UNL     1      -1.712  46.123  27.881  0.00  0.00    +0.000 C 
BRANCH   3   8
ATOM      5  C   UNL     1      -4.951  45.658  26.196  0.00  0.00    +0.000 C 
ATOM      6  C   UNL     1      -6.131  46.303  25.574  0.00  0.00    +0.000 C 
ATOM      7  C   UNL     1      -6.707  47.668  25.251  0.00  0.00    +0.000 C 
ATOM      8  C   UNL     1      -3.976  46.783  26.680  0.00  0.00    +0.000 C 
ATOM      9  C   UNL     1      -5.526  48.399  25.850  0.00  0.00    +0.000 C 
ATOM     10  C   UNL     1      -4.295  48.087  26.493  0.00  0.00    +0.000 C 
ATOM     11  C   UNL     1      -4.222  44.773  25.149  0.00  0.00    +0.000 C 
ATOM     12  C   UNL     1      -5.395  44.819  27.428  0.00  0.00    +0.000 C 
ATOM     13  C   UNL     1      -3.437  49.243  26.931  0.00  0.00    +0.000 C 
ENDBRANCH   3   8
ENDBRANCH   1   4
BRANCH   1  14
ATOM     14  C   UNL     1      -0.551  45.075  29.634  0.00  0.00    +0.000 C 
BRANCH  14  15
ATOM     15  C   UNL     1      -0.602  44.258  30.931  0.00  0.00    +0.000 C 
ATOM     16  C   UNL     1      -0.643  43.620  31.948  0.00  0.00    +0.000 C 
BRANCH  16  17
ATOM     17  C   UNL     1      -0.695  42.871  33.147  0.00  0.00    +0.000 C 
ATOM     18  C   UNL     1      -0.720  43.579  34.467  0.00  0.00    +0.000 C 
ATOM     19  C   UNL     1      -0.688  41.581  33.105  0.00  0.00    +0.000 C 
ATOM     20  O   UNL     1      -1.697  39.505  32.839  0.00  0.00    +0.000 OA
ATOM     21  C   UNL     1      -0.693  40.162  33.045  0.00  0.00    +0.000 C 
BRANCH  21  22
ATOM     22  O   UNL     1       0.516  39.603  33.213  0.00  0.00    +0.000 OA
ATOM     23  H   UNL     1       0.422  38.707  32.830  0.00  0.00    +0.000 HD
ENDBRANCH  21  22
ENDBRANCH  16  17
ENDBRANCH  14  15
ENDBRANCH   1  14
TORSDOF 6
ENDMDL
MODEL 4
REMARK VINA RESULT:      -6.7      1.812      2.989
REMARK  Name = RetinoicAcid.pdbqt.pdb
REMARK  6 active torsions:
REMARK  status: ('A' for Active; 'I' for Inactive)
REMARK    1  A    between atoms: C_1  and  C_3
REMARK    2  A    between atoms: C_1  and  C_5
REMARK    3  A    between atoms: C_3  and  C_15
REMARK    4  A    between atoms: C_4  and  C_9
REMARK    5  A    between atoms: C_16  and  C_17
REMARK    6  A    between atoms: C_21  and  O_22
REMARK                            x       y       z     vdW  Elec       q    Type
REMARK                         _______ _______ _______ _____ _____    ______ ____
ROOT
ATOM      1  C   UNL     1      -4.199  45.718  26.125  0.00  0.00    +0.000 C 
ATOM      2  C   UNL     1      -4.528  44.392  25.511  0.00  0.00    +0.000 C 
ENDROOT
BRANCH   1   4
ATOM      3  C   UNL     1      -5.911  47.693  25.960  0.00  0.00    +0.000 C 
ATOM      4  C   UNL     1      -5.123  46.788  26.041  0.00  0.00    +0.000 C 
BRANCH   3   8
ATOM      5  C   UNL     1      -7.805  48.861  24.612  0.00  0.00    +0.000 C 
ATOM      6  C   UNL     1      -8.671  50.053  24.768  0.00  0.00    +0.000 C 
ATOM      7  C   UNL     1      -8.948  51.206  25.713  0.00  0.00    +0.000 C 
ATOM      8  C   UNL     1      -6.860  48.776  25.857  0.00  0.00    +0.000 C 
ATOM      9  C   UNL     1      -7.890  50.760  26.699  0.00  0.00    +0.000 C 
ATOM     10  C   UNL     1      -6.937  49.711  26.836  0.00  0.00    +0.000 C 
ATOM     11  C   UNL     1      -6.941  49.001  23.330  0.00  0.00    +0.000 C 
ATOM     12  C   UNL     1      -8.680  47.576  24.562  0.00  0.00    +0.000 C 
ATOM     13  C   UNL     1      -6.087  49.714  28.077  0.00  0.00    +0.000 C 
ENDBRANCH   3   8
ENDBRANCH   1   4
BRANCH   1  14
ATOM     14  C   UNL     1      -3.047  45.900  26.692  0.00  0.00    +0.000 C 
BRANCH  14  15
ATOM     15  C   UNL     1      -1.683  46.115  27.360  0.00  0.00    +0.000 C 
ATOM     16  C   UNL     1      -0.615  46.282  27.882  0.00  0.00    +0.000 C 
BRANCH  16  17
ATOM     17  C   UNL     1       0.647  46.480  28.492  0.00  0.00    +0.000 C 
ATOM     18  C   UNL     1       1.200  47.866  28.626  0.00  0.00    +0.000 C 
ATOM     19  C   UNL     1       1.332  45.467  28.903  0.00  0.00    +0.000 C 
ATOM     20  O   UNL     1       1.873  43.806  30.435  0.00  0.00    +0.000 OA
ATOM     21  C   UNL     1       2.072  44.344  29.362  0.00  0.00    +0.000 C 
BRANCH  21  22
ATOM     22  O   UNL     1       3.001  43.910  28.495  0.00  0.00    +0.000 OA
ATOM     23  H   UNL     1       3.548  44.703  28.312  0.00  0.00    +0.000 HD
ENDBRANCH  21  22
ENDBRANCH  16  17
ENDBRANCH  14  15
ENDBRANCH   1  14
TORSDOF 6
ENDMDL
MODEL 5
REMARK VINA RESULT:      -6.3      4.310      5.862
REMARK  Name = RetinoicAcid.pdbqt.pdb
REMARK  6 active torsions:
REMARK  status: ('A' for Active; 'I' for Inactive)
REMARK    1  A    between atoms: C_1  and  C_3
REMARK    2  A    between atoms: C_1  and  C_5
REMARK    3  A    between atoms: C_3  and  C_15
REMARK    4  A    between atoms: C_4  and  C_9
REMARK    5  A    between atoms: C_16  and  C_17
REMARK    6  A    between atoms: C_21  and  O_22
REMARK                            x       y       z     vdW  Elec       q    Type
REMARK                         _______ _______ _______ _____ _____    ______ ____
ROOT
ATOM      1  C   UNL     1      -3.540  48.409  26.630  0.00  0.00    +0.000 C 
ATOM      2  C   UNL     1      -2.998  47.017  26.744  0.00  0.00    +0.000 C 
ENDROOT
BRANCH   1   4
ATOM      3  C   UNL     1      -6.016  48.787  25.865  0.00  0.00    +0.000 C 
ATOM      4  C   UNL     1      -4.879  48.618  26.220  0.00  0.00    +0.000 C 
BRANCH   3   8
ATOM      5  C   UNL     1      -8.523  49.068  26.502  0.00  0.00    +0.000 C 
ATOM      6  C   UNL     1      -9.806  49.277  25.790  0.00  0.00    +0.000 C 
ATOM      7  C   UNL     1     -10.381  49.434  24.396  0.00  0.00    +0.000 C 
ATOM      8  C   UNL     1      -7.380  48.983  25.435  0.00  0.00    +0.000 C 
ATOM      9  C   UNL     1      -9.027  49.299  23.734  0.00  0.00    +0.000 C 
ATOM     10  C   UNL     1      -7.670  49.101  24.116  0.00  0.00    +0.000 C 
ATOM     11  C   UNL     1      -8.572  47.735  27.297  0.00  0.00    +0.000 C 
ATOM     12  C   UNL     1      -8.238  50.273  27.443  0.00  0.00    +0.000 C 
ATOM     13  C   UNL     1      -6.648  49.047  23.013  0.00  0.00    +0.000 C 
ENDBRANCH   3   8
ENDBRANCH   1   4
BRANCH   1  14
ATOM     14  C   UNL     1      -2.767  49.424  26.859  0.00  0.00    +0.000 C 
BRANCH  14  15
ATOM     15  C   UNL     1      -1.851  50.624  27.132  0.00  0.00    +0.000 C 
ATOM     16  C   UNL     1      -1.133  51.562  27.345  0.00  0.00    +0.000 C 
BRANCH  16  17
ATOM     17  C   UNL     1      -0.282  52.666  27.595  0.00  0.00    +0.000 C 
ATOM     18  C   UNL     1      -0.004  53.086  29.006  0.00  0.00    +0.000 C 
ATOM     19  C   UNL     1       0.226  53.327  26.610  0.00  0.00    +0.000 C 
ATOM     20  O   UNL     1       1.787  53.673  24.925  0.00  0.00    +0.000 OA
ATOM     21  C   UNL     1       0.789  54.039  25.518  0.00  0.00    +0.000 C 
BRANCH  21  22
ATOM     22  O   UNL     1       0.109  55.145  25.178  0.00  0.00    +0.000 OA
ATOM     23  H   UNL     1       0.706  55.612  24.557  0.00  0.00    +0.000 HD
ENDBRANCH  21  22
ENDBRANCH  16  17
ENDBRANCH  14  15
ENDBRANCH   1  14
TORSDOF 6
ENDMDL
MODEL 6
REMARK VINA RESULT:      -6.0      5.126      6.880
REMARK  Name = RetinoicAcid.pdbqt.pdb
REMARK  6 active torsions:
REMARK  status: ('A' for Active; 'I' for Inactive)
REMARK    1  A    between atoms: C_1  and  C_3
REMARK    2  A    between atoms: C_1  and  C_5
REMARK    3  A    between atoms: C_3  and  C_15
REMARK    4  A    between atoms: C_4  and  C_9
REMARK    5  A    between atoms: C_16  and  C_17
REMARK    6  A    between atoms: C_21  and  O_22
REMARK                            x       y       z     vdW  Elec       q    Type
REMARK                         _______ _______ _______ _____ _____    ______ ____
ROOT
ATOM      1  C   UNL     1      -3.177  50.985  27.862  0.00  0.00    +0.000 C 
ATOM      2  C   UNL     1      -4.138  51.662  28.791  0.00  0.00    +0.000 C 
ENDROOT
BRANCH   1   4
ATOM      3  C   UNL     1      -3.727  48.598  26.933  0.00  0.00    +0.000 C 
ATOM      4  C   UNL     1      -3.470  49.695  27.355  0.00  0.00    +0.000 C 
BRANCH   3   8
ATOM      5  C   UNL     1      -5.537  46.871  26.220  0.00  0.00    +0.000 C 
ATOM      6  C   UNL     1      -5.568  45.486  25.694  0.00  0.00    +0.000 C 
ATOM      7  C   UNL     1      -4.652  44.346  25.294  0.00  0.00    +0.000 C 
ATOM      8  C   UNL     1      -4.041  47.282  26.429  0.00  0.00    +0.000 C 
ATOM      9  C   UNL     1      -3.400  45.124  25.633  0.00  0.00    +0.000 C 
ATOM     10  C   UNL     1      -3.047  46.410  26.132  0.00  0.00    +0.000 C 
ATOM     11  C   UNL     1      -6.274  46.932  27.586  0.00  0.00    +0.000 C 
ATOM     12  C   UNL     1      -6.182  47.842  25.190  0.00  0.00    +0.000 C 
ATOM     13  C   UNL     1      -1.581  46.709  26.283  0.00  0.00    +0.000 C 
ENDBRANCH   3   8
ENDBRANCH   1   4
BRANCH   1  14
ATOM     14  C   UNL     1      -2.056  51.560  27.559  0.00  0.00    +0.000 C 
BRANCH  14  15
ATOM     15  C   UNL     1      -0.728  52.239  27.200  0.00  0.00    +0.000 C 
ATOM     16  C   UNL     1       0.311  52.768  26.917  0.00  0.00    +0.000 C 
BRANCH  16  17
ATOM     17  C   UNL     1       1.536  53.392  26.579  0.00  0.00    +0.000 C 
ATOM     18  C   UNL     1       2.812  52.916  27.206  0.00  0.00    +0.000 C 
ATOM     19  C   UNL     1       1.551  54.388  25.758  0.00  0.00    +0.000 C 
ATOM     20  O   UNL     1       1.537  55.331  23.635  0.00  0.00    +0.000 OA
ATOM     21  C   UNL     1       1.555  55.474  24.844  0.00  0.00    +0.000 C 
BRANCH  21  22
ATOM     22  O   UNL     1       1.557  56.682  25.431  0.00  0.00    +0.000 OA
ATOM     23  H   UNL     1       2.078  57.245  24.820  0.00  0.00    +0.000 HD
ENDBRANCH  21  22
ENDBRANCH  16  17
ENDBRANCH  14  15
ENDBRANCH   1  14
TORSDOF 6
ENDMDL
MODEL 7
REMARK VINA RESULT:      -6.0      4.354      5.981
REMARK  Name = RetinoicAcid.pdbqt.pdb
REMARK  6 active torsions:
REMARK  status: ('A' for Active; 'I' for Inactive)
REMARK    1  A    between atoms: C_1  and  C_3
REMARK    2  A    between atoms: C_1  and  C_5
REMARK    3  A    between atoms: C_3  and  C_15
REMARK    4  A    between atoms: C_4  and  C_9
REMARK    5  A    between atoms: C_16  and  C_17
REMARK    6  A    between atoms: C_21  and  O_22
REMARK                            x       y       z     vdW  Elec       q    Type
REMARK                         _______ _______ _______ _____ _____    ______ ____
ROOT
ATOM      1  C   UNL     1      -2.969  51.205  27.863  0.00  0.00    +0.000 C 
ATOM      2  C   UNL     1      -3.887  51.931  28.797  0.00  0.00    +0.000 C 
ENDROOT
BRANCH   1   4
ATOM      3  C   UNL     1      -3.641  48.845  26.947  0.00  0.00    +0.000 C 
ATOM      4  C   UNL     1      -3.329  49.930  27.363  0.00  0.00    +0.000 C 
BRANCH   3   8
ATOM      5  C   UNL     1      -5.533  47.218  26.210  0.00  0.00    +0.000 C 
ATOM      6  C   UNL     1      -5.633  45.830  25.701  0.00  0.00    +0.000 C 
ATOM      7  C   UNL     1      -4.777  44.631  25.340  0.00  0.00    +0.000 C 
ATOM      8  C   UNL     1      -4.021  47.543  26.452  0.00  0.00    +0.000 C 
ATOM      9  C   UNL     1      -3.489  45.339  25.702  0.00  0.00    +0.000 C 
ATOM     10  C   UNL     1      -3.073  46.609  26.193  0.00  0.00    +0.000 C 
ATOM     11  C   UNL     1      -6.299  47.343  27.555  0.00  0.00    +0.000 C 
ATOM     12  C   UNL     1      -6.092  48.210  25.151  0.00  0.00    +0.000 C 
ATOM     13  C   UNL     1      -1.596  46.822  26.378  0.00  0.00    +0.000 C 
ENDBRANCH   3   8
ENDBRANCH   1   4
BRANCH   1  14
ATOM     14  C   UNL     1      -1.822  51.722  27.552  0.00  0.00    +0.000 C 
BRANCH  14  15
ATOM     15  C   UNL     1      -0.465  52.334  27.181  0.00  0.00    +0.000 C 
ATOM     16  C   UNL     1       0.597  52.812  26.888  0.00  0.00    +0.000 C 
BRANCH  16  17
ATOM     17  C   UNL     1       1.846  53.377  26.539  0.00  0.00    +0.000 C 
ATOM     18  C   UNL     1       1.974  54.184  25.283  0.00  0.00    +0.000 C 
ATOM     19  C   UNL     1       2.880  53.171  27.283  0.00  0.00    +0.000 C 
ATOM     20  O   UNL     1       4.234  53.596  29.123  0.00  0.00    +0.000 OA
ATOM     21  C   UNL     1       4.008  52.948  28.117  0.00  0.00    +0.000 C 
BRANCH  21  22
ATOM     22  O   UNL     1       4.797  51.940  27.712  0.00  0.00    +0.000 OA
ATOM     23  H   UNL     1       5.699  52.221  27.973  0.00  0.00    +0.000 HD
ENDBRANCH  21  22
ENDBRANCH  16  17
ENDBRANCH  14  15
ENDBRANCH   1  14
TORSDOF 6
ENDMDL
MODEL 8
REMARK VINA RESULT:      -5.9     11.069     13.543
REMARK  Name = RetinoicAcid.pdbqt.pdb
REMARK  6 active torsions:
REMARK  status: ('A' for Active; 'I' for Inactive)
REMARK    1  A    between atoms: C_1  and  C_3
REMARK    2  A    between atoms: C_1  and  C_5
REMARK    3  A    between atoms: C_3  and  C_15
REMARK    4  A    between atoms: C_4  and  C_9
REMARK    5  A    between atoms: C_16  and  C_17
REMARK    6  A    between atoms: C_21  and  O_22
REMARK                            x       y       z     vdW  Elec       q    Type
REMARK                         _______ _______ _______ _____ _____    ______ ____
ROOT
ATOM      1  C   UNL     1       1.925  57.381  20.154  0.00  0.00    +0.000 C 
ATOM      2  C   UNL     1       1.523  58.737  19.661  0.00  0.00    +0.000 C 
ENDROOT
BRANCH   1   4
ATOM      3  C   UNL     1       3.457  55.851  18.679  0.00  0.00    +0.000 C 
ATOM      4  C   UNL     1       2.749  56.551  19.355  0.00  0.00    +0.000 C 
BRANCH   3   8
ATOM      5  C   UNL     1       3.692  54.157  16.719  0.00  0.00    +0.000 C 
ATOM      6  C   UNL     1       4.787  53.408  16.058  0.00  0.00    +0.000 C 
ATOM      7  C   UNL     1       6.286  53.192  16.120  0.00  0.00    +0.000 C 
ATOM      8  C   UNL     1       4.313  55.014  17.873  0.00  0.00    +0.000 C 
ATOM      9  C   UNL     1       6.457  54.140  17.287  0.00  0.00    +0.000 C 
ATOM     10  C   UNL     1       5.648  54.975  18.108  0.00  0.00    +0.000 C 
ATOM     11  C   UNL     1       2.664  53.164  17.324  0.00  0.00    +0.000 C 
ATOM     12  C   UNL     1       3.015  55.114  15.697  0.00  0.00    +0.000 C 
ATOM     13  C   UNL     1       6.345  55.767  19.180  0.00  0.00    +0.000 C 
ENDBRANCH   3   8
ENDBRANCH   1   4
BRANCH   1  14
ATOM     14  C   UNL     1       1.481  56.949  21.292  0.00  0.00    +0.000 C 
BRANCH  14  15
ATOM     15  C   UNL     1       0.953  56.435  22.638  0.00  0.00    +0.000 C 
ATOM     16  C   UNL     1       0.539  56.036  23.691  0.00  0.00    +0.000 C 
BRANCH  16  17
ATOM     17  C   UNL     1       0.046  55.567  24.933  0.00  0.00    +0.000 C 
ATOM     18  C   UNL     1      -0.949  56.387  25.696  0.00  0.00    +0.000 C 
ATOM     19  C   UNL     1       0.477  54.453  25.421  0.00  0.00    +0.000 C 
ATOM     20  O   UNL     1       0.511  52.137  25.598  0.00  0.00    +0.000 OA
ATOM     21  C   UNL     1       0.950  53.219  25.941  0.00  0.00    +0.000 C 
BRANCH  21  22
ATOM     22  O   UNL     1       1.946  53.347  26.834  0.00  0.00    +0.000 OA
ATOM     23  H   UNL     1       1.507  53.709  27.632  0.00  0.00    +0.000 HD
ENDBRANCH  21  22
ENDBRANCH  16  17
ENDBRANCH  14  15
ENDBRANCH   1  14
TORSDOF 6
ENDMDL
MODEL 9
REMARK VINA RESULT:      -5.9     22.655     25.025
REMARK  Name = RetinoicAcid.pdbqt.pdb
REMARK  6 active torsions:
REMARK  status: ('A' for Active; 'I' for Inactive)
REMARK    1  A    between atoms: C_1  and  C_3
REMARK    2  A    between atoms: C_1  and  C_5
REMARK    3  A    between atoms: C_3  and  C_15
REMARK    4  A    between atoms: C_4  and  C_9
REMARK    5  A    between atoms: C_16  and  C_17
REMARK    6  A    between atoms: C_21  and  O_22
REMARK                            x       y       z     vdW  Elec       q    Type
REMARK                         _______ _______ _______ _____ _____    ______ ____
ROOT
ATOM      1  C   UNL     1     -23.437  37.111  19.224  0.00  0.00    +0.000 C 
ATOM      2  C   UNL     1     -22.065  37.360  18.677  0.00  0.00    +0.000 C 
ENDROOT
BRANCH   1   4
ATOM      3  C   UNL     1     -24.800  39.064  20.314  0.00  0.00    +0.000 C 
ATOM      4  C   UNL     1     -24.170  38.171  19.811  0.00  0.00    +0.000 C 
BRANCH   3   8
ATOM      5  C   UNL     1     -25.653  41.520  20.203  0.00  0.00    +0.000 C 
ATOM      6  C   UNL     1     -26.491  42.415  21.035  0.00  0.00    +0.000 C 
ATOM      7  C   UNL     1     -27.279  42.443  22.330  0.00  0.00    +0.000 C 
ATOM      8  C   UNL     1     -25.560  40.131  20.920  0.00  0.00    +0.000 C 
ATOM      9  C   UNL     1     -26.938  41.007  22.663  0.00  0.00    +0.000 C 
ATOM     10  C   UNL     1     -26.195  39.930  22.101  0.00  0.00    +0.000 C 
ATOM     11  C   UNL     1     -24.224  42.113  20.063  0.00  0.00    +0.000 C 
ATOM     12  C   UNL     1     -26.316  41.318  18.811  0.00  0.00    +0.000 C 
ATOM     13  C   UNL     1     -26.181  38.635  22.864  0.00  0.00    +0.000 C 
ENDBRANCH   3   8
ENDBRANCH   1   4
BRANCH   1  14
ATOM     14  C   UNL     1     -23.934  35.915  19.202  0.00  0.00    +0.000 C 
BRANCH  14  15
ATOM     15  C   UNL     1     -24.522  34.498  19.179  0.00  0.00    +0.000 C 
ATOM     16  C   UNL     1     -24.983  33.390  19.162  0.00  0.00    +0.000 C 
BRANCH  16  17
ATOM     17  C   UNL     1     -25.532  32.085  19.142  0.00  0.00    +0.000 C 
ATOM     18  C   UNL     1     -26.897  31.861  18.566  0.00  0.00    +0.000 C 
ATOM     19  C   UNL     1     -24.873  31.098  19.647  0.00  0.00    +0.000 C 
ATOM     20  O   UNL     1     -23.256  29.430  19.586  0.00  0.00    +0.000 OA
ATOM     21  C   UNL     1     -24.132  30.017  20.195  0.00  0.00    +0.000 C 
BRANCH  21  22
ATOM     22  O   UNL     1     -24.465  29.711  21.459  0.00  0.00    +0.000 OA
ATOM     23  H   UNL     1     -25.248  30.270  21.643  0.00  0.00    +0.000 HD
ENDBRANCH  21  22
ENDBRANCH  16  17
ENDBRANCH  14  15
ENDBRANCH   1  14
TORSDOF 6
ENDMDL
