MODEL 1
REMARK VINA RESULT:      -7.4      0.000      0.000
REMARK  Name = SB_202190.pdbqt.pdb
REMARK  4 active torsions:
REMARK  status: ('A' for Active; 'I' for Inactive)
REMARK    1  A    between atoms: C_4  and  C_7
REMARK    2  A    between atoms: C_5  and  C_19
REMARK    3  A    between atoms: C_6  and  C_8
REMARK    4  A    between atoms: C_15  and  O_26
REMARK                            x       y       z     vdW  Elec       q    Type
REMARK                         _______ _______ _______ _____ _____    ______ ____
ROOT
ATOM      1  N   UNL     1      -4.875  49.223  26.277  0.00  0.00    +0.000 N 
ATOM      2  N   UNL     1      -4.692  47.039  26.446  0.00  0.00    +0.000 NA
ATOM      3  C   UNL     1      -3.647  49.015  26.873  0.00  0.00    +0.000 A 
ATOM      4  C   UNL     1      -3.576  47.635  26.992  0.00  0.00    +0.000 A 
ATOM      5  C   UNL     1      -5.470  48.011  26.020  0.00  0.00    +0.000 A 
ATOM      6  H   UNL     1      -5.265  50.121  26.029  0.00  0.00    +0.000 HD
ENDROOT
BRANCH   4   7
ATOM      7  C   UNL     1      -2.528  46.844  27.603  0.00  0.00    +0.000 A 
ATOM      8  C   UNL     1      -1.240  46.804  27.064  0.00  0.00    +0.000 A 
ATOM      9  C   UNL     1      -0.232  46.075  27.690  0.00  0.00    +0.000 A 
ATOM     10  C   UNL     1      -0.516  45.399  28.870  0.00  0.00    +0.000 A 
ATOM     11  F   UNL     1       0.450  44.693  29.473  0.00  0.00    +0.000 F 
ATOM     12  C   UNL     1      -1.786  45.441  29.434  0.00  0.00    +0.000 A 
ATOM     13  C   UNL     1      -2.788  46.172  28.800  0.00  0.00    +0.000 A 
ENDBRANCH   4   7
BRANCH   3  15
ATOM     14  N   UNL     1      -1.031  52.264  27.770  0.00  0.00    +0.000 NA
ATOM     15  C   UNL     1      -2.742  50.116  27.193  0.00  0.00    +0.000 A 
ATOM     16  C   UNL     1      -1.494  50.213  26.582  0.00  0.00    +0.000 A 
ATOM     17  C   UNL     1      -3.131  51.113  28.087  0.00  0.00    +0.000 A 
ATOM     18  C   UNL     1      -0.683  51.289  26.903  0.00  0.00    +0.000 A 
ATOM     19  C   UNL     1      -2.247  52.149  28.343  0.00  0.00    +0.000 A 
ENDBRANCH   3  15
BRANCH   5  20
ATOM     20  C   UNL     1      -6.767  47.857  25.371  0.00  0.00    +0.000 A 
ATOM     21  C   UNL     1      -7.568  46.753  25.675  0.00  0.00    +0.000 A 
ATOM     22  C   UNL     1      -7.233  48.796  24.446  0.00  0.00    +0.000 A 
ATOM     23  C   UNL     1      -8.811  46.586  25.069  0.00  0.00    +0.000 A 
ATOM     24  C   UNL     1      -8.474  48.638  23.834  0.00  0.00    +0.000 A 
ATOM     25  C   UNL     1      -9.254  47.533  24.151  0.00  0.00    +0.000 A 
BRANCH  25  26
ATOM     26  O   UNL     1     -10.466  47.397  23.540  0.00  0.00    +0.000 OA
ATOM     27  H   UNL     1     -10.779  48.282  23.285  0.00  0.00    +0.000 HD
ENDBRANCH  25  26
ENDBRANCH   5  20
TORSDOF 4
ENDMDL
MODEL 2
REMARK VINA RESULT:      -7.4      2.069      4.282
REMARK  Name = SB_202190.pdbqt.pdb
REMARK  4 active torsions:
REMARK  status: ('A' for Active; 'I' for Inactive)
REMARK    1  A    between atoms: C_4  and  C_7
REMARK    2  A    between atoms: C_5  and  C_19
REMARK    3  A    between atoms: C_6  and  C_8
REMARK    4  A    between atoms: C_15  and  O_26
REMARK                            x       y       z     vdW  Elec       q    Type
REMARK                         _______ _______ _______ _____ _____    ______ ____
ROOT
ATOM      1  N   UNL     1      -4.607  47.146  26.541  0.00  0.00    +0.000 N 
ATOM      2  N   UNL     1      -4.889  49.317  26.339  0.00  0.00    +0.000 NA
ATOM      3  C   UNL     1      -3.463  47.704  27.076  0.00  0.00    +0.000 A 
ATOM      4  C   UNL     1      -3.659  49.067  26.906  0.00  0.00    +0.000 A 
ATOM      5  C   UNL     1      -5.450  48.147  26.121  0.00  0.00    +0.000 A 
ATOM      6  H   UNL     1      -4.815  46.159  26.498  0.00  0.00    +0.000 HD
ENDROOT
BRANCH   4   7
ATOM      7  C   UNL     1      -2.751  50.147  27.233  0.00  0.00    +0.000 A 
ATOM      8  C   UNL     1      -1.492  50.243  26.637  0.00  0.00    +0.000 A 
ATOM      9  C   UNL     1      -0.650  51.314  26.928  0.00  0.00    +0.000 A 
ATOM     10  C   UNL     1      -1.084  52.299  27.808  0.00  0.00    +0.000 A 
ATOM     11  F   UNL     1      -0.275  53.328  28.094  0.00  0.00    +0.000 F 
ATOM     12  C   UNL     1      -2.340  52.232  28.398  0.00  0.00    +0.000 A 
ATOM     13  C   UNL     1      -3.175  51.157  28.101  0.00  0.00    +0.000 A 
ENDBRANCH   4   7
BRANCH   3  15
ATOM     14  N   UNL     1      -0.376  45.372  28.876  0.00  0.00    +0.000 NA
ATOM     15  C   UNL     1      -2.411  46.891  27.681  0.00  0.00    +0.000 A 
ATOM     16  C   UNL     1      -1.152  46.802  27.091  0.00  0.00    +0.000 A 
ATOM     17  C   UNL     1      -2.638  46.221  28.883  0.00  0.00    +0.000 A 
ATOM     18  C   UNL     1      -0.182  46.037  27.717  0.00  0.00    +0.000 A 
ATOM     19  C   UNL     1      -1.602  45.480  29.429  0.00  0.00    +0.000 A 
ENDBRANCH   3  15
BRANCH   5  20
ATOM     20  C   UNL     1      -6.763  47.915  25.528  0.00  0.00    +0.000 A 
ATOM     21  C   UNL     1      -7.131  48.602  24.368  0.00  0.00    +0.000 A 
ATOM     22  C   UNL     1      -7.668  47.014  26.096  0.00  0.00    +0.000 A 
ATOM     23  C   UNL     1      -8.378  48.397  23.783  0.00  0.00    +0.000 A 
ATOM     24  C   UNL     1      -8.918  46.802  25.519  0.00  0.00    +0.000 A 
ATOM     25  C   UNL     1      -9.263  47.496  24.366  0.00  0.00    +0.000 A 
BRANCH  25  26
ATOM     26  O   UNL     1     -10.492  47.273  23.817  0.00  0.00    +0.000 OA
ATOM     27  H   UNL     1     -11.006  46.724  24.435  0.00  0.00    +0.000 HD
ENDBRANCH  25  26
ENDBRANCH   5  20
TORSDOF 4
ENDMDL
MODEL 3
REMARK VINA RESULT:      -7.2      3.272      5.666
REMARK  Name = SB_202190.pdbqt.pdb
REMARK  4 active torsions:
REMARK  status: ('A' for Active; 'I' for Inactive)
REMARK    1  A    between atoms: C_4  and  C_7
REMARK    2  A    between atoms: C_5  and  C_19
REMARK    3  A    between atoms: C_6  and  C_8
REMARK    4  A    between atoms: C_15  and  O_26
REMARK                            x       y       z     vdW  Elec       q    Type
REMARK                         _______ _______ _______ _____ _____    ______ ____
ROOT
ATOM      1  N   UNL     1      -2.529  45.621  29.095  0.00  0.00    +0.000 N 
ATOM      2  N   UNL     1      -1.103  46.379  27.603  0.00  0.00    +0.000 NA
ATOM      3  C   UNL     1      -1.284  45.390  29.646  0.00  0.00    +0.000 A 
ATOM      4  C   UNL     1      -0.410  45.850  28.670  0.00  0.00    +0.000 A 
ATOM      5  C   UNL     1      -2.383  46.231  27.872  0.00  0.00    +0.000 A 
ATOM      6  H   UNL     1      -3.414  45.412  29.534  0.00  0.00    +0.000 HD
ENDROOT
BRANCH   4   7
ATOM      7  C   UNL     1       1.037  45.809  28.677  0.00  0.00    +0.000 A 
ATOM      8  C   UNL     1       1.794  46.905  29.094  0.00  0.00    +0.000 A 
ATOM      9  C   UNL     1       3.184  46.832  29.138  0.00  0.00    +0.000 A 
ATOM     10  C   UNL     1       3.813  45.646  28.776  0.00  0.00    +0.000 A 
ATOM     11  F   UNL     1       5.150  45.573  28.812  0.00  0.00    +0.000 F 
ATOM     12  C   UNL     1       3.078  44.537  28.375  0.00  0.00    +0.000 A 
ATOM     13  C   UNL     1       1.688  44.620  28.334  0.00  0.00    +0.000 A 
ENDBRANCH   4   7
BRANCH   3  15
ATOM     14  N   UNL     1      -0.845  43.708  33.541  0.00  0.00    +0.000 NA
ATOM     15  C   UNL     1      -1.117  44.824  30.981  0.00  0.00    +0.000 A 
ATOM     16  C   UNL     1      -1.522  45.532  32.111  0.00  0.00    +0.000 A 
ATOM     17  C   UNL     1      -0.585  43.545  31.145  0.00  0.00    +0.000 A 
ATOM     18  C   UNL     1      -1.363  44.940  33.353  0.00  0.00    +0.000 A 
ATOM     19  C   UNL     1      -0.466  43.042  32.431  0.00  0.00    +0.000 A 
ENDBRANCH   3  15
BRANCH   5  20
ATOM     20  C   UNL     1      -3.497  46.641  27.025  0.00  0.00    +0.000 A 
ATOM     21  C   UNL     1      -4.118  45.704  26.193  0.00  0.00    +0.000 A 
ATOM     22  C   UNL     1      -3.964  47.959  27.025  0.00  0.00    +0.000 A 
ATOM     23  C   UNL     1      -5.183  46.072  25.375  0.00  0.00    +0.000 A 
ATOM     24  C   UNL     1      -5.028  48.337  26.210  0.00  0.00    +0.000 A 
ATOM     25  C   UNL     1      -5.630  47.390  25.392  0.00  0.00    +0.000 A 
BRANCH  25  26
ATOM     26  O   UNL     1      -6.672  47.781  24.603  0.00  0.00    +0.000 OA
ATOM     27  H   UNL     1      -6.517  48.702  24.329  0.00  0.00    +0.000 HD
ENDBRANCH  25  26
ENDBRANCH   5  20
TORSDOF 4
ENDMDL
MODEL 4
REMARK VINA RESULT:      -6.9      4.191      6.963
REMARK  Name = SB_202190.pdbqt.pdb
REMARK  4 active torsions:
REMARK  status: ('A' for Active; 'I' for Inactive)
REMARK    1  A    between atoms: C_4  and  C_7
REMARK    2  A    between atoms: C_5  and  C_19
REMARK    3  A    between atoms: C_6  and  C_8
REMARK    4  A    between atoms: C_15  and  O_26
REMARK                            x       y       z     vdW  Elec       q    Type
REMARK                         _______ _______ _______ _____ _____    ______ ____
ROOT
ATOM      1  N   UNL     1      -0.269  48.640  28.203  0.00  0.00    +0.000 N 
ATOM      2  N   UNL     1      -2.152  48.891  27.098  0.00  0.00    +0.000 NA
ATOM      3  C   UNL     1      -0.743  47.357  28.015  0.00  0.00    +0.000 A 
ATOM      4  C   UNL     1      -1.943  47.552  27.345  0.00  0.00    +0.000 A 
ATOM      5  C   UNL     1      -1.134  49.537  27.624  0.00  0.00    +0.000 A 
ATOM      6  H   UNL     1       0.599  48.886  28.658  0.00  0.00    +0.000 HD
ENDROOT
BRANCH   4   7
ATOM      7  C   UNL     1      -2.909  46.554  26.937  0.00  0.00    +0.000 A 
ATOM      8  C   UNL     1      -2.941  46.065  25.629  0.00  0.00    +0.000 A 
ATOM      9  C   UNL     1      -3.847  45.072  25.265  0.00  0.00    +0.000 A 
ATOM     10  C   UNL     1      -4.713  44.559  26.224  0.00  0.00    +0.000 A 
ATOM     11  F   UNL     1      -5.589  43.607  25.877  0.00  0.00    +0.000 F 
ATOM     12  C   UNL     1      -4.685  45.018  27.536  0.00  0.00    +0.000 A 
ATOM     13  C   UNL     1      -3.776  46.012  27.890  0.00  0.00    +0.000 A 
ENDBRANCH   4   7
BRANCH   3  15
ATOM     14  N   UNL     1       1.410  43.887  29.250  0.00  0.00    +0.000 NA
ATOM     15  C   UNL     1       0.003  46.180  28.451  0.00  0.00    +0.000 A 
ATOM     16  C   UNL     1      -0.413  45.441  29.557  0.00  0.00    +0.000 A 
ATOM     17  C   UNL     1       1.125  45.752  27.742  0.00  0.00    +0.000 A 
ATOM     18  C   UNL     1       0.317  44.319  29.914  0.00  0.00    +0.000 A 
ATOM     19  C   UNL     1       1.789  44.618  28.181  0.00  0.00    +0.000 A 
ENDBRANCH   3  15
BRANCH   5  20
ATOM     20  C   UNL     1      -0.927  50.981  27.611  0.00  0.00    +0.000 A 
ATOM     21  C   UNL     1       0.105  51.527  26.842  0.00  0.00    +0.000 A 
ATOM     22  C   UNL     1      -1.743  51.839  28.354  0.00  0.00    +0.000 A 
ATOM     23  C   UNL     1       0.321  52.903  26.814  0.00  0.00    +0.000 A 
ATOM     24  C   UNL     1      -1.535  53.216  28.333  0.00  0.00    +0.000 A 
ATOM     25  C   UNL     1      -0.504  53.737  27.562  0.00  0.00    +0.000 A 
BRANCH  25  26
ATOM     26  O   UNL     1      -0.318  55.088  27.555  0.00  0.00    +0.000 OA
ATOM     27  H   UNL     1      -0.705  55.453  28.370  0.00  0.00    +0.000 HD
ENDBRANCH  25  26
ENDBRANCH   5  20
TORSDOF 4
ENDMDL
MODEL 5
REMARK VINA RESULT:      -6.6      3.452      6.512
REMARK  Name = SB_202190.pdbqt.pdb
REMARK  4 active torsions:
REMARK  status: ('A' for Active; 'I' for Inactive)
REMARK    1  A    between atoms: C_4  and  C_7
REMARK    2  A    between atoms: C_5  and  C_19
REMARK    3  A    between atoms: C_6  and  C_8
REMARK    4  A    between atoms: C_15  and  O_26
REMARK                            x       y       z     vdW  Elec       q    Type
REMARK                         _______ _______ _______ _____ _____    ______ ____
ROOT
ATOM      1  N   UNL     1      -2.238  49.323  26.749  0.00  0.00    +0.000 N 
ATOM      2  N   UNL     1      -0.663  49.009  28.250  0.00  0.00    +0.000 NA
ATOM      3  C   UNL     1      -2.335  47.989  27.090  0.00  0.00    +0.000 A 
ATOM      4  C   UNL     1      -1.312  47.818  28.012  0.00  0.00    +0.000 A 
ATOM      5  C   UNL     1      -1.232  49.911  27.477  0.00  0.00    +0.000 A 
ATOM      6  H   UNL     1      -2.837  49.808  26.096  0.00  0.00    +0.000 HD
ENDROOT
BRANCH   4   7
ATOM      7  C   UNL     1      -0.899  46.596  28.672  0.00  0.00    +0.000 A 
ATOM      8  C   UNL     1       0.342  46.013  28.411  0.00  0.00    +0.000 A 
ATOM      9  C   UNL     1       0.742  44.863  29.088  0.00  0.00    +0.000 A 
ATOM     10  C   UNL     1      -0.103  44.310  30.042  0.00  0.00    +0.000 A 
ATOM     11  F   UNL     1       0.275  43.201  30.693  0.00  0.00    +0.000 F 
ATOM     12  C   UNL     1      -1.335  44.885  30.331  0.00  0.00    +0.000 A 
ATOM     13  C   UNL     1      -1.726  46.034  29.648  0.00  0.00    +0.000 A 
ENDBRANCH   4   7
BRANCH   3  15
ATOM     14  N   UNL     1      -5.348  45.467  25.428  0.00  0.00    +0.000 NA
ATOM     15  C   UNL     1      -3.369  47.118  26.539  0.00  0.00    +0.000 A 
ATOM     16  C   UNL     1      -4.716  47.455  26.646  0.00  0.00    +0.000 A 
ATOM     17  C   UNL     1      -3.021  45.951  25.858  0.00  0.00    +0.000 A 
ATOM     18  C   UNL     1      -5.656  46.606  26.085  0.00  0.00    +0.000 A 
ATOM     19  C   UNL     1      -4.036  45.167  25.334  0.00  0.00    +0.000 A 
ENDBRANCH   3  15
BRANCH   5  20
ATOM     20  C   UNL     1      -0.873  51.322  27.386  0.00  0.00    +0.000 A 
ATOM     21  C   UNL     1      -1.514  52.255  28.205  0.00  0.00    +0.000 A 
ATOM     22  C   UNL     1       0.106  51.766  26.493  0.00  0.00    +0.000 A 
ATOM     23  C   UNL     1      -1.188  53.607  28.136  0.00  0.00    +0.000 A 
ATOM     24  C   UNL     1       0.440  53.116  26.416  0.00  0.00    +0.000 A 
ATOM     25  C   UNL     1      -0.210  54.026  27.240  0.00  0.00    +0.000 A 
BRANCH  25  26
ATOM     26  O   UNL     1       0.132  55.344  27.149  0.00  0.00    +0.000 OA
ATOM     27  H   UNL     1       1.049  55.442  27.460  0.00  0.00    +0.000 HD
ENDBRANCH  25  26
ENDBRANCH   5  20
TORSDOF 4
ENDMDL
MODEL 6
REMARK VINA RESULT:      -6.4     22.194     24.079
REMARK  Name = SB_202190.pdbqt.pdb
REMARK  4 active torsions:
REMARK  status: ('A' for Active; 'I' for Inactive)
REMARK    1  A    between atoms: C_4  and  C_7
REMARK    2  A    between atoms: C_5  and  C_19
REMARK    3  A    between atoms: C_6  and  C_8
REMARK    4  A    between atoms: C_15  and  O_26
REMARK                            x       y       z     vdW  Elec       q    Type
REMARK                         _______ _______ _______ _____ _____    ______ ____
ROOT
ATOM      1  N   UNL     1     -25.455  41.724  20.180  0.00  0.00    +0.000 N 
ATOM      2  N   UNL     1     -24.492  40.543  18.596  0.00  0.00    +0.000 NA
ATOM      3  C   UNL     1     -25.514  40.418  20.626  0.00  0.00    +0.000 A 
ATOM      4  C   UNL     1     -24.927  39.699  19.594  0.00  0.00    +0.000 A 
ATOM      5  C   UNL     1     -24.819  41.764  18.963  0.00  0.00    +0.000 A 
ATOM      6  H   UNL     1     -25.789  42.533  20.684  0.00  0.00    +0.000 HD
ENDROOT
BRANCH   4   7
ATOM      7  C   UNL     1     -24.766  38.264  19.485  0.00  0.00    +0.000 A 
ATOM      8  C   UNL     1     -25.870  37.411  19.425  0.00  0.00    +0.000 A 
ATOM      9  C   UNL     1     -25.697  36.038  19.274  0.00  0.00    +0.000 A 
ATOM     10  C   UNL     1     -24.410  35.523  19.166  0.00  0.00    +0.000 A 
ATOM     11  F   UNL     1     -24.240  34.202  19.025  0.00  0.00    +0.000 F 
ATOM     12  C   UNL     1     -23.298  36.356  19.204  0.00  0.00    +0.000 A 
ATOM     13  C   UNL     1     -23.482  37.729  19.357  0.00  0.00    +0.000 A 
ENDBRANCH   4   7
BRANCH   3  15
ATOM     14  N   UNL     1     -27.080  39.423  24.468  0.00  0.00    +0.000 NA
ATOM     15  C   UNL     1     -26.063  40.066  21.932  0.00  0.00    +0.000 A 
ATOM     16  C   UNL     1     -25.675  38.893  22.576  0.00  0.00    +0.000 A 
ATOM     17  C   UNL     1     -26.957  40.921  22.577  0.00  0.00    +0.000 A 
ATOM     18  C   UNL     1     -26.207  38.618  23.825  0.00  0.00    +0.000 A 
ATOM     19  C   UNL     1     -27.435  40.555  23.825  0.00  0.00    +0.000 A 
ENDBRANCH   3  15
BRANCH   5  20
ATOM     20  C   UNL     1     -24.562  42.989  18.214  0.00  0.00    +0.000 A 
ATOM     21  C   UNL     1     -25.474  43.414  17.244  0.00  0.00    +0.000 A 
ATOM     22  C   UNL     1     -23.416  43.755  18.446  0.00  0.00    +0.000 A 
ATOM     23  C   UNL     1     -25.250  44.581  16.517  0.00  0.00    +0.000 A 
ATOM     24  C   UNL     1     -23.182  44.923  17.725  0.00  0.00    +0.000 A 
ATOM     25  C   UNL     1     -24.102  45.327  16.765  0.00  0.00    +0.000 A 
BRANCH  25  26
ATOM     26  O   UNL     1     -23.854  46.475  16.070  0.00  0.00    +0.000 OA
ATOM     27  H   UNL     1     -22.890  46.568  15.972  0.00  0.00    +0.000 HD
ENDBRANCH  25  26
ENDBRANCH   5  20
TORSDOF 4
ENDMDL
MODEL 7
REMARK VINA RESULT:      -6.1     25.377     26.726
REMARK  Name = SB_202190.pdbqt.pdb
REMARK  4 active torsions:
REMARK  status: ('A' for Active; 'I' for Inactive)
REMARK    1  A    between atoms: C_4  and  C_7
REMARK    2  A    between atoms: C_5  and  C_19
REMARK    3  A    between atoms: C_6  and  C_8
REMARK    4  A    between atoms: C_15  and  O_26
REMARK                            x       y       z     vdW  Elec       q    Type
REMARK                         _______ _______ _______ _____ _____    ______ ____
ROOT
ATOM      1  N   UNL     1     -18.414  27.487  21.296  0.00  0.00    +0.000 N 
ATOM      2  N   UNL     1     -19.945  28.961  20.733  0.00  0.00    +0.000 NA
ATOM      3  C   UNL     1     -18.375  27.529  19.916  0.00  0.00    +0.000 A 
ATOM      4  C   UNL     1     -19.369  28.442  19.594  0.00  0.00    +0.000 A 
ATOM      5  C   UNL     1     -19.360  28.372  21.754  0.00  0.00    +0.000 A 
ATOM      6  H   UNL     1     -17.816  26.925  21.884  0.00  0.00    +0.000 HD
ENDROOT
BRANCH   4   7
ATOM      7  C   UNL     1     -19.819  28.844  18.277  0.00  0.00    +0.000 A 
ATOM      8  C   UNL     1     -19.154  29.835  17.553  0.00  0.00    +0.000 A 
ATOM      9  C   UNL     1     -19.573  30.177  16.270  0.00  0.00    +0.000 A 
ATOM     10  C   UNL     1     -20.653  29.507  15.707  0.00  0.00    +0.000 A 
ATOM     11  F   UNL     1     -21.062  29.836  14.475  0.00  0.00    +0.000 F 
ATOM     12  C   UNL     1     -21.317  28.504  16.403  0.00  0.00    +0.000 A 
ATOM     13  C   UNL     1     -20.892  28.170  17.687  0.00  0.00    +0.000 A 
ENDBRANCH   4   7
BRANCH   3  15
ATOM     14  N   UNL     1     -15.559  25.223  17.691  0.00  0.00    +0.000 NA
ATOM     15  C   UNL     1     -17.409  26.755  19.142  0.00  0.00    +0.000 A 
ATOM     16  C   UNL     1     -16.040  26.933  19.326  0.00  0.00    +0.000 A 
ATOM     17  C   UNL     1     -17.844  25.792  18.231  0.00  0.00    +0.000 A 
ATOM     18  C   UNL     1     -15.167  26.155  18.584  0.00  0.00    +0.000 A 
ATOM     19  C   UNL     1     -16.890  25.066  17.535  0.00  0.00    +0.000 A 
ENDBRANCH   3  15
BRANCH   5  20
ATOM     20  C   UNL     1     -19.648  28.603  23.166  0.00  0.00    +0.000 A 
ATOM     21  C   UNL     1     -20.412  29.711  23.545  0.00  0.00    +0.000 A 
ATOM     22  C   UNL     1     -19.176  27.736  24.155  0.00  0.00    +0.000 A 
ATOM     23  C   UNL     1     -20.700  29.952  24.886  0.00  0.00    +0.000 A 
ATOM     24  C   UNL     1     -19.459  27.968  25.499  0.00  0.00    +0.000 A 
ATOM     25  C   UNL     1     -20.220  29.075  25.854  0.00  0.00    +0.000 A 
BRANCH  25  26
ATOM     26  O   UNL     1     -20.485  29.283  27.176  0.00  0.00    +0.000 OA
ATOM     27  H   UNL     1     -20.437  28.427  27.635  0.00  0.00    +0.000 HD
ENDBRANCH  25  26
ENDBRANCH   5  20
TORSDOF 4
ENDMDL
MODEL 8
REMARK VINA RESULT:      -6.0      4.373      7.430
REMARK  Name = SB_202190.pdbqt.pdb
REMARK  4 active torsions:
REMARK  status: ('A' for Active; 'I' for Inactive)
REMARK    1  A    between atoms: C_4  and  C_7
REMARK    2  A    between atoms: C_5  and  C_19
REMARK    3  A    between atoms: C_6  and  C_8
REMARK    4  A    between atoms: C_15  and  O_26
REMARK                            x       y       z     vdW  Elec       q    Type
REMARK                         _______ _______ _______ _____ _____    ______ ____
ROOT
ATOM      1  N   UNL     1      -4.352  46.916  26.704  0.00  0.00    +0.000 N 
ATOM      2  N   UNL     1      -4.384  47.309  28.867  0.00  0.00    +0.000 NA
ATOM      3  C   UNL     1      -5.615  47.414  26.955  0.00  0.00    +0.000 A 
ATOM      4  C   UNL     1      -5.613  47.621  28.327  0.00  0.00    +0.000 A 
ATOM      5  C   UNL     1      -3.632  46.881  27.875  0.00  0.00    +0.000 A 
ATOM      6  H   UNL     1      -3.992  46.654  25.798  0.00  0.00    +0.000 HD
ENDROOT
BRANCH   4   7
ATOM      7  C   UNL     1      -6.702  48.083  29.162  0.00  0.00    +0.000 A 
ATOM      8  C   UNL     1      -7.572  49.087  28.732  0.00  0.00    +0.000 A 
ATOM      9  C   UNL     1      -8.642  49.486  29.529  0.00  0.00    +0.000 A 
ATOM     10  C   UNL     1      -8.847  48.861  30.754  0.00  0.00    +0.000 A 
ATOM     11  F   UNL     1      -9.873  49.246  31.525  0.00  0.00    +0.000 F 
ATOM     12  C   UNL     1      -8.004  47.847  31.193  0.00  0.00    +0.000 A 
ATOM     13  C   UNL     1      -6.935  47.456  30.389  0.00  0.00    +0.000 A 
ENDBRANCH   4   7
BRANCH   3  15
ATOM     14  N   UNL     1      -8.427  48.046  23.810  0.00  0.00    +0.000 NA
ATOM     15  C   UNL     1      -6.586  47.644  25.889  0.00  0.00    +0.000 A 
ATOM     16  C   UNL     1      -6.391  48.658  24.954  0.00  0.00    +0.000 A 
ATOM     17  C   UNL     1      -7.707  46.824  25.765  0.00  0.00    +0.000 A 
ATOM     18  C   UNL     1      -7.330  48.819  23.948  0.00  0.00    +0.000 A 
ATOM     19  C   UNL     1      -8.589  47.068  24.724  0.00  0.00    +0.000 A 
ENDBRANCH   3  15
BRANCH   5  20
ATOM     20  C   UNL     1      -2.247  46.434  27.971  0.00  0.00    +0.000 A 
ATOM     21  C   UNL     1      -1.820  45.740  29.106  0.00  0.00    +0.000 A 
ATOM     22  C   UNL     1      -1.330  46.683  26.946  0.00  0.00    +0.000 A 
ATOM     23  C   UNL     1      -0.503  45.302  29.221  0.00  0.00    +0.000 A 
ATOM     24  C   UNL     1      -0.011  46.250  27.050  0.00  0.00    +0.000 A 
ATOM     25  C   UNL     1       0.392  45.562  28.188  0.00  0.00    +0.000 A 
BRANCH  25  26
ATOM     26  O   UNL     1       1.689  45.146  28.270  0.00  0.00    +0.000 OA
ATOM     27  H   UNL     1       2.022  45.360  29.159  0.00  0.00    +0.000 HD
ENDBRANCH  25  26
ENDBRANCH   5  20
TORSDOF 4
ENDMDL
MODEL 9
REMARK VINA RESULT:      -6.0      2.705      3.574
REMARK  Name = SB_202190.pdbqt.pdb
REMARK  4 active torsions:
REMARK  status: ('A' for Active; 'I' for Inactive)
REMARK    1  A    between atoms: C_4  and  C_7
REMARK    2  A    between atoms: C_5  and  C_19
REMARK    3  A    between atoms: C_6  and  C_8
REMARK    4  A    between atoms: C_15  and  O_26
REMARK                            x       y       z     vdW  Elec       q    Type
REMARK                         _______ _______ _______ _____ _____    ______ ____
ROOT
ATOM      1  N   UNL     1      -7.489  48.826  27.772  0.00  0.00    +0.000 N 
ATOM      2  N   UNL     1      -6.633  48.102  25.881  0.00  0.00    +0.000 NA
ATOM      3  C   UNL     1      -6.161  48.577  28.056  0.00  0.00    +0.000 A 
ATOM      4  C   UNL     1      -5.660  48.094  26.856  0.00  0.00    +0.000 A 
ATOM      5  C   UNL     1      -7.735  48.544  26.449  0.00  0.00    +0.000 A 
ATOM      6  H   UNL     1      -8.170  49.196  28.419  0.00  0.00    +0.000 HD
ENDROOT
BRANCH   4   7
ATOM      7  C   UNL     1      -4.323  47.613  26.576  0.00  0.00    +0.000 A 
ATOM      8  C   UNL     1      -3.198  48.398  26.838  0.00  0.00    +0.000 A 
ATOM      9  C   UNL     1      -1.918  47.901  26.606  0.00  0.00    +0.000 A 
ATOM     10  C   UNL     1      -1.769  46.606  26.124  0.00  0.00    +0.000 A 
ATOM     11  F   UNL     1      -0.539  46.127  25.895  0.00  0.00    +0.000 F 
ATOM     12  C   UNL     1      -2.874  45.802  25.873  0.00  0.00    +0.000 A 
ATOM     13  C   UNL     1      -4.151  46.307  26.108  0.00  0.00    +0.000 A 
ENDBRANCH   4   7
BRANCH   3  15
ATOM     14  N   UNL     1      -4.510  49.377  31.908  0.00  0.00    +0.000 NA
ATOM     15  C   UNL     1      -5.580  48.859  29.366  0.00  0.00    +0.000 A 
ATOM     16  C   UNL     1      -5.728  50.112  29.956  0.00  0.00    +0.000 A 
ATOM     17  C   UNL     1      -4.900  47.863  30.067  0.00  0.00    +0.000 A 
ATOM     18  C   UNL     1      -5.179  50.320  31.211  0.00  0.00    +0.000 A 
ATOM     19  C   UNL     1      -4.385  48.172  31.316  0.00  0.00    +0.000 A 
ENDBRANCH   3  15
BRANCH   5  20
ATOM     20  C   UNL     1      -9.030  48.719  25.802  0.00  0.00    +0.000 A 
ATOM     21  C   UNL     1     -10.180  48.192  26.398  0.00  0.00    +0.000 A 
ATOM     22  C   UNL     1      -9.151  49.408  24.592  0.00  0.00    +0.000 A 
ATOM     23  C   UNL     1     -11.428  48.347  25.799  0.00  0.00    +0.000 A 
ATOM     24  C   UNL     1     -10.394  49.568  23.985  0.00  0.00    +0.000 A 
ATOM     25  C   UNL     1     -11.523  49.036  24.595  0.00  0.00    +0.000 A 
BRANCH  25  26
ATOM     26  O   UNL     1     -12.732  49.205  23.983  0.00  0.00    +0.000 OA
ATOM     27  H   UNL     1     -12.760  50.102  23.608  0.00  0.00    +0.000 HD
ENDBRANCH  25  26
ENDBRANCH   5  20
TORSDOF 4
ENDMDL
