MODEL 1
REMARK VINA RESULT:      -7.0      0.000      0.000
REMARK  Name = Simvastatin.pdbqt.pdb
REMARK  7 active torsions:
REMARK  status: ('A' for Active; 'I' for Inactive)
REMARK    1  A    between atoms: C_2  and  C_13
REMARK    2  A    between atoms: C_3  and  O_24
REMARK    3  A    between atoms: C_14  and  C_15
REMARK    4  A    between atoms: C_20  and  O_22
REMARK    5  A    between atoms: O_24  and  C_25
REMARK    6  A    between atoms: C_25  and  C_27
REMARK    7  A    between atoms: C_27  and  C_30
REMARK                            x       y       z     vdW  Elec       q    Type
REMARK                         _______ _______ _______ _____ _____    ______ ____
ROOT
ATOM      1  C   UNL     1      -3.639  48.762  26.717  0.00  0.00    +0.000 A 
ATOM      2  C   UNL     1      -4.412  47.534  26.286  0.00  0.00    +0.000 A 
ATOM      3  C   UNL     1      -4.243  50.017  27.290  0.00  0.00    +0.000 A 
ATOM      4  C   UNL     1      -3.690  46.262  26.016  0.00  0.00    +0.000 A 
ATOM      5  C   UNL     1      -2.100  48.679  26.633  0.00  0.00    +0.000 A 
ATOM      6  C   UNL     1      -3.233  50.955  27.698  0.00  0.00    +0.000 A 
ATOM      7  C   UNL     1      -1.803  50.931  27.709  0.00  0.00    +0.000 A 
ATOM      8  C   UNL     1      -1.435  49.679  27.130  0.00  0.00    +0.000 A 
ATOM      9  C   UNL     1      -2.277  46.411  26.118  0.00  0.00    +0.000 A 
ATOM     10  C   UNL     1      -1.614  47.380  26.366  0.00  0.00    +0.000 A 
ATOM     11  C   UNL     1      -4.303  44.955  25.614  0.00  0.00    +0.000 C 
ATOM     12  C   UNL     1      -1.059  51.464  28.892  0.00  0.00    +0.000 C 
ENDROOT
BRANCH   2  13
ATOM     13  C   UNL     1      -5.788  47.668  25.935  0.00  0.00    +0.000 C 
ATOM     14  C   UNL     1      -7.275  47.859  25.613  0.00  0.00    +0.000 C 
BRANCH  14  15
ATOM     15  C   UNL     1      -8.646  48.090  25.349  0.00  0.00    +0.000 C 
ATOM     16  O   UNL     1      -8.986  49.166  24.449  0.00  0.00    +0.000 OA
ATOM     17  C   UNL     1     -10.325  49.477  24.191  0.00  0.00    +0.000 C 
ATOM     18  O   UNL     1     -10.687  50.371  23.442  0.00  0.00    +0.000 OA
ATOM     19  C   UNL     1     -11.268  48.647  24.898  0.00  0.00    +0.000 C 
ATOM     20  C   UNL     1     -11.127  47.578  25.809  0.00  0.00    +0.000 C 
ATOM     21  C   UNL     1      -9.732  47.400  25.948  0.00  0.00    +0.000 C 
BRANCH  20  22
ATOM     22  O   UNL     1     -12.004  47.399  26.838  0.00  0.00    +0.000 OA
ATOM     23  H   UNL     1     -12.503  46.563  26.763  0.00  0.00    +0.000 HD
ENDBRANCH  20  22
ENDBRANCH  14  15
ENDBRANCH   2  13
BRANCH   3  24
ATOM     24  O   UNL     1      -5.338  49.814  28.136  0.00  0.00    +0.000 OA
BRANCH  24  25
ATOM     25  C   UNL     1      -4.982  49.826  29.473  0.00  0.00    +0.000 C 
ATOM     26  O   UNL     1      -4.524  50.817  30.047  0.00  0.00    +0.000 OA
BRANCH  25  27
ATOM     27  C   UNL     1      -5.218  48.421  30.128  0.00  0.00    +0.000 C 
ATOM     28  C   UNL     1      -6.410  47.697  29.396  0.00  0.00    +0.000 C 
ATOM     29  C   UNL     1      -5.579  48.564  31.662  0.00  0.00    +0.000 C 
BRANCH  27  30
ATOM     30  C   UNL     1      -3.952  47.649  29.986  0.00  0.00    +0.000 C 
ATOM     31  C   UNL     1      -2.619  46.851  29.885  0.00  0.00    +0.000 C 
ENDBRANCH  27  30
ENDBRANCH  25  27
ENDBRANCH  24  25
ENDBRANCH   3  24
TORSDOF 7
ENDMDL
MODEL 2
REMARK VINA RESULT:      -6.6      2.722      5.555
REMARK  Name = Simvastatin.pdbqt.pdb
REMARK  7 active torsions:
REMARK  status: ('A' for Active; 'I' for Inactive)
REMARK    1  A    between atoms: C_2  and  C_13
REMARK    2  A    between atoms: C_3  and  O_24
REMARK    3  A    between atoms: C_14  and  C_15
REMARK    4  A    between atoms: C_20  and  O_22
REMARK    5  A    between atoms: O_24  and  C_25
REMARK    6  A    between atoms: C_25  and  C_27
REMARK    7  A    between atoms: C_27  and  C_30
REMARK                            x       y       z     vdW  Elec       q    Type
REMARK                         _______ _______ _______ _____ _____    ______ ____
ROOT
ATOM      1  C   UNL     1      -4.565  47.528  26.739  0.00  0.00    +0.000 A 
ATOM      2  C   UNL     1      -4.329  49.005  26.968  0.00  0.00    +0.000 A 
ATOM      3  C   UNL     1      -5.870  46.909  26.312  0.00  0.00    +0.000 A 
ATOM      4  C   UNL     1      -2.940  49.521  27.099  0.00  0.00    +0.000 A 
ATOM      5  C   UNL     1      -3.340  46.598  26.881  0.00  0.00    +0.000 A 
ATOM      6  C   UNL     1      -5.736  45.496  26.078  0.00  0.00    +0.000 A 
ATOM      7  C   UNL     1      -4.638  44.581  26.127  0.00  0.00    +0.000 A 
ATOM      8  C   UNL     1      -3.514  45.353  26.551  0.00  0.00    +0.000 A 
ATOM      9  C   UNL     1      -1.972  48.476  27.082  0.00  0.00    +0.000 A 
ATOM     10  C   UNL     1      -2.113  47.288  26.994  0.00  0.00    +0.000 A 
ATOM     11  C   UNL     1      -2.533  50.949  27.296  0.00  0.00    +0.000 C 
ATOM     12  C   UNL     1      -4.483  43.545  25.061  0.00  0.00    +0.000 C 
ENDROOT
BRANCH   2  13
ATOM     13  C   UNL     1      -5.440  49.846  27.272  0.00  0.00    +0.000 C 
ATOM     14  C   UNL     1      -6.652  50.749  27.528  0.00  0.00    +0.000 C 
BRANCH  14  15
ATOM     15  C   UNL     1      -7.796  51.563  27.709  0.00  0.00    +0.000 C 
ATOM     16  O   UNL     1      -8.493  52.016  26.529  0.00  0.00    +0.000 OA
ATOM     17  C   UNL     1      -9.598  52.866  26.641  0.00  0.00    +0.000 C 
ATOM     18  O   UNL     1     -10.235  53.289  25.689  0.00  0.00    +0.000 OA
ATOM     19  C   UNL     1      -9.932  53.220  27.999  0.00  0.00    +0.000 C 
ATOM     20  C   UNL     1      -9.372  52.890  29.252  0.00  0.00    +0.000 C 
ATOM     21  C   UNL     1      -8.287  52.037  28.954  0.00  0.00    +0.000 C 
BRANCH  20  22
ATOM     22  O   UNL     1      -9.351  53.788  30.279  0.00  0.00    +0.000 OA
ATOM     23  H   UNL     1      -8.733  54.527  30.117  0.00  0.00    +0.000 HD
ENDBRANCH  20  22
ENDBRANCH  14  15
ENDBRANCH   2  13
BRANCH   3  24
ATOM     24  O   UNL     1      -6.612  47.662  25.398  0.00  0.00    +0.000 OA
BRANCH  24  25
ATOM     25  C   UNL     1      -7.941  47.775  25.762  0.00  0.00    +0.000 C 
ATOM     26  O   UNL     1      -8.365  47.501  26.887  0.00  0.00    +0.000 OA
BRANCH  25  27
ATOM     27  C   UNL     1      -8.813  48.268  24.555  0.00  0.00    +0.000 C 
ATOM     28  C   UNL     1      -7.902  49.057  23.541  0.00  0.00    +0.000 C 
ATOM     29  C   UNL     1      -9.970  49.228  25.046  0.00  0.00    +0.000 C 
BRANCH  27  30
ATOM     30  C   UNL     1      -9.407  47.061  23.916  0.00  0.00    +0.000 C 
ATOM     31  C   UNL     1     -10.068  45.824  23.238  0.00  0.00    +0.000 C 
ENDBRANCH  27  30
ENDBRANCH  25  27
ENDBRANCH  24  25
ENDBRANCH   3  24
TORSDOF 7
ENDMDL
MODEL 3
REMARK VINA RESULT:      -6.4     24.995     27.321
REMARK  Name = Simvastatin.pdbqt.pdb
REMARK  7 active torsions:
REMARK  status: ('A' for Active; 'I' for Inactive)
REMARK    1  A    between atoms: C_2  and  C_13
REMARK    2  A    between atoms: C_3  and  O_24
REMARK    3  A    between atoms: C_14  and  C_15
REMARK    4  A    between atoms: C_20  and  O_22
REMARK    5  A    between atoms: O_24  and  C_25
REMARK    6  A    between atoms: C_25  and  C_27
REMARK    7  A    between atoms: C_27  and  C_30
REMARK                            x       y       z     vdW  Elec       q    Type
REMARK                         _______ _______ _______ _____ _____    ______ ____
ROOT
ATOM      1  C   UNL     1     -17.972  40.193   5.725  0.00  0.00    +0.000 A 
ATOM      2  C   UNL     1     -19.349  39.583   5.573  0.00  0.00    +0.000 A 
ATOM      3  C   UNL     1     -16.678  39.424   5.779  0.00  0.00    +0.000 A 
ATOM      4  C   UNL     1     -20.509  40.452   5.239  0.00  0.00    +0.000 A 
ATOM      5  C   UNL     1     -17.893  41.735   5.745  0.00  0.00    +0.000 A 
ATOM      6  C   UNL     1     -15.539  40.300   5.820  0.00  0.00    +0.000 A 
ATOM      7  C   UNL     1     -15.379  41.722   5.781  0.00  0.00    +0.000 A 
ATOM      8  C   UNL     1     -16.702  42.256   5.737  0.00  0.00    +0.000 A 
ATOM      9  C   UNL     1     -20.157  41.832   5.198  0.00  0.00    +0.000 A 
ATOM     10  C   UNL     1     -19.105  42.371   5.399  0.00  0.00    +0.000 A 
ATOM     11  C   UNL     1     -21.924  40.008   5.025  0.00  0.00    +0.000 C 
ATOM     12  C   UNL     1     -14.292  42.326   4.951  0.00  0.00    +0.000 C 
ENDROOT
BRANCH   2  13
ATOM     13  C   UNL     1     -19.554  38.228   5.964  0.00  0.00    +0.000 C 
ATOM     14  C   UNL     1     -19.771  36.791   6.453  0.00  0.00    +0.000 C 
BRANCH  14  15
ATOM     15  C   UNL     1     -19.989  35.488   6.963  0.00  0.00    +0.000 C 
ATOM     16  O   UNL     1     -21.342  34.987   6.974  0.00  0.00    +0.000 OA
ATOM     17  C   UNL     1     -21.628  33.729   7.514  0.00  0.00    +0.000 C 
ATOM     18  O   UNL     1     -22.747  33.242   7.557  0.00  0.00    +0.000 OA
ATOM     19  C   UNL     1     -20.475  33.038   8.035  0.00  0.00    +0.000 C 
ATOM     20  C   UNL     1     -19.105  33.366   8.120  0.00  0.00    +0.000 C 
ATOM     21  C   UNL     1     -18.999  34.646   7.534  0.00  0.00    +0.000 C 
BRANCH  20  22
ATOM     22  O   UNL     1     -18.343  32.969   9.180  0.00  0.00    +0.000 OA
ATOM     23  H   UNL     1     -17.471  33.408   9.200  0.00  0.00    +0.000 HD
ENDBRANCH  20  22
ENDBRANCH  14  15
ENDBRANCH   2  13
BRANCH   3  24
ATOM     24  O   UNL     1     -16.620  38.304   4.944  0.00  0.00    +0.000 OA
BRANCH  24  25
ATOM     25  C   UNL     1     -16.186  37.171   5.609  0.00  0.00    +0.000 C 
ATOM     26  O   UNL     1     -16.205  37.052   6.836  0.00  0.00    +0.000 OA
BRANCH  25  27
ATOM     27  C   UNL     1     -15.657  36.096   4.597  0.00  0.00    +0.000 C 
ATOM     28  C   UNL     1     -15.742  36.670   3.133  0.00  0.00    +0.000 C 
ATOM     29  C   UNL     1     -16.520  34.772   4.673  0.00  0.00    +0.000 C 
BRANCH  27  30
ATOM     30  C   UNL     1     -14.247  35.791   4.973  0.00  0.00    +0.000 C 
ATOM     31  C   UNL     1     -12.768  35.454   5.321  0.00  0.00    +0.000 C 
ENDBRANCH  27  30
ENDBRANCH  25  27
ENDBRANCH  24  25
ENDBRANCH   3  24
TORSDOF 7
ENDMDL
MODEL 4
REMARK VINA RESULT:      -6.2     24.896     27.020
REMARK  Name = Simvastatin.pdbqt.pdb
REMARK  7 active torsions:
REMARK  status: ('A' for Active; 'I' for Inactive)
REMARK    1  A    between atoms: C_2  and  C_13
REMARK    2  A    between atoms: C_3  and  O_24
REMARK    3  A    between atoms: C_14  and  C_15
REMARK    4  A    between atoms: C_20  and  O_22
REMARK    5  A    between atoms: O_24  and  C_25
REMARK    6  A    between atoms: C_25  and  C_27
REMARK    7  A    between atoms: C_27  and  C_30
REMARK                            x       y       z     vdW  Elec       q    Type
REMARK                         _______ _______ _______ _____ _____    ______ ____
ROOT
ATOM      1  C   UNL     1     -17.234  37.790   5.657  0.00  0.00    +0.000 A 
ATOM      2  C   UNL     1     -18.462  38.493   6.195  0.00  0.00    +0.000 A 
ATOM      3  C   UNL     1     -16.138  38.441   4.856  0.00  0.00    +0.000 A 
ATOM      4  C   UNL     1     -19.315  37.818   7.210  0.00  0.00    +0.000 A 
ATOM      5  C   UNL     1     -17.062  36.303   6.036  0.00  0.00    +0.000 A 
ATOM      6  C   UNL     1     -15.060  37.527   4.588  0.00  0.00    +0.000 A 
ATOM      7  C   UNL     1     -14.799  36.168   4.950  0.00  0.00    +0.000 A 
ATOM      8  C   UNL     1     -15.942  35.741   5.691  0.00  0.00    +0.000 A 
ATOM      9  C   UNL     1     -18.881  36.489   7.483  0.00  0.00    +0.000 A 
ATOM     10  C   UNL     1     -17.973  35.858   7.019  0.00  0.00    +0.000 A 
ATOM     11  C   UNL     1     -20.540  38.382   7.864  0.00  0.00    +0.000 C 
ATOM     12  C   UNL     1     -13.426  35.763   5.382  0.00  0.00    +0.000 C 
ENDROOT
BRANCH   2  13
ATOM     13  C   UNL     1     -18.907  39.692   5.565  0.00  0.00    +0.000 C 
ATOM     14  C   UNL     1     -19.335  41.020   4.927  0.00  0.00    +0.000 C 
BRANCH  14  15
ATOM     15  C   UNL     1     -19.674  42.270   4.356  0.00  0.00    +0.000 C 
ATOM     16  O   UNL     1     -19.076  42.615   3.089  0.00  0.00    +0.000 OA
ATOM     17  C   UNL     1     -19.331  43.858   2.501  0.00  0.00    +0.000 C 
ATOM     18  O   UNL     1     -18.861  44.219   1.433  0.00  0.00    +0.000 OA
ATOM     19  C   UNL     1     -20.204  44.706   3.274  0.00  0.00    +0.000 C 
ATOM     20  C   UNL     1     -20.862  44.548   4.513  0.00  0.00    +0.000 C 
ATOM     21  C   UNL     1     -20.502  43.256   4.955  0.00  0.00    +0.000 C 
BRANCH  20  22
ATOM     22  O   UNL     1     -21.040  45.600   5.363  0.00  0.00    +0.000 OA
ATOM     23  H   UNL     1     -21.976  45.868   5.435  0.00  0.00    +0.000 HD
ENDBRANCH  20  22
ENDBRANCH  14  15
ENDBRANCH   2  13
BRANCH   3  24
ATOM     24  O   UNL     1     -15.817  39.746   5.241  0.00  0.00    +0.000 OA
BRANCH  24  25
ATOM     25  C   UNL     1     -15.892  40.641   4.190  0.00  0.00    +0.000 C 
ATOM     26  O   UNL     1     -16.303  40.340   3.067  0.00  0.00    +0.000 OA
BRANCH  25  27
ATOM     27  C   UNL     1     -15.369  42.056   4.620  0.00  0.00    +0.000 C 
ATOM     28  C   UNL     1     -13.890  41.928   5.147  0.00  0.00    +0.000 C 
ATOM     29  C   UNL     1     -16.265  42.666   5.772  0.00  0.00    +0.000 C 
BRANCH  27  30
ATOM     30  C   UNL     1     -15.437  42.935   3.419  0.00  0.00    +0.000 C 
ATOM     31  C   UNL     1     -15.547  43.876   2.183  0.00  0.00    +0.000 C 
ENDBRANCH  27  30
ENDBRANCH  25  27
ENDBRANCH  24  25
ENDBRANCH   3  24
TORSDOF 7
ENDMDL
MODEL 5
REMARK VINA RESULT:      -5.9      5.425      8.660
REMARK  Name = Simvastatin.pdbqt.pdb
REMARK  7 active torsions:
REMARK  status: ('A' for Active; 'I' for Inactive)
REMARK    1  A    between atoms: C_2  and  C_13
REMARK    2  A    between atoms: C_3  and  O_24
REMARK    3  A    between atoms: C_14  and  C_15
REMARK    4  A    between atoms: C_20  and  O_22
REMARK    5  A    between atoms: O_24  and  C_25
REMARK    6  A    between atoms: C_25  and  C_27
REMARK    7  A    between atoms: C_27  and  C_30
REMARK                            x       y       z     vdW  Elec       q    Type
REMARK                         _______ _______ _______ _____ _____    ______ ____
ROOT
ATOM      1  C   UNL     1      -1.466  48.312  28.344  0.00  0.00    +0.000 A 
ATOM      2  C   UNL     1      -2.057  46.932  28.534  0.00  0.00    +0.000 A 
ATOM      3  C   UNL     1      -0.138  48.774  28.885  0.00  0.00    +0.000 A 
ATOM      4  C   UNL     1      -3.223  46.507  27.713  0.00  0.00    +0.000 A 
ATOM      5  C   UNL     1      -2.260  49.292  27.454  0.00  0.00    +0.000 A 
ATOM      6  C   UNL     1       0.184  50.103  28.441  0.00  0.00    +0.000 A 
ATOM      7  C   UNL     1      -0.461  51.044  27.577  0.00  0.00    +0.000 A 
ATOM      8  C   UNL     1      -1.685  50.426  27.181  0.00  0.00    +0.000 A 
ATOM      9  C   UNL     1      -3.706  47.556  26.878  0.00  0.00    +0.000 A 
ATOM     10  C   UNL     1      -3.330  48.689  26.758  0.00  0.00    +0.000 A 
ATOM     11  C   UNL     1      -3.905  45.174  27.753  0.00  0.00    +0.000 C 
ATOM     12  C   UNL     1       0.347  51.822  26.588  0.00  0.00    +0.000 C 
ENDROOT
BRANCH   2  13
ATOM     13  C   UNL     1      -1.632  46.141  29.641  0.00  0.00    +0.000 C 
ATOM     14  C   UNL     1      -1.222  45.239  30.813  0.00  0.00    +0.000 C 
BRANCH  14  15
ATOM     15  C   UNL     1      -0.870  44.357  31.862  0.00  0.00    +0.000 C 
ATOM     16  O   UNL     1      -1.560  44.500  33.121  0.00  0.00    +0.000 OA
ATOM     17  C   UNL     1      -1.219  43.693  34.211  0.00  0.00    +0.000 C 
ATOM     18  O   UNL     1      -1.759  43.757  35.305  0.00  0.00    +0.000 OA
ATOM     19  C   UNL     1      -0.152  42.762  33.942  0.00  0.00    +0.000 C 
ATOM     20  C   UNL     1       0.634  42.491  32.801  0.00  0.00    +0.000 C 
ATOM     21  C   UNL     1       0.159  43.380  31.812  0.00  0.00    +0.000 C 
BRANCH  20  22
ATOM     22  O   UNL     1       1.946  42.134  32.910  0.00  0.00    +0.000 OA
ATOM     23  H   UNL     1       2.401  42.598  33.639  0.00  0.00    +0.000 HD
ENDBRANCH  20  22
ENDBRANCH  14  15
ENDBRANCH   2  13
BRANCH   3  24
ATOM     24  O   UNL     1       0.874  47.810  28.874  0.00  0.00    +0.000 OA
BRANCH  24  25
ATOM     25  C   UNL     1       1.477  47.662  30.110  0.00  0.00    +0.000 C 
ATOM     26  O   UNL     1       1.152  48.310  31.108  0.00  0.00    +0.000 OA
BRANCH  25  27
ATOM     27  C   UNL     1       2.621  46.592  30.051  0.00  0.00    +0.000 C 
ATOM     28  C   UNL     1       2.964  46.113  31.512  0.00  0.00    +0.000 C 
ATOM     29  C   UNL     1       3.929  47.195  29.396  0.00  0.00    +0.000 C 
BRANCH  27  30
ATOM     30  C   UNL     1       2.125  45.460  29.218  0.00  0.00    +0.000 C 
ATOM     31  C   UNL     1       1.562  44.286  28.365  0.00  0.00    +0.000 C 
ENDBRANCH  27  30
ENDBRANCH  25  27
ENDBRANCH  24  25
ENDBRANCH   3  24
TORSDOF 7
ENDMDL
MODEL 6
REMARK VINA RESULT:      -5.8     21.656     23.582
REMARK  Name = Simvastatin.pdbqt.pdb
REMARK  7 active torsions:
REMARK  status: ('A' for Active; 'I' for Inactive)
REMARK    1  A    between atoms: C_2  and  C_13
REMARK    2  A    between atoms: C_3  and  O_24
REMARK    3  A    between atoms: C_14  and  C_15
REMARK    4  A    between atoms: C_20  and  O_22
REMARK    5  A    between atoms: O_24  and  C_25
REMARK    6  A    between atoms: C_25  and  C_27
REMARK    7  A    between atoms: C_27  and  C_30
REMARK                            x       y       z     vdW  Elec       q    Type
REMARK                         _______ _______ _______ _____ _____    ______ ____
ROOT
ATOM      1  C   UNL     1      -1.626  27.535  18.162  0.00  0.00    +0.000 A 
ATOM      2  C   UNL     1      -2.579  26.370  17.998  0.00  0.00    +0.000 A 
ATOM      3  C   UNL     1      -1.370  28.277  19.448  0.00  0.00    +0.000 A 
ATOM      4  C   UNL     1      -2.526  25.541  16.764  0.00  0.00    +0.000 A 
ATOM      5  C   UNL     1      -0.796  27.934  16.924  0.00  0.00    +0.000 A 
ATOM      6  C   UNL     1      -0.332  29.260  19.296  0.00  0.00    +0.000 A 
ATOM      7  C   UNL     1       0.519  29.646  18.212  0.00  0.00    +0.000 A 
ATOM      8  C   UNL     1       0.118  28.841  17.103  0.00  0.00    +0.000 A 
ATOM      9  C   UNL     1      -1.593  26.045  15.813  0.00  0.00    +0.000 A 
ATOM     10  C   UNL     1      -0.884  27.011  15.858  0.00  0.00    +0.000 A 
ATOM     11  C   UNL     1      -3.372  24.342  16.458  0.00  0.00    +0.000 C 
ATOM     12  C   UNL     1       1.967  29.919  18.463  0.00  0.00    +0.000 C 
ENDROOT
BRANCH   2  13
ATOM     13  C   UNL     1      -3.654  26.217  18.922  0.00  0.00    +0.000 C 
ATOM     14  C   UNL     1      -4.849  26.099  19.875  0.00  0.00    +0.000 C 
BRANCH  14  15
ATOM     15  C   UNL     1      -5.990  26.012  20.708  0.00  0.00    +0.000 C 
ATOM     16  O   UNL     1      -7.169  25.375  20.171  0.00  0.00    +0.000 OA
ATOM     17  C   UNL     1      -8.344  25.307  20.926  0.00  0.00    +0.000 C 
ATOM     18  O   UNL     1      -9.377  24.785  20.538  0.00  0.00    +0.000 OA
ATOM     19  C   UNL     1      -8.242  25.920  22.227  0.00  0.00    +0.000 C 
ATOM     20  C   UNL     1      -7.200  26.586  22.907  0.00  0.00    +0.000 C 
ATOM     21  C   UNL     1      -6.107  26.560  22.013  0.00  0.00    +0.000 C 
BRANCH  20  22
ATOM     22  O   UNL     1      -7.451  27.635  23.742  0.00  0.00    +0.000 OA
ATOM     23  H   UNL     1      -7.877  27.356  24.575  0.00  0.00    +0.000 HD
ENDBRANCH  20  22
ENDBRANCH  14  15
ENDBRANCH   2  13
BRANCH   3  24
ATOM     24  O   UNL     1      -1.365  27.484  20.599  0.00  0.00    +0.000 OA
BRANCH  24  25
ATOM     25  C   UNL     1      -0.086  27.161  21.013  0.00  0.00    +0.000 C 
ATOM     26  O   UNL     1       0.758  28.000  21.336  0.00  0.00    +0.000 OA
BRANCH  25  27
ATOM     27  C   UNL     1       0.135  25.608  20.991  0.00  0.00    +0.000 C 
ATOM     28  C   UNL     1      -1.214  24.883  21.358  0.00  0.00    +0.000 C 
ATOM     29  C   UNL     1       1.241  25.178  22.038  0.00  0.00    +0.000 C 
BRANCH  27  30
ATOM     30  C   UNL     1       0.584  25.246  19.617  0.00  0.00    +0.000 C 
ATOM     31  C   UNL     1       1.028  24.825  18.185  0.00  0.00    +0.000 C 
ENDBRANCH  27  30
ENDBRANCH  25  27
ENDBRANCH  24  25
ENDBRANCH   3  24
TORSDOF 7
ENDMDL
MODEL 7
REMARK VINA RESULT:      -5.7      3.131      6.100
REMARK  Name = Simvastatin.pdbqt.pdb
REMARK  7 active torsions:
REMARK  status: ('A' for Active; 'I' for Inactive)
REMARK    1  A    between atoms: C_2  and  C_13
REMARK    2  A    between atoms: C_3  and  O_24
REMARK    3  A    between atoms: C_14  and  C_15
REMARK    4  A    between atoms: C_20  and  O_22
REMARK    5  A    between atoms: O_24  and  C_25
REMARK    6  A    between atoms: C_25  and  C_27
REMARK    7  A    between atoms: C_27  and  C_30
REMARK                            x       y       z     vdW  Elec       q    Type
REMARK                         _______ _______ _______ _____ _____    ______ ____
ROOT
ATOM      1  C   UNL     1      -5.980  47.800  27.425  0.00  0.00    +0.000 A 
ATOM      2  C   UNL     1      -6.573  49.099  27.928  0.00  0.00    +0.000 A 
ATOM      3  C   UNL     1      -6.755  46.541  27.139  0.00  0.00    +0.000 A 
ATOM      4  C   UNL     1      -5.762  50.345  27.891  0.00  0.00    +0.000 A 
ATOM      5  C   UNL     1      -4.469  47.802  27.108  0.00  0.00    +0.000 A 
ATOM      6  C   UNL     1      -5.917  45.518  26.572  0.00  0.00    +0.000 A 
ATOM      7  C   UNL     1      -4.538  45.461  26.195  0.00  0.00    +0.000 A 
ATOM      8  C   UNL     1      -3.990  46.731  26.548  0.00  0.00    +0.000 A 
ATOM      9  C   UNL     1      -4.429  50.109  27.448  0.00  0.00    +0.000 A 
ATOM     10  C   UNL     1      -3.887  49.089  27.126  0.00  0.00    +0.000 A 
ATOM     11  C   UNL     1      -6.204  51.711  28.319  0.00  0.00    +0.000 C 
ATOM     12  C   UNL     1      -4.143  44.798  24.915  0.00  0.00    +0.000 C 
ENDROOT
BRANCH   2  13
ATOM     13  C   UNL     1      -7.815  49.069  28.627  0.00  0.00    +0.000 C 
ATOM     14  C   UNL     1      -9.135  49.104  29.407  0.00  0.00    +0.000 C 
BRANCH  14  15
ATOM     15  C   UNL     1     -10.348  49.200  30.131  0.00  0.00    +0.000 C 
ATOM     16  O   UNL     1     -10.480  48.410  31.331  0.00  0.00    +0.000 OA
ATOM     17  C   UNL     1     -11.674  48.422  32.059  0.00  0.00    +0.000 C 
ATOM     18  O   UNL     1     -11.857  47.780  33.082  0.00  0.00    +0.000 OA
ATOM     19  C   UNL     1     -12.699  49.263  31.494  0.00  0.00    +0.000 C 
ATOM     20  C   UNL     1     -12.756  50.084  30.347  0.00  0.00    +0.000 C 
ATOM     21  C   UNL     1     -11.485  49.957  29.743  0.00  0.00    +0.000 C 
BRANCH  20  22
ATOM     22  O   UNL     1     -13.908  50.224  29.630  0.00  0.00    +0.000 OA
ATOM     23  H   UNL     1     -14.051  49.488  29.004  0.00  0.00    +0.000 HD
ENDBRANCH  20  22
ENDBRANCH  14  15
ENDBRANCH   2  13
BRANCH   3  24
ATOM     24  O   UNL     1      -8.023  46.738  26.584  0.00  0.00    +0.000 OA
BRANCH  24  25
ATOM     25  C   UNL     1      -7.964  47.261  25.304  0.00  0.00    +0.000 C 
ATOM     26  O   UNL     1      -6.909  47.536  24.729  0.00  0.00    +0.000 OA
BRANCH  25  27
ATOM     27  C   UNL     1      -9.404  47.467  24.717  0.00  0.00    +0.000 C 
ATOM     28  C   UNL     1      -9.700  46.344  23.654  0.00  0.00    +0.000 C 
ATOM     29  C   UNL     1      -9.531  48.878  24.011  0.00  0.00    +0.000 C 
BRANCH  27  30
ATOM     30  C   UNL     1     -10.360  47.394  25.857  0.00  0.00    +0.000 C 
ATOM     31  C   UNL     1     -11.364  47.367  27.047  0.00  0.00    +0.000 C 
ENDBRANCH  27  30
ENDBRANCH  25  27
ENDBRANCH  24  25
ENDBRANCH   3  24
TORSDOF 7
ENDMDL
MODEL 8
REMARK VINA RESULT:      -5.7      2.762      7.109
REMARK  Name = Simvastatin.pdbqt.pdb
REMARK  7 active torsions:
REMARK  status: ('A' for Active; 'I' for Inactive)
REMARK    1  A    between atoms: C_2  and  C_13
REMARK    2  A    between atoms: C_3  and  O_24
REMARK    3  A    between atoms: C_14  and  C_15
REMARK    4  A    between atoms: C_20  and  O_22
REMARK    5  A    between atoms: O_24  and  C_25
REMARK    6  A    between atoms: C_25  and  C_27
REMARK    7  A    between atoms: C_27  and  C_30
REMARK                            x       y       z     vdW  Elec       q    Type
REMARK                         _______ _______ _______ _____ _____    ______ ____
ROOT
ATOM      1  C   UNL     1      -3.906  48.007  28.201  0.00  0.00    +0.000 A 
ATOM      2  C   UNL     1      -4.073  49.321  28.933  0.00  0.00    +0.000 A 
ATOM      3  C   UNL     1      -4.588  46.714  28.563  0.00  0.00    +0.000 A 
ATOM      4  C   UNL     1      -3.585  50.581  28.312  0.00  0.00    +0.000 A 
ATOM      5  C   UNL     1      -3.025  48.025  26.934  0.00  0.00    +0.000 A 
ATOM      6  C   UNL     1      -4.304  45.677  27.608  0.00  0.00    +0.000 A 
ATOM      7  C   UNL     1      -3.555  45.628  26.390  0.00  0.00    +0.000 A 
ATOM      8  C   UNL     1      -2.994  46.931  26.231  0.00  0.00    +0.000 A 
ATOM      9  C   UNL     1      -2.905  50.348  27.082  0.00  0.00    +0.000 A 
ATOM     10  C   UNL     1      -2.668  49.323  26.507  0.00  0.00    +0.000 A 
ATOM     11  C   UNL     1      -3.698  51.961  28.884  0.00  0.00    +0.000 C 
ATOM     12  C   UNL     1      -4.104  44.893  25.209  0.00  0.00    +0.000 C 
ENDROOT
BRANCH   2  13
ATOM     13  C   UNL     1      -4.496  49.308  30.295  0.00  0.00    +0.000 C 
ATOM     14  C   UNL     1      -4.894  49.338  31.775  0.00  0.00    +0.000 C 
BRANCH  14  15
ATOM     15  C   UNL     1      -5.227  49.420  33.149  0.00  0.00    +0.000 C 
ATOM     16  O   UNL     1      -4.820  50.600  33.871  0.00  0.00    +0.000 OA
ATOM     17  C   UNL     1      -5.073  50.715  35.242  0.00  0.00    +0.000 C 
ATOM     18  O   UNL     1      -4.758  51.683  35.917  0.00  0.00    +0.000 OA
ATOM     19  C   UNL     1      -5.744  49.574  35.813  0.00  0.00    +0.000 C 
ATOM     20  C   UNL     1      -6.202  48.350  35.278  0.00  0.00    +0.000 C 
ATOM     21  C   UNL     1      -5.872  48.406  33.906  0.00  0.00    +0.000 C 
BRANCH  20  22
ATOM     22  O   UNL     1      -6.161  47.197  36.005  0.00  0.00    +0.000 OA
ATOM     23  H   UNL     1      -7.051  46.862  36.225  0.00  0.00    +0.000 HD
ENDBRANCH  20  22
ENDBRANCH  14  15
ENDBRANCH   2  13
BRANCH   3  24
ATOM     24  O   UNL     1      -5.901  46.845  29.024  0.00  0.00    +0.000 OA
BRANCH  24  25
ATOM     25  C   UNL     1      -6.827  46.331  28.135  0.00  0.00    +0.000 C 
ATOM     26  O   UNL     1      -6.994  45.124  27.948  0.00  0.00    +0.000 OA
BRANCH  25  27
ATOM     27  C   UNL     1      -7.600  47.482  27.402  0.00  0.00    +0.000 C 
ATOM     28  C   UNL     1      -7.654  48.751  28.333  0.00  0.00    +0.000 C 
ATOM     29  C   UNL     1      -9.080  47.043  27.058  0.00  0.00    +0.000 C 
BRANCH  27  30
ATOM     30  C   UNL     1      -6.863  47.774  26.140  0.00  0.00    +0.000 C 
ATOM     31  C   UNL     1      -6.110  48.037  24.802  0.00  0.00    +0.000 C 
ENDBRANCH  27  30
ENDBRANCH  25  27
ENDBRANCH  24  25
ENDBRANCH   3  24
TORSDOF 7
ENDMDL
MODEL 9
REMARK VINA RESULT:      -5.6     23.823     25.744
REMARK  Name = Simvastatin.pdbqt.pdb
REMARK  7 active torsions:
REMARK  status: ('A' for Active; 'I' for Inactive)
REMARK    1  A    between atoms: C_2  and  C_13
REMARK    2  A    between atoms: C_3  and  O_24
REMARK    3  A    between atoms: C_14  and  C_15
REMARK    4  A    between atoms: C_20  and  O_22
REMARK    5  A    between atoms: O_24  and  C_25
REMARK    6  A    between atoms: C_25  and  C_27
REMARK    7  A    between atoms: C_27  and  C_30
REMARK                            x       y       z     vdW  Elec       q    Type
REMARK                         _______ _______ _______ _____ _____    ______ ____
ROOT
ATOM      1  C   UNL     1       9.506  45.794   8.536  0.00  0.00    +0.000 A 
ATOM      2  C   UNL     1       8.922  44.746   7.613  0.00  0.00    +0.000 A 
ATOM      3  C   UNL     1      10.708  45.603   9.423  0.00  0.00    +0.000 A 
ATOM      4  C   UNL     1       7.927  45.142   6.580  0.00  0.00    +0.000 A 
ATOM      5  C   UNL     1       8.857  47.195   8.496  0.00  0.00    +0.000 A 
ATOM      6  C   UNL     1      11.072  46.821  10.094  0.00  0.00    +0.000 A 
ATOM      7  C   UNL     1      10.566  48.159  10.067  0.00  0.00    +0.000 A 
ATOM      8  C   UNL     1       9.444  48.127   9.185  0.00  0.00    +0.000 A 
ATOM      9  C   UNL     1       7.573  46.519   6.671  0.00  0.00    +0.000 A 
ATOM     10  C   UNL     1       7.938  47.366   7.438  0.00  0.00    +0.000 A 
ATOM     11  C   UNL     1       7.278  44.242   5.573  0.00  0.00    +0.000 C 
ATOM     12  C   UNL     1      11.516  49.313  10.039  0.00  0.00    +0.000 C 
ENDROOT
BRANCH   2  13
ATOM     13  C   UNL     1       9.166  43.368   7.885  0.00  0.00    +0.000 C 
ATOM     14  C   UNL     1       9.389  41.893   8.240  0.00  0.00    +0.000 C 
BRANCH  14  15
ATOM     15  C   UNL     1       9.545  40.535   8.607  0.00  0.00    +0.000 C 
ATOM     16  O   UNL     1      10.244  39.666   7.692  0.00  0.00    +0.000 OA
ATOM     17  C   UNL     1      10.383  38.304   7.975  0.00  0.00    +0.000 C 
ATOM     18  O   UNL     1      10.961  37.510   7.248  0.00  0.00    +0.000 OA
ATOM     19  C   UNL     1       9.771  37.895   9.215  0.00  0.00    +0.000 C 
ATOM     20  C   UNL     1       9.050  38.585  10.213  0.00  0.00    +0.000 C 
ATOM     21  C   UNL     1       9.010  39.926   9.773  0.00  0.00    +0.000 C 
BRANCH  20  22
ATOM     22  O   UNL     1       8.021  37.992  10.885  0.00  0.00    +0.000 OA
ATOM     23  H   UNL     1       8.211  37.879  11.836  0.00  0.00    +0.000 HD
ENDBRANCH  20  22
ENDBRANCH  14  15
ENDBRANCH   2  13
BRANCH   3  24
ATOM     24  O   UNL     1      11.728  44.819   8.877  0.00  0.00    +0.000 OA
BRANCH  24  25
ATOM     25  C   UNL     1      12.832  45.567   8.512  0.00  0.00    +0.000 C 
ATOM     26  O   UNL     1      13.608  46.076   9.324  0.00  0.00    +0.000 OA
BRANCH  25  27
ATOM     27  C   UNL     1      12.936  45.689   6.952  0.00  0.00    +0.000 C 
ATOM     28  C   UNL     1      12.294  44.416   6.284  0.00  0.00    +0.000 C 
ATOM     29  C   UNL     1      14.446  45.795   6.491  0.00  0.00    +0.000 C 
BRANCH  27  30
ATOM     30  C   UNL     1      12.209  46.928   6.557  0.00  0.00    +0.000 C 
ATOM     31  C   UNL     1      11.482  48.231   6.109  0.00  0.00    +0.000 C 
ENDBRANCH  27  30
ENDBRANCH  25  27
ENDBRANCH  24  25
ENDBRANCH   3  24
TORSDOF 7
ENDMDL
