MODEL 1
REMARK VINA RESULT:      -7.5      0.000      0.000
REMARK  Name = Staurosporine.pdbqt.pdb
REMARK  2 active torsions:
REMARK  status: ('A' for Active; 'I' for Inactive)
REMARK    1  A    between atoms: C_3  and  O_11
REMARK    2  A    between atoms: C_5  and  N_8
REMARK                            x       y       z     vdW  Elec       q    Type
REMARK                         _______ _______ _______ _____ _____    ______ ____
ROOT
ATOM      1  O   UNL     1      -7.913  48.745  28.318  0.00  0.00    +0.000 OA
ATOM      2  C   UNL     1      -7.519  47.962  27.158  0.00  0.00    +0.000 C 
ATOM      3  C   UNL     1      -8.224  48.349  25.843  0.00  0.00    +0.000 C 
ATOM      4  C   UNL     1      -7.884  50.111  28.093  0.00  0.00    +0.000 C 
ATOM      5  C   UNL     1      -8.788  49.691  25.720  0.00  0.00    +0.000 C 
ATOM      6  C   UNL     1      -8.576  50.422  26.903  0.00  0.00    +0.000 C 
ATOM      7  C   UNL     1      -7.997  46.516  27.523  0.00  0.00    +0.000 C 
ATOM      8  N   UNL     1      -6.044  48.040  27.053  0.00  0.00    +0.000 N 
ATOM      9  C   UNL     1      -5.148  48.976  27.504  0.00  0.00    +0.000 A 
ATOM     10  C   UNL     1      -5.425  50.211  28.099  0.00  0.00    +0.000 A 
ATOM     11  C   UNL     1      -3.779  48.751  27.308  0.00  0.00    +0.000 A 
ATOM     12  N   UNL     1      -6.668  50.729  28.300  0.00  0.00    +0.000 N 
ATOM     13  C   UNL     1      -4.303  51.012  28.358  0.00  0.00    +0.000 A 
ATOM     14  C   UNL     1      -6.336  52.052  28.654  0.00  0.00    +0.000 A 
ATOM     15  C   UNL     1      -4.906  52.233  28.734  0.00  0.00    +0.000 A 
ATOM     16  C   UNL     1      -7.210  53.112  28.944  0.00  0.00    +0.000 A 
ATOM     17  C   UNL     1      -4.422  53.506  29.096  0.00  0.00    +0.000 A 
ATOM     18  C   UNL     1      -5.305  54.545  29.380  0.00  0.00    +0.000 A 
ATOM     19  C   UNL     1      -6.676  54.349  29.302  0.00  0.00    +0.000 A 
ATOM     20  C   UNL     1      -2.924  50.791  28.175  0.00  0.00    +0.000 A 
ATOM     21  C   UNL     1      -2.644  49.522  27.596  0.00  0.00    +0.000 A 
ATOM     22  C   UNL     1      -1.702  51.533  28.382  0.00  0.00    +0.000 C 
ATOM     23  C   UNL     1      -1.169  49.446  27.425  0.00  0.00    +0.000 C 
ATOM     24  N   UNL     1      -0.740  50.635  27.901  0.00  0.00    +0.000 N 
ATOM     25  H   UNL     1       0.238  50.885  27.923  0.00  0.00    +0.000 HD
ATOM     26  O   UNL     1      -1.447  52.637  28.838  0.00  0.00    +0.000 OA
ATOM     27  C   UNL     1      -3.772  47.528  26.617  0.00  0.00    +0.000 A 
ATOM     28  C   UNL     1      -5.145  47.116  26.454  0.00  0.00    +0.000 A 
ATOM     29  C   UNL     1      -2.755  46.713  26.079  0.00  0.00    +0.000 A 
ATOM     30  C   UNL     1      -5.435  45.920  25.773  0.00  0.00    +0.000 A 
ATOM     31  C   UNL     1      -4.394  45.145  25.260  0.00  0.00    +0.000 A 
ATOM     32  C   UNL     1      -3.073  45.532  25.411  0.00  0.00    +0.000 A 
ENDROOT
BRANCH   5  33
ATOM     33  N   UNL     1      -9.276  50.243  24.504  0.00  0.00    +0.000 N 
ATOM     34  C   UNL     1     -10.699  50.097  24.291  0.00  0.00    +0.000 C 
ATOM     35  H   UNL     1      -8.684  50.075  23.686  0.00  0.00    +0.000 HD
ENDBRANCH   5  33
BRANCH   3  36
ATOM     36  O   UNL     1      -7.825  47.652  24.722  0.00  0.00    +0.000 OA
ATOM     37  C   UNL     1      -8.857  46.855  24.207  0.00  0.00    +0.000 C 
ENDBRANCH   3  36
TORSDOF 2
ENDMDL
MODEL 2
REMARK VINA RESULT:      -7.3      2.014      5.607
REMARK  Name = Staurosporine.pdbqt.pdb
REMARK  2 active torsions:
REMARK  status: ('A' for Active; 'I' for Inactive)
REMARK    1  A    between atoms: C_3  and  O_11
REMARK    2  A    between atoms: C_5  and  N_8
REMARK                            x       y       z     vdW  Elec       q    Type
REMARK                         _______ _______ _______ _____ _____    ______ ____
ROOT
ATOM      1  O   UNL     1      -3.662  51.085  27.487  0.00  0.00    +0.000 OA
ATOM      2  C   UNL     1      -3.178  49.719  27.610  0.00  0.00    +0.000 C 
ATOM      3  C   UNL     1      -2.822  49.282  29.045  0.00  0.00    +0.000 C 
ATOM      4  C   UNL     1      -4.666  51.394  28.390  0.00  0.00    +0.000 C 
ATOM      5  C   UNL     1      -3.434  49.994  30.165  0.00  0.00    +0.000 C 
ATOM      6  C   UNL     1      -4.279  51.015  29.693  0.00  0.00    +0.000 C 
ATOM      7  C   UNL     1      -1.840  49.739  26.795  0.00  0.00    +0.000 C 
ATOM      8  N   UNL     1      -4.187  48.835  26.983  0.00  0.00    +0.000 N 
ATOM      9  C   UNL     1      -5.532  49.000  26.765  0.00  0.00    +0.000 A 
ATOM     10  C   UNL     1      -6.350  50.044  27.209  0.00  0.00    +0.000 A 
ATOM     11  C   UNL     1      -6.234  47.999  26.081  0.00  0.00    +0.000 A 
ATOM     12  N   UNL     1      -5.949  51.083  27.993  0.00  0.00    +0.000 N 
ATOM     13  C   UNL     1      -7.716  49.890  26.929  0.00  0.00    +0.000 A 
ATOM     14  C   UNL     1      -7.199  51.634  28.339  0.00  0.00    +0.000 A 
ATOM     15  C   UNL     1      -8.281  50.950  27.672  0.00  0.00    +0.000 A 
ATOM     16  C   UNL     1      -7.454  52.726  29.185  0.00  0.00    +0.000 A 
ATOM     17  C   UNL     1      -9.594  51.403  27.908  0.00  0.00    +0.000 A 
ATOM     18  C   UNL     1      -9.827  52.488  28.751  0.00  0.00    +0.000 A 
ATOM     19  C   UNL     1      -8.773  53.135  29.379  0.00  0.00    +0.000 A 
ATOM     20  C   UNL     1      -8.429  48.894  26.233  0.00  0.00    +0.000 A 
ATOM     21  C   UNL     1      -7.589  47.849  25.757  0.00  0.00    +0.000 A 
ATOM     22  C   UNL     1      -9.809  48.624  25.902  0.00  0.00    +0.000 C 
ATOM     23  C   UNL     1      -8.475  46.859  25.087  0.00  0.00    +0.000 C 
ATOM     24  N   UNL     1      -9.705  47.398  25.229  0.00  0.00    +0.000 N 
ATOM     25  H   UNL     1     -10.535  46.952  24.866  0.00  0.00    +0.000 HD
ATOM     26  O   UNL     1     -10.860  49.216  26.097  0.00  0.00    +0.000 OA
ATOM     27  C   UNL     1      -5.234  47.042  25.841  0.00  0.00    +0.000 A 
ATOM     28  C   UNL     1      -4.006  47.549  26.405  0.00  0.00    +0.000 A 
ATOM     29  C   UNL     1      -5.219  45.774  25.225  0.00  0.00    +0.000 A 
ATOM     30  C   UNL     1      -2.834  46.777  26.324  0.00  0.00    +0.000 A 
ATOM     31  C   UNL     1      -2.868  45.529  25.701  0.00  0.00    +0.000 A 
ATOM     32  C   UNL     1      -4.041  45.033  25.158  0.00  0.00    +0.000 A 
ENDROOT
BRANCH   5  33
ATOM     33  N   UNL     1      -3.357  49.567  31.519  0.00  0.00    +0.000 N 
ATOM     34  C   UNL     1      -4.447  48.724  31.959  0.00  0.00    +0.000 C 
ATOM     35  H   UNL     1      -3.054  50.285  32.181  0.00  0.00    +0.000 HD
ENDBRANCH   5  33
BRANCH   3  36
ATOM     36  O   UNL     1      -2.411  47.975  29.188  0.00  0.00    +0.000 OA
ATOM     37  C   UNL     1      -1.080  47.889  29.622  0.00  0.00    +0.000 C 
ENDBRANCH   3  36
TORSDOF 2
ENDMDL
MODEL 3
REMARK VINA RESULT:      -7.1      4.196      7.082
REMARK  Name = Staurosporine.pdbqt.pdb
REMARK  2 active torsions:
REMARK  status: ('A' for Active; 'I' for Inactive)
REMARK    1  A    between atoms: C_3  and  O_11
REMARK    2  A    between atoms: C_5  and  N_8
REMARK                            x       y       z     vdW  Elec       q    Type
REMARK                         _______ _______ _______ _____ _____    ______ ____
ROOT
ATOM      1  O   UNL     1      -2.157  48.550  26.842  0.00  0.00    +0.000 OA
ATOM      2  C   UNL     1      -3.543  48.431  27.264  0.00  0.00    +0.000 C 
ATOM      3  C   UNL     1      -4.372  47.389  26.486  0.00  0.00    +0.000 C 
ATOM      4  C   UNL     1      -1.506  47.331  26.747  0.00  0.00    +0.000 C 
ATOM      5  C   UNL     1      -3.669  46.303  25.806  0.00  0.00    +0.000 C 
ATOM      6  C   UNL     1      -2.280  46.425  25.993  0.00  0.00    +0.000 C 
ATOM      7  C   UNL     1      -4.143  49.836  26.923  0.00  0.00    +0.000 C 
ATOM      8  N   UNL     1      -3.540  48.176  28.723  0.00  0.00    +0.000 N 
ATOM      9  C   UNL     1      -2.590  47.632  29.550  0.00  0.00    +0.000 A 
ATOM     10  C   UNL     1      -1.375  47.041  29.187  0.00  0.00    +0.000 A 
ATOM     11  C   UNL     1      -2.847  47.570  30.926  0.00  0.00    +0.000 A 
ATOM     12  N   UNL     1      -0.934  46.863  27.912  0.00  0.00    +0.000 N 
ATOM     13  C   UNL     1      -0.654  46.467  30.244  0.00  0.00    +0.000 A 
ATOM     14  C   UNL     1       0.159  46.003  28.141  0.00  0.00    +0.000 A 
ATOM     15  C   UNL     1       0.370  45.783  29.552  0.00  0.00    +0.000 A 
ATOM     16  C   UNL     1       1.010  45.418  27.189  0.00  0.00    +0.000 A 
ATOM     17  C   UNL     1       1.443  44.955  29.937  0.00  0.00    +0.000 A 
ATOM     18  C   UNL     1       2.276  44.383  28.978  0.00  0.00    +0.000 A 
ATOM     19  C   UNL     1       2.059  44.611  27.627  0.00  0.00    +0.000 A 
ATOM     20  C   UNL     1      -0.898  46.410  31.630  0.00  0.00    +0.000 A 
ATOM     21  C   UNL     1      -2.120  47.037  31.999  0.00  0.00    +0.000 A 
ATOM     22  C   UNL     1      -0.251  45.842  32.791  0.00  0.00    +0.000 C 
ATOM     23  C   UNL     1      -2.264  46.864  33.469  0.00  0.00    +0.000 C 
ATOM     24  N   UNL     1      -1.153  46.176  33.811  0.00  0.00    +0.000 N 
ATOM     25  H   UNL     1      -0.957  45.906  34.764  0.00  0.00    +0.000 HD
ATOM     26  O   UNL     1       0.789  45.224  32.966  0.00  0.00    +0.000 OA
ATOM     27  C   UNL     1      -4.137  48.117  31.015  0.00  0.00    +0.000 A 
ATOM     28  C   UNL     1      -4.554  48.464  29.678  0.00  0.00    +0.000 A 
ATOM     29  C   UNL     1      -5.033  48.346  32.080  0.00  0.00    +0.000 A 
ATOM     30  C   UNL     1      -5.828  49.021  29.469  0.00  0.00    +0.000 A 
ATOM     31  C   UNL     1      -6.678  49.232  30.555  0.00  0.00    +0.000 A 
ATOM     32  C   UNL     1      -6.288  48.902  31.842  0.00  0.00    +0.000 A 
ENDROOT
BRANCH   5  33
ATOM     33  N   UNL     1      -4.313  45.172  25.234  0.00  0.00    +0.000 N 
ATOM     34  C   UNL     1      -4.878  44.241  26.186  0.00  0.00    +0.000 C 
ATOM     35  H   UNL     1      -3.825  44.754  24.439  0.00  0.00    +0.000 HD
ENDBRANCH   5  33
BRANCH   3  36
ATOM     36  O   UNL     1      -5.674  47.224  26.907  0.00  0.00    +0.000 OA
ATOM     37  C   UNL     1      -6.594  47.624  25.927  0.00  0.00    +0.000 C 
ENDBRANCH   3  36
TORSDOF 2
ENDMDL
MODEL 4
REMARK VINA RESULT:      -7.0     25.966     27.517
REMARK  Name = Staurosporine.pdbqt.pdb
REMARK  2 active torsions:
REMARK  status: ('A' for Active; 'I' for Inactive)
REMARK    1  A    between atoms: C_3  and  O_11
REMARK    2  A    between atoms: C_5  and  N_8
REMARK                            x       y       z     vdW  Elec       q    Type
REMARK                         _______ _______ _______ _____ _____    ______ ____
ROOT
ATOM      1  O   UNL     1     -21.010  40.096   6.891  0.00  0.00    +0.000 OA
ATOM      2  C   UNL     1     -20.349  38.849   6.539  0.00  0.00    +0.000 C 
ATOM      3  C   UNL     1     -21.065  38.017   5.456  0.00  0.00    +0.000 C 
ATOM      4  C   UNL     1     -21.358  40.861   5.789  0.00  0.00    +0.000 C 
ATOM      5  C   UNL     1     -21.978  38.697   4.542  0.00  0.00    +0.000 C 
ATOM      6  C   UNL     1     -22.045  40.069   4.846  0.00  0.00    +0.000 C 
ATOM      7  C   UNL     1     -20.416  38.022   7.868  0.00  0.00    +0.000 C 
ATOM      8  N   UNL     1     -18.954  39.178   6.170  0.00  0.00    +0.000 N 
ATOM      9  C   UNL     1     -18.385  40.336   5.701  0.00  0.00    +0.000 A 
ATOM     10  C   UNL     1     -19.032  41.517   5.323  0.00  0.00    +0.000 A 
ATOM     11  C   UNL     1     -17.000  40.373   5.492  0.00  0.00    +0.000 A 
ATOM     12  N   UNL     1     -20.380  41.710   5.314  0.00  0.00    +0.000 N 
ATOM     13  C   UNL     1     -18.200  42.503   4.774  0.00  0.00    +0.000 A 
ATOM     14  C   UNL     1     -20.456  42.925   4.604  0.00  0.00    +0.000 A 
ATOM     15  C   UNL     1     -19.143  43.442   4.303  0.00  0.00    +0.000 A 
ATOM     16  C   UNL     1     -21.610  43.632   4.227  0.00  0.00    +0.000 A 
ATOM     17  C   UNL     1     -19.059  44.665   3.608  0.00  0.00    +0.000 A 
ATOM     18  C   UNL     1     -20.215  45.352   3.242  0.00  0.00    +0.000 A 
ATOM     19  C   UNL     1     -21.468  44.840   3.546  0.00  0.00    +0.000 A 
ATOM     20  C   UNL     1     -16.807  42.553   4.570  0.00  0.00    +0.000 A 
ATOM     21  C   UNL     1     -16.148  41.362   4.983  0.00  0.00    +0.000 A 
ATOM     22  C   UNL     1     -15.858  43.487   4.008  0.00  0.00    +0.000 C 
ATOM     23  C   UNL     1     -14.704  41.541   4.672  0.00  0.00    +0.000 C 
ATOM     24  N   UNL     1     -14.656  42.775   4.125  0.00  0.00    +0.000 N 
ATOM     25  H   UNL     1     -13.792  43.191   3.808  0.00  0.00    +0.000 HD
ATOM     26  O   UNL     1     -15.951  44.609   3.533  0.00  0.00    +0.000 OA
ATOM     27  C   UNL     1     -16.609  39.069   5.839  0.00  0.00    +0.000 A 
ATOM     28  C   UNL     1     -17.799  38.351   6.231  0.00  0.00    +0.000 A 
ATOM     29  C   UNL     1     -15.376  38.386   5.850  0.00  0.00    +0.000 A 
ATOM     30  C   UNL     1     -17.701  37.002   6.614  0.00  0.00    +0.000 A 
ATOM     31  C   UNL     1     -16.458  36.369   6.612  0.00  0.00    +0.000 A 
ATOM     32  C   UNL     1     -15.311  37.049   6.237  0.00  0.00    +0.000 A 
ENDROOT
BRANCH   5  33
ATOM     33  N   UNL     1     -22.537  38.096   3.380  0.00  0.00    +0.000 N 
ATOM     34  C   UNL     1     -23.907  37.652   3.518  0.00  0.00    +0.000 C 
ATOM     35  H   UNL     1     -21.912  37.462   2.879  0.00  0.00    +0.000 HD
ENDBRANCH   5  33
BRANCH   3  36
ATOM     36  O   UNL     1     -20.425  36.857   5.073  0.00  0.00    +0.000 OA
ATOM     37  C   UNL     1     -21.135  35.714   5.467  0.00  0.00    +0.000 C 
ENDBRANCH   3  36
TORSDOF 2
ENDMDL
MODEL 5
REMARK VINA RESULT:      -7.0     25.578     28.728
REMARK  Name = Staurosporine.pdbqt.pdb
REMARK  2 active torsions:
REMARK  status: ('A' for Active; 'I' for Inactive)
REMARK    1  A    between atoms: C_3  and  O_11
REMARK    2  A    between atoms: C_5  and  N_8
REMARK                            x       y       z     vdW  Elec       q    Type
REMARK                         _______ _______ _______ _____ _____    ______ ____
ROOT
ATOM      1  O   UNL     1     -16.532  38.595   7.010  0.00  0.00    +0.000 OA
ATOM      2  C   UNL     1     -16.591  39.388   5.793  0.00  0.00    +0.000 C 
ATOM      3  C   UNL     1     -15.821  38.798   4.594  0.00  0.00    +0.000 C 
ATOM      4  C   UNL     1     -16.827  37.257   6.807  0.00  0.00    +0.000 C 
ATOM      5  C   UNL     1     -15.551  37.363   4.574  0.00  0.00    +0.000 C 
ATOM      6  C   UNL     1     -16.069  36.750   5.730  0.00  0.00    +0.000 C 
ATOM      7  C   UNL     1     -15.862  40.715   6.194  0.00  0.00    +0.000 C 
ATOM      8  N   UNL     1     -18.021  39.620   5.487  0.00  0.00    +0.000 N 
ATOM      9  C   UNL     1     -19.151  38.918   5.827  0.00  0.00    +0.000 A 
ATOM     10  C   UNL     1     -19.228  37.682   6.477  0.00  0.00    +0.000 A 
ATOM     11  C   UNL     1     -20.400  39.420   5.440  0.00  0.00    +0.000 A 
ATOM     12  N   UNL     1     -18.164  36.922   6.856  0.00  0.00    +0.000 N 
ATOM     13  C   UNL     1     -20.521  37.151   6.593  0.00  0.00    +0.000 A 
ATOM     14  C   UNL     1     -18.819  35.718   7.185  0.00  0.00    +0.000 A 
ATOM     15  C   UNL     1     -20.252  35.849   7.070  0.00  0.00    +0.000 A 
ATOM     16  C   UNL     1     -18.241  34.512   7.612  0.00  0.00    +0.000 A 
ATOM     17  C   UNL     1     -21.044  34.727   7.385  0.00  0.00    +0.000 A 
ATOM     18  C   UNL     1     -20.452  33.538   7.806  0.00  0.00    +0.000 A 
ATOM     19  C   UNL     1     -19.073  33.435   7.915  0.00  0.00    +0.000 A 
ATOM     20  C   UNL     1     -21.783  37.651   6.217  0.00  0.00    +0.000 A 
ATOM     21  C   UNL     1     -21.703  38.922   5.583  0.00  0.00    +0.000 A 
ATOM     22  C   UNL     1     -23.153  37.197   6.267  0.00  0.00    +0.000 C 
ATOM     23  C   UNL     1     -23.091  39.302   5.208  0.00  0.00    +0.000 C 
ATOM     24  N   UNL     1     -23.827  38.255   5.642  0.00  0.00    +0.000 N 
ATOM     25  H   UNL     1     -24.830  38.220   5.534  0.00  0.00    +0.000 HD
ATOM     26  O   UNL     1     -23.700  36.195   6.704  0.00  0.00    +0.000 OA
ATOM     27  C   UNL     1     -20.052  40.582   4.733  0.00  0.00    +0.000 A 
ATOM     28  C   UNL     1     -18.612  40.685   4.753  0.00  0.00    +0.000 A 
ATOM     29  C   UNL     1     -20.788  41.569   4.046  0.00  0.00    +0.000 A 
ATOM     30  C   UNL     1     -17.983  41.758   4.097  0.00  0.00    +0.000 A 
ATOM     31  C   UNL     1     -18.755  42.712   3.433  0.00  0.00    +0.000 A 
ATOM     32  C   UNL     1     -20.136  42.622   3.407  0.00  0.00    +0.000 A 
ENDROOT
BRANCH   5  33
ATOM     33  N   UNL     1     -15.040  36.663   3.447  0.00  0.00    +0.000 N 
ATOM     34  C   UNL     1     -14.388  35.407   3.748  0.00  0.00    +0.000 C 
ATOM     35  H   UNL     1     -14.576  37.249   2.750  0.00  0.00    +0.000 HD
ENDBRANCH   5  33
BRANCH   3  36
ATOM     36  O   UNL     1     -15.910  39.510   3.417  0.00  0.00    +0.000 OA
ATOM     37  C   UNL     1     -16.625  38.809   2.436  0.00  0.00    +0.000 C 
ENDBRANCH   3  36
TORSDOF 2
ENDMDL
MODEL 6
REMARK VINA RESULT:      -6.9      2.235      6.240
REMARK  Name = Staurosporine.pdbqt.pdb
REMARK  2 active torsions:
REMARK  status: ('A' for Active; 'I' for Inactive)
REMARK    1  A    between atoms: C_3  and  O_11
REMARK    2  A    between atoms: C_5  and  N_8
REMARK                            x       y       z     vdW  Elec       q    Type
REMARK                         _______ _______ _______ _____ _____    ______ ____
ROOT
ATOM      1  O   UNL     1      -2.316  51.773  28.203  0.00  0.00    +0.000 OA
ATOM      2  C   UNL     1      -1.433  50.834  28.876  0.00  0.00    +0.000 C 
ATOM      3  C   UNL     1      -1.567  50.802  30.412  0.00  0.00    +0.000 C 
ATOM      4  C   UNL     1      -3.637  51.672  28.610  0.00  0.00    +0.000 C 
ATOM      5  C   UNL     1      -2.815  51.265  31.015  0.00  0.00    +0.000 C 
ATOM      6  C   UNL     1      -3.713  51.689  30.018  0.00  0.00    +0.000 C 
ATOM      7  C   UNL     1      -0.006  51.393  28.556  0.00  0.00    +0.000 C 
ATOM      8  N   UNL     1      -1.652  49.505  28.262  0.00  0.00    +0.000 N 
ATOM      9  C   UNL     1      -2.728  48.976  27.595  0.00  0.00    +0.000 A 
ATOM     10  C   UNL     1      -3.994  49.545  27.424  0.00  0.00    +0.000 A 
ATOM     11  C   UNL     1      -2.625  47.685  27.060  0.00  0.00    +0.000 A 
ATOM     12  N   UNL     1      -4.400  50.737  27.943  0.00  0.00    +0.000 N 
ATOM     13  C   UNL     1      -4.936  48.722  26.790  0.00  0.00    +0.000 A 
ATOM     14  C   UNL     1      -5.786  50.659  27.698  0.00  0.00    +0.000 A 
ATOM     15  C   UNL     1      -6.126  49.463  26.964  0.00  0.00    +0.000 A 
ATOM     16  C   UNL     1      -6.777  51.590  28.051  0.00  0.00    +0.000 A 
ATOM     17  C   UNL     1      -7.479  49.257  26.629  0.00  0.00    +0.000 A 
ATOM     18  C   UNL     1      -8.448  50.191  26.989  0.00  0.00    +0.000 A 
ATOM     19  C   UNL     1      -8.100  51.337  27.689  0.00  0.00    +0.000 A 
ATOM     20  C   UNL     1      -4.839  47.429  26.240  0.00  0.00    +0.000 A 
ATOM     21  C   UNL     1      -3.542  46.865  26.389  0.00  0.00    +0.000 A 
ATOM     22  C   UNL     1      -5.726  46.491  25.591  0.00  0.00    +0.000 C 
ATOM     23  C   UNL     1      -3.599  45.498  25.805  0.00  0.00    +0.000 C 
ATOM     24  N   UNL     1      -4.879  45.394  25.386  0.00  0.00    +0.000 N 
ATOM     25  H   UNL     1      -5.232  44.563  24.933  0.00  0.00    +0.000 HD
ATOM     26  O   UNL     1      -6.902  46.525  25.259  0.00  0.00    +0.000 OA
ATOM     27  C   UNL     1      -1.329  47.304  27.445  0.00  0.00    +0.000 A 
ATOM     28  C   UNL     1      -0.756  48.403  28.185  0.00  0.00    +0.000 A 
ATOM     29  C   UNL     1      -0.561  46.133  27.276  0.00  0.00    +0.000 A 
ATOM     30  C   UNL     1       0.542  48.284  28.711  0.00  0.00    +0.000 A 
ATOM     31  C   UNL     1       1.264  47.107  28.515  0.00  0.00    +0.000 A 
ATOM     32  C   UNL     1       0.724  46.046  27.808  0.00  0.00    +0.000 A 
ENDROOT
BRANCH   5  33
ATOM     33  N   UNL     1      -3.148  51.098  32.387  0.00  0.00    +0.000 N 
ATOM     34  C   UNL     1      -4.564  51.006  32.668  0.00  0.00    +0.000 C 
ATOM     35  H   UNL     1      -2.602  51.669  33.036  0.00  0.00    +0.000 HD
ENDBRANCH   5  33
BRANCH   3  36
ATOM     36  O   UNL     1      -0.776  49.881  31.063  0.00  0.00    +0.000 OA
ATOM     37  C   UNL     1       0.172  50.499  31.891  0.00  0.00    +0.000 C 
ENDBRANCH   3  36
TORSDOF 2
ENDMDL
MODEL 7
REMARK VINA RESULT:      -6.8     12.345     15.673
REMARK  Name = Staurosporine.pdbqt.pdb
REMARK  2 active torsions:
REMARK  status: ('A' for Active; 'I' for Inactive)
REMARK    1  A    between atoms: C_3  and  O_11
REMARK    2  A    between atoms: C_5  and  N_8
REMARK                            x       y       z     vdW  Elec       q    Type
REMARK                         _______ _______ _______ _____ _____    ______ ____
ROOT
ATOM      1  O   UNL     1       6.660  58.600  22.596  0.00  0.00    +0.000 OA
ATOM      2  C   UNL     1       7.694  57.578  22.623  0.00  0.00    +0.000 C 
ATOM      3  C   UNL     1       7.713  56.707  23.895  0.00  0.00    +0.000 C 
ATOM      4  C   UNL     1       5.402  58.116  22.916  0.00  0.00    +0.000 C 
ATOM      5  C   UNL     1       6.490  56.596  24.685  0.00  0.00    +0.000 C 
ATOM      6  C   UNL     1       5.461  57.361  24.106  0.00  0.00    +0.000 C 
ATOM      7  C   UNL     1       9.020  58.412  22.622  0.00  0.00    +0.000 C 
ATOM      8  N   UNL     1       7.552  56.774  21.388  0.00  0.00    +0.000 N 
ATOM      9  C   UNL     1       6.474  56.546  20.569  0.00  0.00    +0.000 A 
ATOM     10  C   UNL     1       5.147  56.937  20.771  0.00  0.00    +0.000 A 
ATOM     11  C   UNL     1       6.655  55.775  19.413  0.00  0.00    +0.000 A 
ATOM     12  N   UNL     1       4.675  57.593  21.867  0.00  0.00    +0.000 N 
ATOM     13  C   UNL     1       4.235  56.465  19.815  0.00  0.00    +0.000 A 
ATOM     14  C   UNL     1       3.287  57.470  21.656  0.00  0.00    +0.000 A 
ATOM     15  C   UNL     1       3.000  56.824  20.397  0.00  0.00    +0.000 A 
ATOM     16  C   UNL     1       2.246  57.918  22.486  0.00  0.00    +0.000 A 
ATOM     17  C   UNL     1       1.649  56.647  20.040  0.00  0.00    +0.000 A 
ATOM     18  C   UNL     1       0.630  57.098  20.877  0.00  0.00    +0.000 A 
ATOM     19  C   UNL     1       0.927  57.720  22.080  0.00  0.00    +0.000 A 
ATOM     20  C   UNL     1       4.408  55.699  18.645  0.00  0.00    +0.000 A 
ATOM     21  C   UNL     1       5.765  55.329  18.427  0.00  0.00    +0.000 A 
ATOM     22  C   UNL     1       3.561  55.148  17.613  0.00  0.00    +0.000 C 
ATOM     23  C   UNL     1       5.789  54.498  17.193  0.00  0.00    +0.000 C 
ATOM     24  N   UNL     1       4.491  54.462  16.819  0.00  0.00    +0.000 N 
ATOM     25  H   UNL     1       4.181  53.967  15.995  0.00  0.00    +0.000 HD
ATOM     26  O   UNL     1       2.362  55.194  17.385  0.00  0.00    +0.000 OA
ATOM     27  C   UNL     1       8.014  55.429  19.493  0.00  0.00    +0.000 A 
ATOM     28  C   UNL     1       8.542  56.022  20.697  0.00  0.00    +0.000 A 
ATOM     29  C   UNL     1       8.875  54.652  18.691  0.00  0.00    +0.000 A 
ATOM     30  C   UNL     1       9.890  55.819  21.039  0.00  0.00    +0.000 A 
ATOM     31  C   UNL     1      10.705  55.045  20.212  0.00  0.00    +0.000 A 
ATOM     32  C   UNL     1      10.208  54.470  19.055  0.00  0.00    +0.000 A 
ENDROOT
BRANCH   5  33
ATOM     33  N   UNL     1       6.310  55.673  25.751  0.00  0.00    +0.000 N 
ATOM     34  C   UNL     1       4.964  55.165  25.903  0.00  0.00    +0.000 C 
ATOM     35  H   UNL     1       6.795  55.915  26.618  0.00  0.00    +0.000 HD
ENDBRANCH   5  33
BRANCH   3  36
ATOM     36  O   UNL     1       8.653  55.699  23.915  0.00  0.00    +0.000 OA
ATOM     37  C   UNL     1       9.607  55.894  24.924  0.00  0.00    +0.000 C 
ENDBRANCH   3  36
TORSDOF 2
ENDMDL
MODEL 8
REMARK VINA RESULT:      -6.8     26.027     28.872
REMARK  Name = Staurosporine.pdbqt.pdb
REMARK  2 active torsions:
REMARK  status: ('A' for Active; 'I' for Inactive)
REMARK    1  A    between atoms: C_3  and  O_11
REMARK    2  A    between atoms: C_5  and  N_8
REMARK                            x       y       z     vdW  Elec       q    Type
REMARK                         _______ _______ _______ _____ _____    ______ ____
ROOT
ATOM      1  O   UNL     1     -20.039  41.118   2.580  0.00  0.00    +0.000 OA
ATOM      2  C   UNL     1     -18.891  41.340   3.444  0.00  0.00    +0.000 C 
ATOM      3  C   UNL     1     -18.857  42.716   4.140  0.00  0.00    +0.000 C 
ATOM      4  C   UNL     1     -21.247  41.428   3.184  0.00  0.00    +0.000 C 
ATOM      5  C   UNL     1     -20.112  43.443   4.313  0.00  0.00    +0.000 C 
ATOM      6  C   UNL     1     -21.183  42.709   3.770  0.00  0.00    +0.000 C 
ATOM      7  C   UNL     1     -17.682  41.304   2.449  0.00  0.00    +0.000 C 
ATOM      8  N   UNL     1     -18.840  40.217   4.408  0.00  0.00    +0.000 N 
ATOM      9  C   UNL     1     -19.817  39.376   4.878  0.00  0.00    +0.000 A 
ATOM     10  C   UNL     1     -21.194  39.448   4.645  0.00  0.00    +0.000 A 
ATOM     11  C   UNL     1     -19.457  38.345   5.756  0.00  0.00    +0.000 A 
ATOM     12  N   UNL     1     -21.824  40.418   3.926  0.00  0.00    +0.000 N 
ATOM     13  C   UNL     1     -21.967  38.513   5.350  0.00  0.00    +0.000 A 
ATOM     14  C   UNL     1     -23.166  40.147   4.258  0.00  0.00    +0.000 A 
ATOM     15  C   UNL     1     -23.277  38.971   5.088  0.00  0.00    +0.000 A 
ATOM     16  C   UNL     1     -24.313  40.849   3.853  0.00  0.00    +0.000 A 
ATOM     17  C   UNL     1     -24.565  38.564   5.487  0.00  0.00    +0.000 A 
ATOM     18  C   UNL     1     -25.691  39.274   5.075  0.00  0.00    +0.000 A 
ATOM     19  C   UNL     1     -25.564  40.399   4.273  0.00  0.00    +0.000 A 
ATOM     20  C   UNL     1     -21.614  37.468   6.225  0.00  0.00    +0.000 A 
ATOM     21  C   UNL     1     -20.210  37.379   6.437  0.00  0.00    +0.000 A 
ATOM     22  C   UNL     1     -22.307  36.472   7.010  0.00  0.00    +0.000 C 
ATOM     23  C   UNL     1     -19.991  36.270   7.404  0.00  0.00    +0.000 C 
ATOM     24  N   UNL     1     -21.243  35.830   7.659  0.00  0.00    +0.000 N 
ATOM     25  H   UNL     1     -21.427  35.064   8.290  0.00  0.00    +0.000 HD
ATOM     26  O   UNL     1     -23.483  36.171   7.153  0.00  0.00    +0.000 OA
ATOM     27  C   UNL     1     -18.076  38.548   5.906  0.00  0.00    +0.000 A 
ATOM     28  C   UNL     1     -17.716  39.691   5.101  0.00  0.00    +0.000 A 
ATOM     29  C   UNL     1     -17.067  37.907   6.655  0.00  0.00    +0.000 A 
ATOM     30  C   UNL     1     -16.381  40.132   5.079  0.00  0.00    +0.000 A 
ATOM     31  C   UNL     1     -15.418  39.464   5.836  0.00  0.00    +0.000 A 
ATOM     32  C   UNL     1     -15.753  38.367   6.611  0.00  0.00    +0.000 A 
ENDROOT
BRANCH   5  33
ATOM     33  N   UNL     1     -20.253  44.611   5.112  0.00  0.00    +0.000 N 
ATOM     34  C   UNL     1     -21.213  45.576   4.623  0.00  0.00    +0.000 C 
ATOM     35  H   UNL     1     -19.377  44.997   5.470  0.00  0.00    +0.000 HD
ENDBRANCH   5  33
BRANCH   3  36
ATOM     36  O   UNL     1     -17.803  42.923   5.003  0.00  0.00    +0.000 OA
ATOM     37  C   UNL     1     -16.835  43.776   4.451  0.00  0.00    +0.000 C 
ENDBRANCH   3  36
TORSDOF 2
ENDMDL
MODEL 9
REMARK VINA RESULT:      -6.8     25.652     28.370
REMARK  Name = Staurosporine.pdbqt.pdb
REMARK  2 active torsions:
REMARK  status: ('A' for Active; 'I' for Inactive)
REMARK    1  A    between atoms: C_3  and  O_11
REMARK    2  A    between atoms: C_5  and  N_8
REMARK                            x       y       z     vdW  Elec       q    Type
REMARK                         _______ _______ _______ _____ _____    ______ ____
ROOT
ATOM      1  O   UNL     1     -21.128  42.392   5.378  0.00  0.00    +0.000 OA
ATOM      2  C   UNL     1     -21.961  41.349   4.802  0.00  0.00    +0.000 C 
ATOM      3  C   UNL     1     -22.187  41.464   3.282  0.00  0.00    +0.000 C 
ATOM      4  C   UNL     1     -19.943  42.591   4.688  0.00  0.00    +0.000 C 
ATOM      5  C   UNL     1     -21.219  42.213   2.485  0.00  0.00    +0.000 C 
ATOM      6  C   UNL     1     -20.203  42.731   3.308  0.00  0.00    +0.000 C 
ATOM      7  C   UNL     1     -23.350  41.583   5.488  0.00  0.00    +0.000 C 
ATOM      8  N   UNL     1     -21.371  40.048   5.191  0.00  0.00    +0.000 N 
ATOM      9  C   UNL     1     -20.091  39.698   5.542  0.00  0.00    +0.000 A 
ATOM     10  C   UNL     1     -18.943  40.495   5.503  0.00  0.00    +0.000 A 
ATOM     11  C   UNL     1     -19.834  38.375   5.927  0.00  0.00    +0.000 A 
ATOM     12  N   UNL     1     -18.889  41.780   5.057  0.00  0.00    +0.000 N 
ATOM     13  C   UNL     1     -17.747  39.832   5.816  0.00  0.00    +0.000 A 
ATOM     14  C   UNL     1     -17.494  41.965   4.987  0.00  0.00    +0.000 A 
ATOM     15  C   UNL     1     -16.784  40.809   5.480  0.00  0.00    +0.000 A 
ATOM     16  C   UNL     1     -16.796  43.100   4.544  0.00  0.00    +0.000 A 
ATOM     17  C   UNL     1     -15.376  40.854   5.489  0.00  0.00    +0.000 A 
ATOM     18  C   UNL     1     -14.701  41.990   5.045  0.00  0.00    +0.000 A 
ATOM     19  C   UNL     1     -15.402  43.092   4.579  0.00  0.00    +0.000 A 
ATOM     20  C   UNL     1     -17.480  38.507   6.214  0.00  0.00    +0.000 A 
ATOM     21  C   UNL     1     -18.654  37.707   6.281  0.00  0.00    +0.000 A 
ATOM     22  C   UNL     1     -16.313  37.721   6.538  0.00  0.00    +0.000 C 
ATOM     23  C   UNL     1     -18.218  36.339   6.669  0.00  0.00    +0.000 C 
ATOM     24  N   UNL     1     -16.878  36.463   6.787  0.00  0.00    +0.000 N 
ATOM     25  H   UNL     1     -16.287  35.688   7.050  0.00  0.00    +0.000 HD
ATOM     26  O   UNL     1     -15.118  37.965   6.612  0.00  0.00    +0.000 OA
ATOM     27  C   UNL     1     -21.095  37.771   5.786  0.00  0.00    +0.000 A 
ATOM     28  C   UNL     1     -22.012  38.786   5.325  0.00  0.00    +0.000 A 
ATOM     29  C   UNL     1     -21.580  36.460   5.974  0.00  0.00    +0.000 A 
ATOM     30  C   UNL     1     -23.354  38.449   5.080  0.00  0.00    +0.000 A 
ATOM     31  C   UNL     1     -23.788  37.139   5.283  0.00  0.00    +0.000 A 
ATOM     32  C   UNL     1     -22.916  36.158   5.725  0.00  0.00    +0.000 A 
ENDROOT
BRANCH   5  33
ATOM     33  N   UNL     1     -21.193  42.223   1.063  0.00  0.00    +0.000 N 
ATOM     34  C   UNL     1     -21.865  43.345   0.445  0.00  0.00    +0.000 C 
ATOM     35  H   UNL     1     -21.349  41.313   0.623  0.00  0.00    +0.000 HD
ENDBRANCH   5  33
BRANCH   3  36
ATOM     36  O   UNL     1     -22.932  40.454   2.710  0.00  0.00    +0.000 OA
ATOM     37  C   UNL     1     -24.184  40.911   2.274  0.00  0.00    +0.000 C 
ENDBRANCH   3  36
TORSDOF 2
ENDMDL
