MODEL 1
REMARK VINA RESULT:      -6.6      0.000      0.000
REMARK  Name = Testosterone.pdbqt.pdb
REMARK  1 active torsions:
REMARK  status: ('A' for Active; 'I' for Inactive)
REMARK    1  A    between atoms: C_9  and  O_21
REMARK                            x       y       z     vdW  Elec       q    Type
REMARK                         _______ _______ _______ _____ _____    ______ ____
ROOT
ATOM      1  O   UNL     1       1.268  43.170  31.512  0.00  0.00    +0.000 OA
ATOM      2  C   UNL     1      -3.177  46.758  26.415  0.00  0.00    +0.000 C 
ATOM      3  C   UNL     1      -4.627  47.319  26.800  0.00  0.00    +0.000 C 
ATOM      4  C   UNL     1      -2.109  46.617  27.425  0.00  0.00    +0.000 C 
ATOM      5  C   UNL     1      -2.291  46.660  28.918  0.00  0.00    +0.000 C 
ATOM      6  C   UNL     1      -1.127  46.598  29.931  0.00  0.00    +0.000 C 
ATOM      7  C   UNL     1      -4.743  47.163  28.251  0.00  0.00    +0.000 C 
ATOM      8  C   UNL     1      -3.655  46.881  29.259  0.00  0.00    +0.000 C 
ATOM      9  C   UNL     1      -5.594  46.386  26.032  0.00  0.00    +0.000 C 
ATOM     10  C   UNL     1      -3.384  45.714  25.455  0.00  0.00    +0.000 C 
ATOM     11  C   UNL     1      -0.791  46.268  27.050  0.00  0.00    +0.000 C 
ATOM     12  C   UNL     1      -4.856  45.448  25.260  0.00  0.00    +0.000 C 
ATOM     13  C   UNL     1       0.286  45.965  29.344  0.00  0.00    +0.000 C 
ATOM     14  C   UNL     1       0.379  45.950  27.930  0.00  0.00    +0.000 C 
ATOM     15  C   UNL     1      -4.782  48.784  26.322  0.00  0.00    +0.000 C 
ATOM     16  C   UNL     1      -1.466  45.667  31.058  0.00  0.00    +0.000 C 
ATOM     17  C   UNL     1      -0.804  48.028  30.445  0.00  0.00    +0.000 C 
ATOM     18  C   UNL     1      -0.713  44.478  31.697  0.00  0.00    +0.000 C 
ATOM     19  C   UNL     1       0.832  44.968  30.009  0.00  0.00    +0.000 C 
ATOM     20  C   UNL     1       0.566  44.089  31.138  0.00  0.00    +0.000 C 
ENDROOT
BRANCH   9  21
ATOM     21  O   UNL     1      -6.843  46.805  25.610  0.00  0.00    +0.000 OA
ATOM     22  H   UNL     1      -6.786  47.297  24.768  0.00  0.00    +0.000 HD
ENDBRANCH   9  21
TORSDOF 1
ENDMDL
MODEL 2
REMARK VINA RESULT:      -6.1     26.779     29.062
REMARK  Name = Testosterone.pdbqt.pdb
REMARK  1 active torsions:
REMARK  status: ('A' for Active; 'I' for Inactive)
REMARK    1  A    between atoms: C_9  and  O_21
REMARK                            x       y       z     vdW  Elec       q    Type
REMARK                         _______ _______ _______ _____ _____    ______ ____
ROOT
ATOM      1  O   UNL     1     -17.324  33.652   3.404  0.00  0.00    +0.000 OA
ATOM      2  C   UNL     1     -16.343  40.792   5.986  0.00  0.00    +0.000 C 
ATOM      3  C   UNL     1     -17.073  42.048   5.308  0.00  0.00    +0.000 C 
ATOM      4  C   UNL     1     -16.926  39.437   5.928  0.00  0.00    +0.000 C 
ATOM      5  C   UNL     1     -18.036  38.988   5.019  0.00  0.00    +0.000 C 
ATOM      6  C   UNL     1     -18.670  37.580   5.062  0.00  0.00    +0.000 C 
ATOM      7  C   UNL     1     -18.014  41.485   4.337  0.00  0.00    +0.000 C 
ATOM      8  C   UNL     1     -18.495  40.061   4.206  0.00  0.00    +0.000 C 
ATOM      9  C   UNL     1     -15.917  42.817   4.626  0.00  0.00    +0.000 C 
ATOM     10  C   UNL     1     -14.938  40.969   5.766  0.00  0.00    +0.000 C 
ATOM     11  C   UNL     1     -16.356  38.367   6.657  0.00  0.00    +0.000 C 
ATOM     12  C   UNL     1     -14.679  42.170   4.892  0.00  0.00    +0.000 C 
ATOM     13  C   UNL     1     -17.747  36.412   5.787  0.00  0.00    +0.000 C 
ATOM     14  C   UNL     1     -16.716  36.913   6.620  0.00  0.00    +0.000 C 
ATOM     15  C   UNL     1     -17.753  42.923   6.390  0.00  0.00    +0.000 C 
ATOM     16  C   UNL     1     -18.850  37.046   3.671  0.00  0.00    +0.000 C 
ATOM     17  C   UNL     1     -20.017  37.636   5.834  0.00  0.00    +0.000 C 
ATOM     18  C   UNL     1     -18.451  35.711   3.002  0.00  0.00    +0.000 C 
ATOM     19  C   UNL     1     -17.510  35.310   5.107  0.00  0.00    +0.000 C 
ATOM     20  C   UNL     1     -17.723  34.734   3.787  0.00  0.00    +0.000 C 
ENDROOT
BRANCH   9  21
ATOM     21  O   UNL     1     -15.959  44.184   4.425  0.00  0.00    +0.000 OA
ATOM     22  H   UNL     1     -15.071  44.583   4.508  0.00  0.00    +0.000 HD
ENDBRANCH   9  21
TORSDOF 1
ENDMDL
MODEL 3
REMARK VINA RESULT:      -6.0      4.445      8.855
REMARK  Name = Testosterone.pdbqt.pdb
REMARK  1 active torsions:
REMARK  status: ('A' for Active; 'I' for Inactive)
REMARK    1  A    between atoms: C_9  and  O_21
REMARK                            x       y       z     vdW  Elec       q    Type
REMARK                         _______ _______ _______ _____ _____    ______ ____
ROOT
ATOM      1  O   UNL     1     -13.727  49.299  27.434  0.00  0.00    +0.000 OA
ATOM      2  C   UNL     1      -6.400  47.099  27.725  0.00  0.00    +0.000 C 
ATOM      3  C   UNL     1      -5.634  46.526  26.439  0.00  0.00    +0.000 C 
ATOM      4  C   UNL     1      -7.532  48.038  27.595  0.00  0.00    +0.000 C 
ATOM      5  C   UNL     1      -8.301  48.328  26.336  0.00  0.00    +0.000 C 
ATOM      6  C   UNL     1      -9.420  49.388  26.234  0.00  0.00    +0.000 C 
ATOM      7  C   UNL     1      -6.545  46.725  25.310  0.00  0.00    +0.000 C 
ATOM      8  C   UNL     1      -7.782  47.586  25.238  0.00  0.00    +0.000 C 
ATOM      9  C   UNL     1      -5.433  45.028  26.772  0.00  0.00    +0.000 C 
ATOM     10  C   UNL     1      -6.478  46.022  28.667  0.00  0.00    +0.000 C 
ATOM     11  C   UNL     1      -8.101  48.656  28.732  0.00  0.00    +0.000 C 
ATOM     12  C   UNL     1      -5.940  44.746  28.070  0.00  0.00    +0.000 C 
ATOM     13  C   UNL     1     -10.103  49.834  27.675  0.00  0.00    +0.000 C 
ATOM     14  C   UNL     1      -9.323  49.518  28.816  0.00  0.00    +0.000 C 
ATOM     15  C   UNL     1      -4.269  47.238  26.264  0.00  0.00    +0.000 C 
ATOM     16  C   UNL     1     -10.589  48.840  25.468  0.00  0.00    +0.000 C 
ATOM     17  C   UNL     1      -8.860  50.680  25.579  0.00  0.00    +0.000 C 
ATOM     18  C   UNL     1     -12.103  48.777  25.771  0.00  0.00    +0.000 C 
ATOM     19  C   UNL     1     -11.413  49.755  27.782  0.00  0.00    +0.000 C 
ATOM     20  C   UNL     1     -12.576  49.293  27.040  0.00  0.00    +0.000 C 
ENDROOT
BRANCH   9  21
ATOM     21  O   UNL     1      -4.377  44.295  26.263  0.00  0.00    +0.000 OA
ATOM     22  H   UNL     1      -4.678  43.665  25.579  0.00  0.00    +0.000 HD
ENDBRANCH   9  21
TORSDOF 1
ENDMDL
MODEL 4
REMARK VINA RESULT:      -5.8      6.171      9.660
REMARK  Name = Testosterone.pdbqt.pdb
REMARK  1 active torsions:
REMARK  status: ('A' for Active; 'I' for Inactive)
REMARK    1  A    between atoms: C_9  and  O_21
REMARK                            x       y       z     vdW  Elec       q    Type
REMARK                         _______ _______ _______ _____ _____    ______ ____
ROOT
ATOM      1  O   UNL     1      -4.856  47.584  25.727  0.00  0.00    +0.000 OA
ATOM      2  C   UNL     1     -12.265  49.354  26.488  0.00  0.00    +0.000 C 
ATOM      3  C   UNL     1     -13.057  50.190  25.373  0.00  0.00    +0.000 C 
ATOM      4  C   UNL     1     -11.096  48.520  26.144  0.00  0.00    +0.000 C 
ATOM      5  C   UNL     1     -10.319  48.573  24.857  0.00  0.00    +0.000 C 
ATOM      6  C   UNL     1      -9.158  47.615  24.510  0.00  0.00    +0.000 C 
ATOM      7  C   UNL     1     -12.142  50.305  24.236  0.00  0.00    +0.000 C 
ATOM      8  C   UNL     1     -10.871  49.537  23.968  0.00  0.00    +0.000 C 
ATOM      9  C   UNL     1     -13.317  51.554  26.057  0.00  0.00    +0.000 C 
ATOM     10  C   UNL     1     -12.227  50.174  27.663  0.00  0.00    +0.000 C 
ATOM     11  C   UNL     1     -10.499  47.669  27.102  0.00  0.00    +0.000 C 
ATOM     12  C   UNL     1     -12.819  51.534  27.388  0.00  0.00    +0.000 C 
ATOM     13  C   UNL     1      -8.454  46.862  25.806  0.00  0.00    +0.000 C 
ATOM     14  C   UNL     1      -9.243  46.862  26.984  0.00  0.00    +0.000 C 
ATOM     15  C   UNL     1     -14.392  49.487  25.022  0.00  0.00    +0.000 C 
ATOM     16  C   UNL     1      -8.015  48.378  23.907  0.00  0.00    +0.000 C 
ATOM     17  C   UNL     1      -9.668  46.498  23.559  0.00  0.00    +0.000 C 
ATOM     18  C   UNL     1      -6.503  48.426  24.228  0.00  0.00    +0.000 C 
ATOM     19  C   UNL     1      -7.148  46.965  25.939  0.00  0.00    +0.000 C 
ATOM     20  C   UNL     1      -6.007  47.638  25.338  0.00  0.00    +0.000 C 
ENDROOT
BRANCH   9  21
ATOM     21  O   UNL     1     -14.404  52.345  25.732  0.00  0.00    +0.000 OA
ATOM     22  H   UNL     1     -14.893  52.623  26.531  0.00  0.00    +0.000 HD
ENDBRANCH   9  21
TORSDOF 1
ENDMDL
MODEL 5
REMARK VINA RESULT:      -5.3      2.444      6.625
REMARK  Name = Testosterone.pdbqt.pdb
REMARK  1 active torsions:
REMARK  status: ('A' for Active; 'I' for Inactive)
REMARK    1  A    between atoms: C_9  and  O_21
REMARK                            x       y       z     vdW  Elec       q    Type
REMARK                         _______ _______ _______ _____ _____    ______ ____
ROOT
ATOM      1  O   UNL     1      -4.508  45.189  25.750  0.00  0.00    +0.000 OA
ATOM      2  C   UNL     1       1.886  45.757  29.921  0.00  0.00    +0.000 C 
ATOM      3  C   UNL     1       2.876  47.010  29.790  0.00  0.00    +0.000 C 
ATOM      4  C   UNL     1       0.445  45.876  29.621  0.00  0.00    +0.000 C 
ATOM      5  C   UNL     1      -0.215  47.010  28.886  0.00  0.00    +0.000 C 
ATOM      6  C   UNL     1      -1.741  47.129  28.677  0.00  0.00    +0.000 C 
ATOM      7  C   UNL     1       2.188  47.974  28.930  0.00  0.00    +0.000 C 
ATOM      8  C   UNL     1       0.736  48.002  28.520  0.00  0.00    +0.000 C 
ATOM      9  C   UNL     1       4.132  46.412  29.112  0.00  0.00    +0.000 C 
ATOM     10  C   UNL     1       2.613  44.611  29.459  0.00  0.00    +0.000 C 
ATOM     11  C   UNL     1      -0.445  44.809  29.885  0.00  0.00    +0.000 C 
ATOM     12  C   UNL     1       3.961  45.015  28.915  0.00  0.00    +0.000 C 
ATOM     13  C   UNL     1      -2.587  45.715  28.834  0.00  0.00    +0.000 C 
ATOM     14  C   UNL     1      -1.896  44.691  29.528  0.00  0.00    +0.000 C 
ATOM     15  C   UNL     1       3.222  47.570  31.192  0.00  0.00    +0.000 C 
ATOM     16  C   UNL     1      -2.043  47.543  27.266  0.00  0.00    +0.000 C 
ATOM     17  C   UNL     1      -2.334  48.129  29.707  0.00  0.00    +0.000 C 
ATOM     18  C   UNL     1      -2.986  46.968  26.185  0.00  0.00    +0.000 C 
ATOM     19  C   UNL     1      -3.378  45.362  27.842  0.00  0.00    +0.000 C 
ATOM     20  C   UNL     1      -3.743  45.771  26.494  0.00  0.00    +0.000 C 
ENDROOT
BRANCH   9  21
ATOM     21  O   UNL     1       5.396  46.937  29.310  0.00  0.00    +0.000 OA
ATOM     22  H   UNL     1       5.993  46.717  28.568  0.00  0.00    +0.000 HD
ENDBRANCH   9  21
TORSDOF 1
ENDMDL
MODEL 6
REMARK VINA RESULT:      -5.2      5.426      9.599
REMARK  Name = Testosterone.pdbqt.pdb
REMARK  1 active torsions:
REMARK  status: ('A' for Active; 'I' for Inactive)
REMARK    1  A    between atoms: C_9  and  O_21
REMARK                            x       y       z     vdW  Elec       q    Type
REMARK                         _______ _______ _______ _____ _____    ______ ____
ROOT
ATOM      1  O   UNL     1     -14.439  49.847  29.403  0.00  0.00    +0.000 OA
ATOM      2  C   UNL     1      -7.299  47.899  27.445  0.00  0.00    +0.000 C 
ATOM      3  C   UNL     1      -6.994  46.921  26.212  0.00  0.00    +0.000 C 
ATOM      4  C   UNL     1      -8.517  48.733  27.486  0.00  0.00    +0.000 C 
ATOM      5  C   UNL     1      -9.731  48.572  26.613  0.00  0.00    +0.000 C 
ATOM      6  C   UNL     1     -10.943  49.529  26.635  0.00  0.00    +0.000 C 
ATOM      7  C   UNL     1      -8.277  46.718  25.536  0.00  0.00    +0.000 C 
ATOM      8  C   UNL     1      -9.559  47.499  25.694  0.00  0.00    +0.000 C 
ATOM      9  C   UNL     1      -6.479  45.629  26.891  0.00  0.00    +0.000 C 
ATOM     10  C   UNL     1      -6.873  47.211  28.627  0.00  0.00    +0.000 C 
ATOM     11  C   UNL     1      -8.703  49.703  28.498  0.00  0.00    +0.000 C 
ATOM     12  C   UNL     1      -6.424  45.808  28.300  0.00  0.00    +0.000 C 
ATOM     13  C   UNL     1     -11.096  50.441  28.009  0.00  0.00    +0.000 C 
ATOM     14  C   UNL     1      -9.913  50.538  28.783  0.00  0.00    +0.000 C 
ATOM     15  C   UNL     1      -5.905  47.533  25.297  0.00  0.00    +0.000 C 
ATOM     16  C   UNL     1     -12.224  48.749  26.609  0.00  0.00    +0.000 C 
ATOM     17  C   UNL     1     -10.850  50.520  25.442  0.00  0.00    +0.000 C 
ATOM     18  C   UNL     1     -13.494  48.790  27.490  0.00  0.00    +0.000 C 
ATOM     19  C   UNL     1     -12.248  50.401  28.645  0.00  0.00    +0.000 C 
ATOM     20  C   UNL     1     -13.528  49.709  28.610  0.00  0.00    +0.000 C 
ENDROOT
BRANCH   9  21
ATOM     21  O   UNL     1      -5.597  44.769  26.263  0.00  0.00    +0.000 OA
ATOM     22  H   UNL     1      -5.830  43.835  26.433  0.00  0.00    +0.000 HD
ENDBRANCH   9  21
TORSDOF 1
ENDMDL
MODEL 7
REMARK VINA RESULT:      -5.2     15.617     17.462
REMARK  Name = Testosterone.pdbqt.pdb
REMARK  1 active torsions:
REMARK  status: ('A' for Active; 'I' for Inactive)
REMARK    1  A    between atoms: C_9  and  O_21
REMARK                            x       y       z     vdW  Elec       q    Type
REMARK                         _______ _______ _______ _____ _____    ______ ____
ROOT
ATOM      1  O   UNL     1       8.305  54.791  12.361  0.00  0.00    +0.000 OA
ATOM      2  C   UNL     1       4.399  55.803  18.866  0.00  0.00    +0.000 C 
ATOM      3  C   UNL     1       3.186  56.845  18.975  0.00  0.00    +0.000 C 
ATOM      4  C   UNL     1       4.759  55.168  17.583  0.00  0.00    +0.000 C 
ATOM      5  C   UNL     1       4.301  55.605  16.219  0.00  0.00    +0.000 C 
ATOM      6  C   UNL     1       4.635  54.850  14.914  0.00  0.00    +0.000 C 
ATOM      7  C   UNL     1       2.939  57.313  17.609  0.00  0.00    +0.000 C 
ATOM      8  C   UNL     1       3.432  56.728  16.309  0.00  0.00    +0.000 C 
ATOM      9  C   UNL     1       3.746  57.964  19.885  0.00  0.00    +0.000 C 
ATOM     10  C   UNL     1       5.434  56.290  19.730  0.00  0.00    +0.000 C 
ATOM     11  C   UNL     1       5.727  54.139  17.526  0.00  0.00    +0.000 C 
ATOM     12  C   UNL     1       5.062  57.632  20.309  0.00  0.00    +0.000 C 
ATOM     13  C   UNL     1       5.940  53.835  15.001  0.00  0.00    +0.000 C 
ATOM     14  C   UNL     1       6.317  53.475  16.319  0.00  0.00    +0.000 C 
ATOM     15  C   UNL     1       1.954  56.170  19.628  0.00  0.00    +0.000 C 
ATOM     16  C   UNL     1       5.037  55.818  13.840  0.00  0.00    +0.000 C 
ATOM     17  C   UNL     1       3.418  53.986  14.482  0.00  0.00    +0.000 C 
ATOM     18  C   UNL     1       6.256  55.882  12.891  0.00  0.00    +0.000 C 
ATOM     19  C   UNL     1       6.895  53.986  14.106  0.00  0.00    +0.000 C 
ATOM     20  C   UNL     1       7.283  54.868  13.015  0.00  0.00    +0.000 C 
ENDROOT
BRANCH   9  21
ATOM     21  O   UNL     1       2.930  58.738  20.689  0.00  0.00    +0.000 OA
ATOM     22  H   UNL     1       3.379  59.561  20.964  0.00  0.00    +0.000 HD
ENDBRANCH   9  21
TORSDOF 1
ENDMDL
MODEL 8
REMARK VINA RESULT:      -5.2     24.471     26.698
REMARK  Name = Testosterone.pdbqt.pdb
REMARK  1 active torsions:
REMARK  status: ('A' for Active; 'I' for Inactive)
REMARK    1  A    between atoms: C_9  and  O_21
REMARK                            x       y       z     vdW  Elec       q    Type
REMARK                         _______ _______ _______ _____ _____    ______ ____
ROOT
ATOM      1  O   UNL     1     -29.323  43.607  21.480  0.00  0.00    +0.000 OA
ATOM      2  C   UNL     1     -25.434  37.116  20.314  0.00  0.00    +0.000 C 
ATOM      3  C   UNL     1     -24.809  36.746  18.886  0.00  0.00    +0.000 C 
ATOM      4  C   UNL     1     -25.644  38.519  20.726  0.00  0.00    +0.000 C 
ATOM      5  C   UNL     1     -25.618  39.720  19.821  0.00  0.00    +0.000 C 
ATOM      6  C   UNL     1     -25.754  41.176  20.318  0.00  0.00    +0.000 C 
ATOM      7  C   UNL     1     -24.984  37.937  18.053  0.00  0.00    +0.000 C 
ATOM      8  C   UNL     1     -25.336  39.342  18.479  0.00  0.00    +0.000 C 
ATOM      9  C   UNL     1     -25.680  35.561  18.404  0.00  0.00    +0.000 C 
ATOM     10  C   UNL     1     -26.449  36.141  20.582  0.00  0.00    +0.000 C 
ATOM     11  C   UNL     1     -26.051  38.840  22.042  0.00  0.00    +0.000 C 
ATOM     12  C   UNL     1     -26.640  35.226  19.397  0.00  0.00    +0.000 C 
ATOM     13  C   UNL     1     -26.446  41.350  21.812  0.00  0.00    +0.000 C 
ATOM     14  C   UNL     1     -26.441  40.174  22.601  0.00  0.00    +0.000 C 
ATOM     15  C   UNL     1     -23.330  36.313  19.042  0.00  0.00    +0.000 C 
ATOM     16  C   UNL     1     -26.687  41.945  19.428  0.00  0.00    +0.000 C 
ATOM     17  C   UNL     1     -24.351  41.839  20.388  0.00  0.00    +0.000 C 
ATOM     18  C   UNL     1     -27.923  42.827  19.718  0.00  0.00    +0.000 C 
ATOM     19  C   UNL     1     -27.479  42.160  21.917  0.00  0.00    +0.000 C 
ATOM     20  C   UNL     1     -28.364  42.968  21.091  0.00  0.00    +0.000 C 
ENDROOT
BRANCH   9  21
ATOM     21  O   UNL     1     -25.193  34.588  17.550  0.00  0.00    +0.000 OA
ATOM     22  H   UNL     1     -24.736  33.879  18.044  0.00  0.00    +0.000 HD
ENDBRANCH   9  21
TORSDOF 1
ENDMDL
MODEL 9
REMARK VINA RESULT:      -5.0     24.560     27.454
REMARK  Name = Testosterone.pdbqt.pdb
REMARK  1 active torsions:
REMARK  status: ('A' for Active; 'I' for Inactive)
REMARK    1  A    between atoms: C_9  and  O_21
REMARK                            x       y       z     vdW  Elec       q    Type
REMARK                         _______ _______ _______ _____ _____    ______ ____
ROOT
ATOM      1  O   UNL     1     -19.132  26.306  15.575  0.00  0.00    +0.000 OA
ATOM      2  C   UNL     1     -20.704  27.801  22.916  0.00  0.00    +0.000 C 
ATOM      3  C   UNL     1     -20.685  29.293  23.502  0.00  0.00    +0.000 C 
ATOM      4  C   UNL     1     -20.992  27.534  21.493  0.00  0.00    +0.000 C 
ATOM      5  C   UNL     1     -20.986  28.548  20.383  0.00  0.00    +0.000 C 
ATOM      6  C   UNL     1     -21.383  28.232  18.924  0.00  0.00    +0.000 C 
ATOM      7  C   UNL     1     -20.520  30.174  22.344  0.00  0.00    +0.000 C 
ATOM      8  C   UNL     1     -20.684  29.846  20.880  0.00  0.00    +0.000 C 
ATOM      9  C   UNL     1     -19.444  29.305  24.428  0.00  0.00    +0.000 C 
ATOM     10  C   UNL     1     -19.644  27.092  23.570  0.00  0.00    +0.000 C 
ATOM     11  C   UNL     1     -21.158  26.212  21.019  0.00  0.00    +0.000 C 
ATOM     12  C   UNL     1     -18.841  28.018  24.449  0.00  0.00    +0.000 C 
ATOM     13  C   UNL     1     -21.318  26.631  18.506  0.00  0.00    +0.000 C 
ATOM     14  C   UNL     1     -21.316  25.738  19.606  0.00  0.00    +0.000 C 
ATOM     15  C   UNL     1     -21.976  29.570  24.310  0.00  0.00    +0.000 C 
ATOM     16  C   UNL     1     -20.411  28.864  17.971  0.00  0.00    +0.000 C 
ATOM     17  C   UNL     1     -22.837  28.710  18.661  0.00  0.00    +0.000 C 
ATOM     18  C   UNL     1     -19.602  28.307  16.777  0.00  0.00    +0.000 C 
ATOM     19  C   UNL     1     -20.610  26.304  17.445  0.00  0.00    +0.000 C 
ATOM     20  C   UNL     1     -19.714  26.897  16.464  0.00  0.00    +0.000 C 
ENDROOT
BRANCH   9  21
ATOM     21  O   UNL     1     -19.357  30.133  25.531  0.00  0.00    +0.000 OA
ATOM     22  H   UNL     1     -20.229  30.508  25.764  0.00  0.00    +0.000 HD
ENDBRANCH   9  21
TORSDOF 1
ENDMDL
