MODEL 1
REMARK VINA RESULT:      -3.1      0.000      0.000
REMARK  Name = Tetrachloroethylene.pdbqt.pdb
REMARK  0 active torsions:
REMARK  status: ('A' for Active; 'I' for Inactive)
REMARK                            x       y       z     vdW  Elec       q    Type
REMARK                         _______ _______ _______ _____ _____    ______ ____
ROOT
ATOM      1 CL   UNL     1      -2.526  46.479  26.067  0.00  0.00    +0.000 Cl
ATOM      2 CL   UNL     1      -4.369  44.309  25.383  0.00  0.00    +0.000 Cl
ATOM      3 CL   UNL     1      -6.844  46.359  25.543  0.00  0.00    +0.000 Cl
ATOM      4 CL   UNL     1      -5.001  48.530  26.227  0.00  0.00    +0.000 Cl
ATOM      5  C   UNL     1      -4.168  45.991  25.771  0.00  0.00    +0.000 C 
ATOM      6  C   UNL     1      -5.202  46.847  25.838  0.00  0.00    +0.000 C 
ENDROOT
TORSDOF 0
ENDMDL
MODEL 2
REMARK VINA RESULT:      -3.1      0.068      2.740
REMARK  Name = Tetrachloroethylene.pdbqt.pdb
REMARK  0 active torsions:
REMARK  status: ('A' for Active; 'I' for Inactive)
REMARK                            x       y       z     vdW  Elec       q    Type
REMARK                         _______ _______ _______ _____ _____    ______ ____
ROOT
ATOM      1 CL   UNL     1      -4.947  48.575  26.144  0.00  0.00    +0.000 Cl
ATOM      2 CL   UNL     1      -6.822  46.405  25.552  0.00  0.00    +0.000 Cl
ATOM      3 CL   UNL     1      -4.378  44.312  25.481  0.00  0.00    +0.000 Cl
ATOM      4 CL   UNL     1      -2.503  46.482  26.073  0.00  0.00    +0.000 Cl
ATOM      5  C   UNL     1      -5.173  46.880  25.827  0.00  0.00    +0.000 C 
ATOM      6  C   UNL     1      -4.152  46.006  25.798  0.00  0.00    +0.000 C 
ENDROOT
TORSDOF 0
ENDMDL
MODEL 3
REMARK VINA RESULT:      -3.1      0.063      3.636
REMARK  Name = Tetrachloroethylene.pdbqt.pdb
REMARK  0 active torsions:
REMARK  status: ('A' for Active; 'I' for Inactive)
REMARK                            x       y       z     vdW  Elec       q    Type
REMARK                         _______ _______ _______ _____ _____    ______ ____
ROOT
ATOM      1 CL   UNL     1      -6.811  46.390  25.564  0.00  0.00    +0.000 Cl
ATOM      2 CL   UNL     1      -4.959  48.571  26.187  0.00  0.00    +0.000 Cl
ATOM      3 CL   UNL     1      -2.494  46.504  26.095  0.00  0.00    +0.000 Cl
ATOM      4 CL   UNL     1      -4.346  44.323  25.472  0.00  0.00    +0.000 Cl
ATOM      5  C   UNL     1      -5.167  46.879  25.848  0.00  0.00    +0.000 C 
ATOM      6  C   UNL     1      -4.138  46.015  25.810  0.00  0.00    +0.000 C 
ENDROOT
TORSDOF 0
ENDMDL
MODEL 4
REMARK VINA RESULT:      -3.1     21.494     22.827
REMARK  Name = Tetrachloroethylene.pdbqt.pdb
REMARK  0 active torsions:
REMARK  status: ('A' for Active; 'I' for Inactive)
REMARK                            x       y       z     vdW  Elec       q    Type
REMARK                         _______ _______ _______ _____ _____    ______ ____
ROOT
ATOM      1 CL   UNL     1     -26.267  36.507  20.229  0.00  0.00    +0.000 Cl
ATOM      2 CL   UNL     1     -24.360  34.667  18.984  0.00  0.00    +0.000 Cl
ATOM      3 CL   UNL     1     -22.196  37.040  18.790  0.00  0.00    +0.000 Cl
ATOM      4 CL   UNL     1     -24.103  38.881  20.034  0.00  0.00    +0.000 Cl
ATOM      5  C   UNL     1     -24.683  36.278  19.550  0.00  0.00    +0.000 C 
ATOM      6  C   UNL     1     -23.780  37.270  19.469  0.00  0.00    +0.000 C 
ENDROOT
TORSDOF 0
ENDMDL
MODEL 5
REMARK VINA RESULT:      -3.1      0.149      2.393
REMARK  Name = Tetrachloroethylene.pdbqt.pdb
REMARK  0 active torsions:
REMARK  status: ('A' for Active; 'I' for Inactive)
REMARK                            x       y       z     vdW  Elec       q    Type
REMARK                         _______ _______ _______ _____ _____    ______ ____
ROOT
ATOM      1 CL   UNL     1      -4.470  44.300  25.596  0.00  0.00    +0.000 Cl
ATOM      2 CL   UNL     1      -2.620  46.511  26.105  0.00  0.00    +0.000 Cl
ATOM      3 CL   UNL     1      -5.084  48.581  26.065  0.00  0.00    +0.000 Cl
ATOM      4 CL   UNL     1      -6.934  46.369  25.555  0.00  0.00    +0.000 Cl
ATOM      5  C   UNL     1      -4.262  46.008  25.839  0.00  0.00    +0.000 C 
ATOM      6  C   UNL     1      -5.291  46.873  25.822  0.00  0.00    +0.000 C 
ENDROOT
TORSDOF 0
ENDMDL
MODEL 6
REMARK VINA RESULT:      -3.0      0.699      2.632
REMARK  Name = Tetrachloroethylene.pdbqt.pdb
REMARK  0 active torsions:
REMARK  status: ('A' for Active; 'I' for Inactive)
REMARK                            x       y       z     vdW  Elec       q    Type
REMARK                         _______ _______ _______ _____ _____    ______ ____
ROOT
ATOM      1 CL   UNL     1      -6.383  46.147  25.743  0.00  0.00    +0.000 Cl
ATOM      2 CL   UNL     1      -4.195  44.290  25.162  0.00  0.00    +0.000 Cl
ATOM      3 CL   UNL     1      -2.062  46.508  26.105  0.00  0.00    +0.000 Cl
ATOM      4 CL   UNL     1      -4.250  48.365  26.686  0.00  0.00    +0.000 Cl
ATOM      5  C   UNL     1      -4.668  45.864  25.727  0.00  0.00    +0.000 C 
ATOM      6  C   UNL     1      -3.777  46.791  26.121  0.00  0.00    +0.000 C 
ENDROOT
TORSDOF 0
ENDMDL
MODEL 7
REMARK VINA RESULT:      -3.0      0.817      2.575
REMARK  Name = Tetrachloroethylene.pdbqt.pdb
REMARK  0 active torsions:
REMARK  status: ('A' for Active; 'I' for Inactive)
REMARK                            x       y       z     vdW  Elec       q    Type
REMARK                         _______ _______ _______ _____ _____    ______ ____
ROOT
ATOM      1 CL   UNL     1      -4.208  48.216  27.003  0.00  0.00    +0.000 Cl
ATOM      2 CL   UNL     1      -2.019  46.521  26.051  0.00  0.00    +0.000 Cl
ATOM      3 CL   UNL     1      -4.151  44.315  25.078  0.00  0.00    +0.000 Cl
ATOM      4 CL   UNL     1      -6.340  46.011  26.029  0.00  0.00    +0.000 Cl
ATOM      5  C   UNL     1      -3.735  46.726  26.243  0.00  0.00    +0.000 C 
ATOM      6  C   UNL     1      -4.625  45.805  25.837  0.00  0.00    +0.000 C 
ENDROOT
TORSDOF 0
ENDMDL
MODEL 8
REMARK VINA RESULT:      -3.0      1.869      2.681
REMARK  Name = Tetrachloroethylene.pdbqt.pdb
REMARK  0 active torsions:
REMARK  status: ('A' for Active; 'I' for Inactive)
REMARK                            x       y       z     vdW  Elec       q    Type
REMARK                         _______ _______ _______ _____ _____    ______ ____
ROOT
ATOM      1 CL   UNL     1      -6.114  47.455  24.841  0.00  0.00    +0.000 Cl
ATOM      2 CL   UNL     1      -4.329  45.155  25.150  0.00  0.00    +0.000 Cl
ATOM      3 CL   UNL     1      -5.584  44.570  28.054  0.00  0.00    +0.000 Cl
ATOM      4 CL   UNL     1      -7.370  46.870  27.746  0.00  0.00    +0.000 Cl
ATOM      5  C   UNL     1      -5.587  46.135  25.841  0.00  0.00    +0.000 C 
ATOM      6  C   UNL     1      -6.111  45.890  27.054  0.00  0.00    +0.000 C 
ENDROOT
TORSDOF 0
ENDMDL
MODEL 9
REMARK VINA RESULT:      -2.9     21.541     22.670
REMARK  Name = Tetrachloroethylene.pdbqt.pdb
REMARK  0 active torsions:
REMARK  status: ('A' for Active; 'I' for Inactive)
REMARK                            x       y       z     vdW  Elec       q    Type
REMARK                         _______ _______ _______ _____ _____    ______ ____
ROOT
ATOM      1 CL   UNL     1     -26.236  37.708  20.556  0.00  0.00    +0.000 Cl
ATOM      2 CL   UNL     1     -23.859  39.415  20.434  0.00  0.00    +0.000 Cl
ATOM      3 CL   UNL     1     -22.274  37.095  18.866  0.00  0.00    +0.000 Cl
ATOM      4 CL   UNL     1     -24.650  35.388  18.988  0.00  0.00    +0.000 Cl
ATOM      5  C   UNL     1     -24.586  37.886  20.038  0.00  0.00    +0.000 C 
ATOM      6  C   UNL     1     -23.923  36.917  19.384  0.00  0.00    +0.000 C 
ENDROOT
TORSDOF 0
ENDMDL
