MODEL 1
REMARK VINA RESULT:      -6.5      0.000      0.000
REMARK  Name = Thalidomide.pdbqt.pdb
REMARK  1 active torsions:
REMARK  status: ('A' for Active; 'I' for Inactive)
REMARK    1  A    between atoms: N_3  and  C_12
REMARK                            x       y       z     vdW  Elec       q    Type
REMARK                         _______ _______ _______ _____ _____    ______ ____
ROOT
ATOM      1  O   UNL     1      -5.594  49.845  26.946  0.00  0.00    +0.000 OA
ATOM      2  O   UNL     1      -5.364  45.549  25.314  0.00  0.00    +0.000 OA
ATOM      3  N   UNL     1      -5.874  47.794  25.821  0.00  0.00    +0.000 N 
ATOM      4  C   UNL     1      -5.212  48.764  26.539  0.00  0.00    +0.000 C 
ATOM      5  C   UNL     1      -5.079  46.679  25.663  0.00  0.00    +0.000 C 
ATOM      6  C   UNL     1      -3.852  48.280  26.748  0.00  0.00    +0.000 A 
ATOM      7  C   UNL     1      -3.765  47.019  26.197  0.00  0.00    +0.000 A 
ATOM      8  C   UNL     1      -2.784  48.880  27.384  0.00  0.00    +0.000 A 
ATOM      9  C   UNL     1      -2.611  46.267  26.258  0.00  0.00    +0.000 A 
ATOM     10  C   UNL     1      -1.599  48.145  27.444  0.00  0.00    +0.000 A 
ATOM     11  C   UNL     1      -1.513  46.856  26.890  0.00  0.00    +0.000 A 
ENDROOT
BRANCH   3  12
ATOM     12  C   UNL     1      -7.187  47.871  25.428  0.00  0.00    +0.000 C 
ATOM     13  C   UNL     1      -8.262  47.436  26.235  0.00  0.00    +0.000 C 
ATOM     14  C   UNL     1      -9.669  47.376  25.723  0.00  0.00    +0.000 C 
ATOM     15  C   UNL     1     -10.020  47.804  24.402  0.00  0.00    +0.000 C 
ATOM     16  O   UNL     1     -11.176  47.826  24.012  0.00  0.00    +0.000 OA
ATOM     17  N   UNL     1      -8.923  48.237  23.661  0.00  0.00    +0.000 N 
ATOM     18  C   UNL     1      -7.609  48.472  24.091  0.00  0.00    +0.000 C 
ATOM     19  H   UNL     1      -9.159  48.669  22.780  0.00  0.00    +0.000 HD
ATOM     20  O   UNL     1      -6.888  49.243  23.464  0.00  0.00    +0.000 OA
ENDBRANCH   3  12
TORSDOF 1
ENDMDL
MODEL 2
REMARK VINA RESULT:      -6.1      2.758      3.582
REMARK  Name = Thalidomide.pdbqt.pdb
REMARK  1 active torsions:
REMARK  status: ('A' for Active; 'I' for Inactive)
REMARK    1  A    between atoms: N_3  and  C_12
REMARK                            x       y       z     vdW  Elec       q    Type
REMARK                         _______ _______ _______ _____ _____    ______ ____
ROOT
ATOM      1  O   UNL     1      -8.509  47.760  27.979  0.00  0.00    +0.000 OA
ATOM      2  O   UNL     1      -6.418  48.434  23.937  0.00  0.00    +0.000 OA
ATOM      3  N   UNL     1      -7.588  48.592  25.977  0.00  0.00    +0.000 N 
ATOM      4  C   UNL     1      -7.741  47.727  27.036  0.00  0.00    +0.000 C 
ATOM      5  C   UNL     1      -6.657  48.106  25.084  0.00  0.00    +0.000 C 
ATOM      6  C   UNL     1      -6.746  46.673  26.869  0.00  0.00    +0.000 A 
ATOM      7  C   UNL     1      -6.073  46.916  25.690  0.00  0.00    +0.000 A 
ATOM      8  C   UNL     1      -6.464  45.583  27.666  0.00  0.00    +0.000 A 
ATOM      9  C   UNL     1      -5.084  46.076  25.222  0.00  0.00    +0.000 A 
ATOM     10  C   UNL     1      -5.455  44.727  27.221  0.00  0.00    +0.000 A 
ATOM     11  C   UNL     1      -4.774  44.969  26.015  0.00  0.00    +0.000 A 
ENDROOT
BRANCH   3  12
ATOM     12  C   UNL     1      -8.348  49.716  25.769  0.00  0.00    +0.000 C 
ATOM     13  C   UNL     1      -8.101  50.947  26.418  0.00  0.00    +0.000 C 
ATOM     14  C   UNL     1      -9.039  52.109  26.304  0.00  0.00    +0.000 C 
ATOM     15  C   UNL     1     -10.217  52.064  25.490  0.00  0.00    +0.000 C 
ATOM     16  O   UNL     1     -10.939  53.036  25.338  0.00  0.00    +0.000 OA
ATOM     17  N   UNL     1     -10.398  50.833  24.864  0.00  0.00    +0.000 N 
ATOM     18  C   UNL     1      -9.514  49.748  24.786  0.00  0.00    +0.000 C 
ATOM     19  H   UNL     1     -11.141  50.818  24.181  0.00  0.00    +0.000 HD
ATOM     20  O   UNL     1      -9.617  48.939  23.868  0.00  0.00    +0.000 OA
ENDBRANCH   3  12
TORSDOF 1
ENDMDL
MODEL 3
REMARK VINA RESULT:      -6.0      1.827      2.454
REMARK  Name = Thalidomide.pdbqt.pdb
REMARK  1 active torsions:
REMARK  status: ('A' for Active; 'I' for Inactive)
REMARK    1  A    between atoms: N_3  and  C_12
REMARK                            x       y       z     vdW  Elec       q    Type
REMARK                         _______ _______ _______ _____ _____    ______ ____
ROOT
ATOM      1  O   UNL     1      -6.449  50.717  27.616  0.00  0.00    +0.000 OA
ATOM      2  O   UNL     1      -4.261  47.066  25.869  0.00  0.00    +0.000 OA
ATOM      3  N   UNL     1      -5.763  48.786  26.454  0.00  0.00    +0.000 N 
ATOM      4  C   UNL     1      -5.614  49.955  27.165  0.00  0.00    +0.000 C 
ATOM      5  C   UNL     1      -4.538  48.193  26.233  0.00  0.00    +0.000 C 
ATOM      6  C   UNL     1      -4.181  50.188  27.300  0.00  0.00    +0.000 A 
ATOM      7  C   UNL     1      -3.526  49.125  26.715  0.00  0.00    +0.000 A 
ATOM      8  C   UNL     1      -3.503  51.229  27.901  0.00  0.00    +0.000 A 
ATOM      9  C   UNL     1      -2.151  49.025  26.704  0.00  0.00    +0.000 A 
ATOM     10  C   UNL     1      -2.109  51.158  27.889  0.00  0.00    +0.000 A 
ATOM     11  C   UNL     1      -1.441  50.070  27.299  0.00  0.00    +0.000 A 
ENDROOT
BRANCH   3  12
ATOM     12  C   UNL     1      -6.969  48.219  26.124  0.00  0.00    +0.000 C 
ATOM     13  C   UNL     1      -7.491  48.221  24.811  0.00  0.00    +0.000 C 
ATOM     14  C   UNL     1      -8.878  47.747  24.505  0.00  0.00    +0.000 C 
ATOM     15  C   UNL     1      -9.744  47.213  25.514  0.00  0.00    +0.000 C 
ATOM     16  O   UNL     1     -10.845  46.757  25.250  0.00  0.00    +0.000 OA
ATOM     17  N   UNL     1      -9.170  47.222  26.782  0.00  0.00    +0.000 N 
ATOM     18  C   UNL     1      -7.844  47.500  27.146  0.00  0.00    +0.000 C 
ATOM     19  H   UNL     1      -9.702  46.730  27.484  0.00  0.00    +0.000 HD
ATOM     20  O   UNL     1      -7.391  47.053  28.196  0.00  0.00    +0.000 OA
ENDBRANCH   3  12
TORSDOF 1
ENDMDL
MODEL 4
REMARK VINA RESULT:      -5.9     23.551     25.074
REMARK  Name = Thalidomide.pdbqt.pdb
REMARK  1 active torsions:
REMARK  status: ('A' for Active; 'I' for Inactive)
REMARK    1  A    between atoms: N_3  and  C_12
REMARK                            x       y       z     vdW  Elec       q    Type
REMARK                         _______ _______ _______ _____ _____    ______ ____
ROOT
ATOM      1  O   UNL     1     -20.306  40.700   5.718  0.00  0.00    +0.000 OA
ATOM      2  O   UNL     1     -16.605  38.237   6.900  0.00  0.00    +0.000 OA
ATOM      3  N   UNL     1     -18.714  39.037   6.220  0.00  0.00    +0.000 N 
ATOM      4  C   UNL     1     -19.172  40.287   5.871  0.00  0.00    +0.000 C 
ATOM      5  C   UNL     1     -17.345  39.048   6.377  0.00  0.00    +0.000 C 
ATOM      6  C   UNL     1     -17.996  41.127   5.669  0.00  0.00    +0.000 A 
ATOM      7  C   UNL     1     -16.883  40.366   5.958  0.00  0.00    +0.000 A 
ATOM      8  C   UNL     1     -17.904  42.449   5.287  0.00  0.00    +0.000 A 
ATOM      9  C   UNL     1     -15.605  40.880   5.898  0.00  0.00    +0.000 A 
ATOM     10  C   UNL     1     -16.619  42.988   5.203  0.00  0.00    +0.000 A 
ATOM     11  C   UNL     1     -15.484  42.215   5.505  0.00  0.00    +0.000 A 
ENDROOT
BRANCH   3  12
ATOM     12  C   UNL     1     -19.519  37.961   6.502  0.00  0.00    +0.000 C 
ATOM     13  C   UNL     1     -19.521  36.775   5.734  0.00  0.00    +0.000 C 
ATOM     14  C   UNL     1     -20.520  35.682   5.958  0.00  0.00    +0.000 C 
ATOM     15  C   UNL     1     -21.504  35.747   6.998  0.00  0.00    +0.000 C 
ATOM     16  O   UNL     1     -22.268  34.824   7.228  0.00  0.00    +0.000 OA
ATOM     17  N   UNL     1     -21.442  36.930   7.730  0.00  0.00    +0.000 N 
ATOM     18  C   UNL     1     -20.463  37.934   7.700  0.00  0.00    +0.000 C 
ATOM     19  H   UNL     1     -22.030  36.944   8.551  0.00  0.00    +0.000 HD
ATOM     20  O   UNL     1     -20.306  38.666   8.672  0.00  0.00    +0.000 OA
ENDBRANCH   3  12
TORSDOF 1
ENDMDL
MODEL 5
REMARK VINA RESULT:      -5.9     23.588     25.045
REMARK  Name = Thalidomide.pdbqt.pdb
REMARK  1 active torsions:
REMARK  status: ('A' for Active; 'I' for Inactive)
REMARK    1  A    between atoms: N_3  and  C_12
REMARK                            x       y       z     vdW  Elec       q    Type
REMARK                         _______ _______ _______ _____ _____    ______ ____
ROOT
ATOM      1  O   UNL     1     -19.637  39.501   5.293  0.00  0.00    +0.000 OA
ATOM      2  O   UNL     1     -15.559  37.820   6.601  0.00  0.00    +0.000 OA
ATOM      3  N   UNL     1     -17.403  39.133   5.944  0.00  0.00    +0.000 N 
ATOM      4  C   UNL     1     -18.747  38.862   5.822  0.00  0.00    +0.000 C 
ATOM      5  C   UNL     1     -16.747  38.075   6.536  0.00  0.00    +0.000 C 
ATOM      6  C   UNL     1     -18.985  37.591   6.497  0.00  0.00    +0.000 A 
ATOM      7  C   UNL     1     -17.770  37.122   6.949  0.00  0.00    +0.000 A 
ATOM      8  C   UNL     1     -20.159  36.891   6.683  0.00  0.00    +0.000 A 
ATOM      9  C   UNL     1     -17.645  35.915   7.604  0.00  0.00    +0.000 A 
ATOM     10  C   UNL     1     -20.061  35.673   7.359  0.00  0.00    +0.000 A 
ATOM     11  C   UNL     1     -18.821  35.191   7.813  0.00  0.00    +0.000 A 
ENDROOT
BRANCH   3  12
ATOM     12  C   UNL     1     -16.779  40.243   5.431  0.00  0.00    +0.000 C 
ATOM     13  C   UNL     1     -16.580  41.429   6.172  0.00  0.00    +0.000 C 
ATOM     14  C   UNL     1     -16.049  42.681   5.544  0.00  0.00    +0.000 C 
ATOM     15  C   UNL     1     -15.660  42.740   4.166  0.00  0.00    +0.000 C 
ATOM     16  O   UNL     1     -15.157  43.737   3.676  0.00  0.00    +0.000 OA
ATOM     17  N   UNL     1     -15.864  41.538   3.493  0.00  0.00    +0.000 N 
ATOM     18  C   UNL     1     -16.209  40.283   4.017  0.00  0.00    +0.000 C 
ATOM     19  H   UNL     1     -15.475  41.510   2.562  0.00  0.00    +0.000 HD
ATOM     20  O   UNL     1     -15.929  39.262   3.396  0.00  0.00    +0.000 OA
ENDBRANCH   3  12
TORSDOF 1
ENDMDL
MODEL 6
REMARK VINA RESULT:      -5.9     23.457     25.041
REMARK  Name = Thalidomide.pdbqt.pdb
REMARK  1 active torsions:
REMARK  status: ('A' for Active; 'I' for Inactive)
REMARK    1  A    between atoms: N_3  and  C_12
REMARK                            x       y       z     vdW  Elec       q    Type
REMARK                         _______ _______ _______ _____ _____    ______ ____
ROOT
ATOM      1  O   UNL     1     -15.037  38.098   6.373  0.00  0.00    +0.000 OA
ATOM      2  O   UNL     1     -19.512  38.939   5.719  0.00  0.00    +0.000 OA
ATOM      3  N   UNL     1     -17.392  38.099   6.313  0.00  0.00    +0.000 N 
ATOM      4  C   UNL     1     -16.124  38.629   6.244  0.00  0.00    +0.000 C 
ATOM      5  C   UNL     1     -18.335  39.055   6.002  0.00  0.00    +0.000 C 
ATOM      6  C   UNL     1     -16.275  40.058   5.991  0.00  0.00    +0.000 A 
ATOM      7  C   UNL     1     -17.623  40.320   5.864  0.00  0.00    +0.000 A 
ATOM      8  C   UNL     1     -15.319  41.043   5.862  0.00  0.00    +0.000 A 
ATOM      9  C   UNL     1     -18.104  41.582   5.584  0.00  0.00    +0.000 A 
ATOM     10  C   UNL     1     -15.781  42.333   5.594  0.00  0.00    +0.000 A 
ATOM     11  C   UNL     1     -17.155  42.600   5.457  0.00  0.00    +0.000 A 
ENDROOT
BRANCH   3  12
ATOM     12  C   UNL     1     -17.675  36.774   6.532  0.00  0.00    +0.000 C 
ATOM     13  C   UNL     1     -18.233  36.291   7.737  0.00  0.00    +0.000 C 
ATOM     14  C   UNL     1     -18.378  34.827   8.017  0.00  0.00    +0.000 C 
ATOM     15  C   UNL     1     -18.009  33.825   7.061  0.00  0.00    +0.000 C 
ATOM     16  O   UNL     1     -18.199  32.637   7.260  0.00  0.00    +0.000 OA
ATOM     17  N   UNL     1     -17.482  34.361   5.889  0.00  0.00    +0.000 N 
ATOM     18  C   UNL     1     -17.444  35.700   5.473  0.00  0.00    +0.000 C 
ATOM     19  H   UNL     1     -17.342  33.689   5.149  0.00  0.00    +0.000 HD
ATOM     20  O   UNL     1     -17.361  35.968   4.278  0.00  0.00    +0.000 OA
ENDBRANCH   3  12
TORSDOF 1
ENDMDL
MODEL 7
REMARK VINA RESULT:      -5.8     24.009     25.102
REMARK  Name = Thalidomide.pdbqt.pdb
REMARK  1 active torsions:
REMARK  status: ('A' for Active; 'I' for Inactive)
REMARK    1  A    between atoms: N_3  and  C_12
REMARK                            x       y       z     vdW  Elec       q    Type
REMARK                         _______ _______ _______ _____ _____    ______ ____
ROOT
ATOM      1  O   UNL     1     -19.412  41.054   4.731  0.00  0.00    +0.000 OA
ATOM      2  O   UNL     1     -15.107  39.463   5.043  0.00  0.00    +0.000 OA
ATOM      3  N   UNL     1     -17.080  40.722   4.769  0.00  0.00    +0.000 N 
ATOM      4  C   UNL     1     -18.399  40.467   5.066  0.00  0.00    +0.000 C 
ATOM      5  C   UNL     1     -16.268  39.733   5.282  0.00  0.00    +0.000 C 
ATOM      6  C   UNL     1     -18.419  39.298   5.937  0.00  0.00    +0.000 A 
ATOM      7  C   UNL     1     -17.119  38.863   6.085  0.00  0.00    +0.000 A 
ATOM      8  C   UNL     1     -19.483  38.654   6.535  0.00  0.00    +0.000 A 
ATOM      9  C   UNL     1     -16.797  37.747   6.828  0.00  0.00    +0.000 A 
ATOM     10  C   UNL     1     -19.181  37.530   7.306  0.00  0.00    +0.000 A 
ATOM     11  C   UNL     1     -17.856  37.082   7.451  0.00  0.00    +0.000 A 
ENDROOT
BRANCH   3  12
ATOM     12  C   UNL     1     -16.642  41.744   3.963  0.00  0.00    +0.000 C 
ATOM     13  C   UNL     1     -16.538  41.631   2.559  0.00  0.00    +0.000 C 
ATOM     14  C   UNL     1     -15.904  42.696   1.719  0.00  0.00    +0.000 C 
ATOM     15  C   UNL     1     -15.410  43.919   2.280  0.00  0.00    +0.000 C 
ATOM     16  O   UNL     1     -14.963  44.818   1.586  0.00  0.00    +0.000 OA
ATOM     17  N   UNL     1     -15.555  43.979   3.664  0.00  0.00    +0.000 N 
ATOM     18  C   UNL     1     -16.261  43.115   4.513  0.00  0.00    +0.000 C 
ATOM     19  H   UNL     1     -15.342  44.880   4.066  0.00  0.00    +0.000 HD
ATOM     20  O   UNL     1     -16.662  43.518   5.601  0.00  0.00    +0.000 OA
ENDBRANCH   3  12
TORSDOF 1
ENDMDL
MODEL 8
REMARK VINA RESULT:      -5.7     20.018     22.644
REMARK  Name = Thalidomide.pdbqt.pdb
REMARK  1 active torsions:
REMARK  status: ('A' for Active; 'I' for Inactive)
REMARK    1  A    between atoms: N_3  and  C_12
REMARK                            x       y       z     vdW  Elec       q    Type
REMARK                         _______ _______ _______ _____ _____    ______ ____
ROOT
ATOM      1  O   UNL     1     -27.404  38.152  19.196  0.00  0.00    +0.000 OA
ATOM      2  O   UNL     1     -22.845  37.530  19.203  0.00  0.00    +0.000 OA
ATOM      3  N   UNL     1     -25.064  38.291  19.433  0.00  0.00    +0.000 N 
ATOM      4  C   UNL     1     -26.284  37.679  19.263  0.00  0.00    +0.000 C 
ATOM      5  C   UNL     1     -24.043  37.370  19.347  0.00  0.00    +0.000 C 
ATOM      6  C   UNL     1     -26.031  36.245  19.186  0.00  0.00    +0.000 A 
ATOM      7  C   UNL     1     -24.667  36.055  19.258  0.00  0.00    +0.000 A 
ATOM      8  C   UNL     1     -26.913  35.194  19.045  0.00  0.00    +0.000 A 
ATOM      9  C   UNL     1     -24.093  34.804  19.177  0.00  0.00    +0.000 A 
ATOM     10  C   UNL     1     -26.358  33.915  18.977  0.00  0.00    +0.000 A 
ATOM     11  C   UNL     1     -24.966  33.722  19.042  0.00  0.00    +0.000 A 
ENDROOT
BRANCH   3  12
ATOM     12  C   UNL     1     -24.877  39.647  19.542  0.00  0.00    +0.000 C 
ATOM     13  C   UNL     1     -25.113  40.548  18.480  0.00  0.00    +0.000 C 
ATOM     14  C   UNL     1     -24.746  41.998  18.569  0.00  0.00    +0.000 C 
ATOM     15  C   UNL     1     -24.181  42.572  19.754  0.00  0.00    +0.000 C 
ATOM     16  O   UNL     1     -23.953  43.767  19.851  0.00  0.00    +0.000 OA
ATOM     17  N   UNL     1     -23.987  41.640  20.770  0.00  0.00    +0.000 N 
ATOM     18  C   UNL     1     -24.430  40.311  20.841  0.00  0.00    +0.000 C 
ATOM     19  H   UNL     1     -23.720  42.040  21.657  0.00  0.00    +0.000 HD
ATOM     20  O   UNL     1     -24.570  39.770  21.934  0.00  0.00    +0.000 OA
ENDBRANCH   3  12
TORSDOF 1
ENDMDL
MODEL 9
REMARK VINA RESULT:      -5.6      2.779      3.980
REMARK  Name = Thalidomide.pdbqt.pdb
REMARK  1 active torsions:
REMARK  status: ('A' for Active; 'I' for Inactive)
REMARK    1  A    between atoms: N_3  and  C_12
REMARK                            x       y       z     vdW  Elec       q    Type
REMARK                         _______ _______ _______ _____ _____    ______ ____
ROOT
ATOM      1  O   UNL     1      -9.627  47.688  27.625  0.00  0.00    +0.000 OA
ATOM      2  O   UNL     1      -7.725  48.464  23.508  0.00  0.00    +0.000 OA
ATOM      3  N   UNL     1      -8.932  48.517  25.532  0.00  0.00    +0.000 N 
ATOM      4  C   UNL     1      -8.861  47.764  26.682  0.00  0.00    +0.000 C 
ATOM      5  C   UNL     1      -7.887  48.210  24.687  0.00  0.00    +0.000 C 
ATOM      6  C   UNL     1      -7.613  47.012  26.620  0.00  0.00    +0.000 A 
ATOM      7  C   UNL     1      -7.010  47.299  25.413  0.00  0.00    +0.000 A 
ATOM      8  C   UNL     1      -7.059  46.134  27.528  0.00  0.00    +0.000 A 
ATOM      9  C   UNL     1      -5.821  46.717  25.029  0.00  0.00    +0.000 A 
ATOM     10  C   UNL     1      -5.846  45.544  27.169  0.00  0.00    +0.000 A 
ATOM     11  C   UNL     1      -5.235  45.831  25.936  0.00  0.00    +0.000 A 
ENDROOT
BRANCH   3  12
ATOM     12  C   UNL     1      -9.967  49.360  25.211  0.00  0.00    +0.000 C 
ATOM     13  C   UNL     1     -11.214  48.904  24.729  0.00  0.00    +0.000 C 
ATOM     14  C   UNL     1     -12.267  49.845  24.229  0.00  0.00    +0.000 C 
ATOM     15  C   UNL     1     -12.096  51.268  24.257  0.00  0.00    +0.000 C 
ATOM     16  O   UNL     1     -12.983  52.034  23.920  0.00  0.00    +0.000 OA
ATOM     17  N   UNL     1     -10.855  51.656  24.756  0.00  0.00    +0.000 N 
ATOM     18  C   UNL     1      -9.874  50.873  25.381  0.00  0.00    +0.000 C 
ATOM     19  H   UNL     1     -10.761  52.648  24.913  0.00  0.00    +0.000 HD
ATOM     20  O   UNL     1      -9.063  51.397  26.139  0.00  0.00    +0.000 OA
ENDBRANCH   3  12
TORSDOF 1
ENDMDL
