MODEL 1
REMARK VINA RESULT:      -6.7      0.000      0.000
REMARK  Name = Thapsigargin.pdbqt.pdb
REMARK  10 active torsions:
REMARK  status: ('A' for Active; 'I' for Inactive)
REMARK    1  A    between atoms: O_2  and  C_24
REMARK    2  A    between atoms: C_17  and  O_43
REMARK    3  A    between atoms: C_19  and  C_24
REMARK    4  A    between atoms: C_19  and  O_47
REMARK    5  A    between atoms: C_27  and  C_35
REMARK    6  A    between atoms: C_35  and  C_36
REMARK    7  A    between atoms: C_37  and  C_38
REMARK    8  A    between atoms: C_39  and  C_40
REMARK    9  A    between atoms: C_42  and  O_43
REMARK   10  A    between atoms: C_42  and  C_44
REMARK                            x       y       z     vdW  Elec       q    Type
REMARK                         _______ _______ _______ _____ _____    ______ ____
ROOT
ATOM      1  O   UNL     1      -8.578  46.465  25.388  0.00  0.00    +0.000 OA
ATOM      2  O   UNL     1      -5.817  49.803  29.623  0.00  0.00    +0.000 OA
ATOM      3  O   UNL     1      -4.208  49.937  27.639  0.00  0.00    +0.000 OA
ATOM      4  O   UNL     1      -4.449  45.874  28.569  0.00  0.00    +0.000 OA
ATOM      5  O   UNL     1     -10.094  46.225  23.695  0.00  0.00    +0.000 OA
ATOM      6  O   UNL     1      -5.252  50.972  27.548  0.00  0.00    +0.000 OA
ATOM      7  O   UNL     1      -1.990  49.673  28.641  0.00  0.00    +0.000 OA
ATOM      8  O   UNL     1      -4.639  44.978  26.252  0.00  0.00    +0.000 OA
ATOM      9  C   UNL     1      -7.319  47.928  28.801  0.00  0.00    +0.000 C 
ATOM     10  C   UNL     1      -9.550  48.279  26.466  0.00  0.00    +0.000 C 
ATOM     11  C   UNL     1      -8.505  47.300  26.496  0.00  0.00    +0.000 C 
ATOM     12  C   UNL     1      -8.159  49.061  29.283  0.00  0.00    +0.000 C 
ATOM     13  C   UNL     1      -7.589  47.154  27.478  0.00  0.00    +0.000 C 
ATOM     14  C   UNL     1      -9.688  49.046  27.497  0.00  0.00    +0.000 C 
ATOM     15  C   UNL     1      -9.319  49.518  28.775  0.00  0.00    +0.000 C 
ATOM     16  C   UNL     1      -6.378  47.094  29.513  0.00  0.00    +0.000 C 
ATOM     17  C   UNL     1     -10.359  48.097  25.247  0.00  0.00    +0.000 C 
ATOM     18  C   UNL     1      -5.816  46.165  28.614  0.00  0.00    +0.000 C 
ATOM     19  C   UNL     1      -6.580  46.089  27.503  0.00  0.00    +0.000 C 
ATOM     20  C   UNL     1      -6.827  49.332  28.710  0.00  0.00    +0.000 C 
ATOM     21  C   UNL     1      -9.686  46.849  24.670  0.00  0.00    +0.000 C 
ATOM     22  C   UNL     1      -5.862  45.440  26.491  0.00  0.00    +0.000 C 
ATOM     23  C   UNL     1      -6.230  50.710  28.591  0.00  0.00    +0.000 C 
ATOM     24  C   UNL     1      -3.073  50.459  28.269  0.00  0.00    +0.000 C 
ATOM     25  C   UNL     1      -3.871  45.619  27.269  0.00  0.00    +0.000 C 
ATOM     26  C   UNL     1      -6.909  51.972  29.138  0.00  0.00    +0.000 C 
ATOM     27  C   UNL     1      -2.708  46.219  26.942  0.00  0.00    +0.000 C 
ATOM     28  C   UNL     1      -2.072  46.030  25.583  0.00  0.00    +0.000 C 
ATOM     29  C   UNL     1      -2.249  47.342  27.687  0.00  0.00    +0.000 C 
ATOM     30  C   UNL     1      -2.082  48.429  28.172  0.00  0.00    +0.000 C 
ENDROOT
BRANCH  17  31
ATOM     31  O   UNL     1     -11.723  47.891  25.574  0.00  0.00    +0.000 OA
ATOM     32  H   UNL     1     -11.989  48.673  26.092  0.00  0.00    +0.000 HD
ENDBRANCH  17  31
BRANCH  17  33
ATOM     33  C   UNL     1     -10.232  49.265  24.357  0.00  0.00    +0.000 C 
BRANCH  33  34
ATOM     34  O   UNL     1     -10.131  50.333  23.568  0.00  0.00    +0.000 OA
ATOM     35  H   UNL     1      -9.979  51.143  24.090  0.00  0.00    +0.000 HD
ENDBRANCH  33  34
ENDBRANCH  17  33
BRANCH  24  36
ATOM     36  C   UNL     1      -3.045  51.680  28.713  0.00  0.00    +0.000 C 
BRANCH  36  37
ATOM     37  C   UNL     1      -3.030  53.135  29.191  0.00  0.00    +0.000 C 
ATOM     38  C   UNL     1      -3.049  54.282  29.546  0.00  0.00    +0.000 C 
BRANCH  38  39
ATOM     39  C   UNL     1      -3.096  55.749  29.985  0.00  0.00    +0.000 C 
ATOM     40  C   UNL     1      -3.132  56.902  30.316  0.00  0.00    +0.000 C 
BRANCH  40  41
ATOM     41  C   UNL     1      -3.180  58.376  30.729  0.00  0.00    +0.000 C 
ATOM     42  C   UNL     1      -3.220  59.659  31.087  0.00  0.00    +0.000 C 
ENDBRANCH  40  41
ENDBRANCH  38  39
ENDBRANCH  36  37
ENDBRANCH  24  36
BRANCH  15  43
ATOM     43  O   UNL     1     -10.242  50.187  29.587  0.00  0.00    +0.000 OA
BRANCH  43  45
ATOM     44  O   UNL     1     -10.406  49.355  31.757  0.00  0.00    +0.000 OA
ATOM     45  C   UNL     1     -10.765  49.416  30.589  0.00  0.00    +0.000 C 
BRANCH  45  46
ATOM     46  C   UNL     1     -11.854  48.613  30.124  0.00  0.00    +0.000 C 
ATOM     47  C   UNL     1     -12.770  47.945  29.739  0.00  0.00    +0.000 C 
ATOM     48  C   UNL     1     -13.930  47.080  29.241  0.00  0.00    +0.000 C 
ENDBRANCH  45  46
ENDBRANCH  43  45
ENDBRANCH  15  43
TORSDOF 10
ENDMDL
MODEL 2
REMARK VINA RESULT:      -6.2     26.107     29.463
REMARK  Name = Thapsigargin.pdbqt.pdb
REMARK  10 active torsions:
REMARK  status: ('A' for Active; 'I' for Inactive)
REMARK    1  A    between atoms: O_2  and  C_24
REMARK    2  A    between atoms: C_17  and  O_43
REMARK    3  A    between atoms: C_19  and  C_24
REMARK    4  A    between atoms: C_19  and  O_47
REMARK    5  A    between atoms: C_27  and  C_35
REMARK    6  A    between atoms: C_35  and  C_36
REMARK    7  A    between atoms: C_37  and  C_38
REMARK    8  A    between atoms: C_39  and  C_40
REMARK    9  A    between atoms: C_42  and  O_43
REMARK   10  A    between atoms: C_42  and  C_44
REMARK                            x       y       z     vdW  Elec       q    Type
REMARK                         _______ _______ _______ _____ _____    ______ ____
ROOT
ATOM      1  O   UNL     1     -15.437  38.948   5.823  0.00  0.00    +0.000 OA
ATOM      2  O   UNL     1     -20.548  41.808   4.273  0.00  0.00    +0.000 OA
ATOM      3  O   UNL     1     -19.276  41.652   2.060  0.00  0.00    +0.000 OA
ATOM      4  O   UNL     1     -16.792  43.861   4.585  0.00  0.00    +0.000 OA
ATOM      5  O   UNL     1     -14.253  37.037   6.237  0.00  0.00    +0.000 OA
ATOM      6  O   UNL     1     -20.069  40.434   2.305  0.00  0.00    +0.000 OA
ATOM      7  O   UNL     1     -19.590  43.850   1.027  0.00  0.00    +0.000 OA
ATOM      8  O   UNL     1     -14.628  42.765   4.022  0.00  0.00    +0.000 OA
ATOM      9  C   UNL     1     -18.677  41.155   5.862  0.00  0.00    +0.000 C 
ATOM     10  C   UNL     1     -17.572  38.121   6.218  0.00  0.00    +0.000 C 
ATOM     11  C   UNL     1     -16.783  39.278   5.916  0.00  0.00    +0.000 C 
ATOM     12  C   UNL     1     -19.902  40.369   6.188  0.00  0.00    +0.000 C 
ATOM     13  C   UNL     1     -17.251  40.538   5.782  0.00  0.00    +0.000 C 
ATOM     14  C   UNL     1     -18.830  38.294   6.461  0.00  0.00    +0.000 C 
ATOM     15  C   UNL     1     -19.991  39.086   6.587  0.00  0.00    +0.000 C 
ATOM     16  C   UNL     1     -18.445  42.581   5.901  0.00  0.00    +0.000 C 
ATOM     17  C   UNL     1     -16.696  36.939   6.311  0.00  0.00    +0.000 C 
ATOM     18  C   UNL     1     -17.124  42.841   5.483  0.00  0.00    +0.000 C 
ATOM     19  C   UNL     1     -16.396  41.706   5.545  0.00  0.00    +0.000 C 
ATOM     20  C   UNL     1     -19.660  40.802   4.799  0.00  0.00    +0.000 C 
ATOM     21  C   UNL     1     -15.333  37.608   6.116  0.00  0.00    +0.000 C 
ATOM     22  C   UNL     1     -15.206  41.880   4.827  0.00  0.00    +0.000 C 
ATOM     23  C   UNL     1     -20.599  40.514   3.656  0.00  0.00    +0.000 C 
ATOM     24  C   UNL     1     -20.013  42.551   1.282  0.00  0.00    +0.000 C 
ATOM     25  C   UNL     1     -15.727  43.594   3.647  0.00  0.00    +0.000 C 
ATOM     26  C   UNL     1     -21.954  39.816   3.834  0.00  0.00    +0.000 C 
ATOM     27  C   UNL     1     -15.904  43.911   2.348  0.00  0.00    +0.000 C 
ATOM     28  C   UNL     1     -14.847  43.618   1.307  0.00  0.00    +0.000 C 
ATOM     29  C   UNL     1     -17.213  44.156   1.844  0.00  0.00    +0.000 C 
ATOM     30  C   UNL     1     -18.345  44.068   1.448  0.00  0.00    +0.000 C 
ENDROOT
BRANCH  17  31
ATOM     31  O   UNL     1     -16.830  36.311   7.574  0.00  0.00    +0.000 OA
ATOM     32  H   UNL     1     -17.790  36.233   7.727  0.00  0.00    +0.000 HD
ENDBRANCH  17  31
BRANCH  17  33
ATOM     33  C   UNL     1     -17.005  35.975   5.240  0.00  0.00    +0.000 C 
BRANCH  33  34
ATOM     34  O   UNL     1     -17.302  35.093   4.287  0.00  0.00    +0.000 OA
ATOM     35  H   UNL     1     -17.130  34.181   4.586  0.00  0.00    +0.000 HD
ENDBRANCH  33  34
ENDBRANCH  17  33
BRANCH  24  36
ATOM     36  C   UNL     1     -21.229  42.285   0.906  0.00  0.00    +0.000 C 
BRANCH  36  37
ATOM     37  C   UNL     1     -22.666  41.942   0.504  0.00  0.00    +0.000 C 
ATOM     38  C   UNL     1     -23.797  41.655   0.220  0.00  0.00    +0.000 C 
BRANCH  38  39
ATOM     39  C   UNL     1     -25.243  41.278  -0.117  0.00  0.00    +0.000 C 
ATOM     40  C   UNL     1     -26.381  40.994  -0.373  0.00  0.00    +0.000 C 
BRANCH  40  41
ATOM     41  C   UNL     1     -27.835  40.639  -0.696  0.00  0.00    +0.000 C 
ATOM     42  C   UNL     1     -29.101  40.329  -0.976  0.00  0.00    +0.000 C 
ENDBRANCH  40  41
ENDBRANCH  38  39
ENDBRANCH  36  37
ENDBRANCH  24  36
BRANCH  15  43
ATOM     43  O   UNL     1     -21.079  38.649   7.351  0.00  0.00    +0.000 OA
BRANCH  43  45
ATOM     44  O   UNL     1     -22.762  37.486   6.237  0.00  0.00    +0.000 OA
ATOM     45  C   UNL     1     -21.705  37.541   6.850  0.00  0.00    +0.000 C 
BRANCH  45  46
ATOM     46  C   UNL     1     -20.967  36.347   7.128  0.00  0.00    +0.000 C 
ATOM     47  C   UNL     1     -20.355  35.345   7.362  0.00  0.00    +0.000 C 
ATOM     48  C   UNL     1     -19.560  34.072   7.661  0.00  0.00    +0.000 C 
ENDBRANCH  45  46
ENDBRANCH  43  45
ENDBRANCH  15  43
TORSDOF 10
ENDMDL
MODEL 3
REMARK VINA RESULT:      -6.0     26.596     29.888
REMARK  Name = Thapsigargin.pdbqt.pdb
REMARK  10 active torsions:
REMARK  status: ('A' for Active; 'I' for Inactive)
REMARK    1  A    between atoms: O_2  and  C_24
REMARK    2  A    between atoms: C_17  and  O_43
REMARK    3  A    between atoms: C_19  and  C_24
REMARK    4  A    between atoms: C_19  and  O_47
REMARK    5  A    between atoms: C_27  and  C_35
REMARK    6  A    between atoms: C_35  and  C_36
REMARK    7  A    between atoms: C_37  and  C_38
REMARK    8  A    between atoms: C_39  and  C_40
REMARK    9  A    between atoms: C_42  and  O_43
REMARK   10  A    between atoms: C_42  and  C_44
REMARK                            x       y       z     vdW  Elec       q    Type
REMARK                         _______ _______ _______ _____ _____    ______ ____
ROOT
ATOM      1  O   UNL     1     -15.554  38.364   1.454  0.00  0.00    +0.000 OA
ATOM      2  O   UNL     1     -16.888  35.440   6.589  0.00  0.00    +0.000 OA
ATOM      3  O   UNL     1     -19.179  36.195   5.739  0.00  0.00    +0.000 OA
ATOM      4  O   UNL     1     -17.016  39.721   6.304  0.00  0.00    +0.000 OA
ATOM      5  O   UNL     1     -15.104  38.381  -0.788  0.00  0.00    +0.000 OA
ATOM      6  O   UNL     1     -18.789  34.905   5.143  0.00  0.00    +0.000 OA
ATOM      7  O   UNL     1     -20.333  36.997   7.744  0.00  0.00    +0.000 OA
ATOM      8  O   UNL     1     -17.672  40.893   4.207  0.00  0.00    +0.000 OA
ATOM      9  C   UNL     1     -15.411  36.827   5.057  0.00  0.00    +0.000 C 
ATOM     10  C   UNL     1     -14.935  36.172   1.911  0.00  0.00    +0.000 C 
ATOM     11  C   UNL     1     -15.377  37.420   2.457  0.00  0.00    +0.000 C 
ATOM     12  C   UNL     1     -14.936  35.413   5.059  0.00  0.00    +0.000 C 
ATOM     13  C   UNL     1     -15.561  37.686   3.769  0.00  0.00    +0.000 C 
ATOM     14  C   UNL     1     -14.606  35.234   2.737  0.00  0.00    +0.000 C 
ATOM     15  C   UNL     1     -14.443  34.695   4.032  0.00  0.00    +0.000 C 
ATOM     16  C   UNL     1     -15.489  37.787   6.135  0.00  0.00    +0.000 C 
ATOM     17  C   UNL     1     -14.831  36.286   0.445  0.00  0.00    +0.000 C 
ATOM     18  C   UNL     1     -16.027  38.991   5.637  0.00  0.00    +0.000 C 
ATOM     19  C   UNL     1     -15.945  39.003   4.290  0.00  0.00    +0.000 C 
ATOM     20  C   UNL     1     -16.366  35.703   5.272  0.00  0.00    +0.000 C 
ATOM     21  C   UNL     1     -15.178  37.767   0.272  0.00  0.00    +0.000 C 
ATOM     22  C   UNL     1     -16.765  40.019   3.785  0.00  0.00    +0.000 C 
ATOM     23  C   UNL     1     -17.408  34.643   5.516  0.00  0.00    +0.000 C 
ATOM     24  C   UNL     1     -19.957  35.975   6.881  0.00  0.00    +0.000 C 
ATOM     25  C   UNL     1     -18.015  40.375   5.491  0.00  0.00    +0.000 C 
ATOM     26  C   UNL     1     -17.076  33.152   5.660  0.00  0.00    +0.000 C 
ATOM     27  C   UNL     1     -19.315  40.261   5.833  0.00  0.00    +0.000 C 
ATOM     28  C   UNL     1     -20.414  40.883   5.001  0.00  0.00    +0.000 C 
ATOM     29  C   UNL     1     -19.729  39.240   6.736  0.00  0.00    +0.000 C 
ATOM     30  C   UNL     1     -20.027  38.202   7.265  0.00  0.00    +0.000 C 
ENDROOT
BRANCH  17  31
ATOM     31  O   UNL     1     -13.520  35.970   0.008  0.00  0.00    +0.000 OA
ATOM     32  H   UNL     1     -13.188  35.303   0.637  0.00  0.00    +0.000 HD
ENDBRANCH  17  31
BRANCH  17  33
ATOM     33  C   UNL     1     -15.805  35.401  -0.218  0.00  0.00    +0.000 C 
BRANCH  33  34
ATOM     34  O   UNL     1     -16.694  34.596  -0.796  0.00  0.00    +0.000 OA
ATOM     35  H   UNL     1     -16.276  33.766  -1.095  0.00  0.00    +0.000 HD
ENDBRANCH  33  34
ENDBRANCH  17  33
BRANCH  24  36
ATOM     36  C   UNL     1     -20.216  34.774   7.305  0.00  0.00    +0.000 C 
BRANCH  36  37
ATOM     37  C   UNL     1     -20.484  33.363   7.838  0.00  0.00    +0.000 C 
ATOM     38  C   UNL     1     -20.663  32.260   8.275  0.00  0.00    +0.000 C 
BRANCH  38  39
ATOM     39  C   UNL     1     -20.869  30.854   8.848  0.00  0.00    +0.000 C 
ATOM     40  C   UNL     1     -21.021  29.756   9.309  0.00  0.00    +0.000 C 
BRANCH  40  41
ATOM     41  C   UNL     1     -21.212  28.358   9.904  0.00  0.00    +0.000 C 
ATOM     42  C   UNL     1     -21.376  27.140  10.420  0.00  0.00    +0.000 C 
ENDBRANCH  40  41
ENDBRANCH  38  39
ENDBRANCH  36  37
ENDBRANCH  24  36
BRANCH  15  43
ATOM     43  O   UNL     1     -13.567  33.628   4.261  0.00  0.00    +0.000 OA
BRANCH  43  45
ATOM     44  O   UNL     1     -11.712  34.976   4.668  0.00  0.00    +0.000 OA
ATOM     45  C   UNL     1     -12.399  33.986   4.876  0.00  0.00    +0.000 C 
BRANCH  45  46
ATOM     46  C   UNL     1     -12.006  33.026   5.861  0.00  0.00    +0.000 C 
ATOM     47  C   UNL     1     -11.682  32.224   6.689  0.00  0.00    +0.000 C 
ATOM     48  C   UNL     1     -11.253  31.199   7.742  0.00  0.00    +0.000 C 
ENDBRANCH  45  46
ENDBRANCH  43  45
ENDBRANCH  15  43
TORSDOF 10
ENDMDL
MODEL 4
REMARK VINA RESULT:      -6.0     25.568     29.640
REMARK  Name = Thapsigargin.pdbqt.pdb
REMARK  10 active torsions:
REMARK  status: ('A' for Active; 'I' for Inactive)
REMARK    1  A    between atoms: O_2  and  C_24
REMARK    2  A    between atoms: C_17  and  O_43
REMARK    3  A    between atoms: C_19  and  C_24
REMARK    4  A    between atoms: C_19  and  O_47
REMARK    5  A    between atoms: C_27  and  C_35
REMARK    6  A    between atoms: C_35  and  C_36
REMARK    7  A    between atoms: C_37  and  C_38
REMARK    8  A    between atoms: C_39  and  C_40
REMARK    9  A    between atoms: C_42  and  O_43
REMARK   10  A    between atoms: C_42  and  C_44
REMARK                            x       y       z     vdW  Elec       q    Type
REMARK                         _______ _______ _______ _____ _____    ______ ____
ROOT
ATOM      1  O   UNL     1     -21.146  39.761   6.254  0.00  0.00    +0.000 OA
ATOM      2  O   UNL     1     -16.415  36.199   4.975  0.00  0.00    +0.000 OA
ATOM      3  O   UNL     1     -18.342  35.078   3.720  0.00  0.00    +0.000 OA
ATOM      4  O   UNL     1     -19.480  35.013   7.737  0.00  0.00    +0.000 OA
ATOM      5  O   UNL     1     -22.429  41.611   5.862  0.00  0.00    +0.000 OA
ATOM      6  O   UNL     1     -17.723  36.139   2.907  0.00  0.00    +0.000 OA
ATOM      7  O   UNL     1     -18.024  32.686   4.138  0.00  0.00    +0.000 OA
ATOM      8  O   UNL     1     -21.858  35.696   7.455  0.00  0.00    +0.000 OA
ATOM      9  C   UNL     1     -17.753  37.804   6.419  0.00  0.00    +0.000 C 
ATOM     10  C   UNL     1     -19.164  40.508   5.301  0.00  0.00    +0.000 C 
ATOM     11  C   UNL     1     -19.807  39.461   6.036  0.00  0.00    +0.000 C 
ATOM     12  C   UNL     1     -16.634  38.541   5.763  0.00  0.00    +0.000 C 
ATOM     13  C   UNL     1     -19.209  38.346   6.508  0.00  0.00    +0.000 C 
ATOM     14  C   UNL     1     -17.885  40.430   5.132  0.00  0.00    +0.000 C 
ATOM     15  C   UNL     1     -16.632  39.795   5.274  0.00  0.00    +0.000 C 
ATOM     16  C   UNL     1     -17.723  36.709   7.362  0.00  0.00    +0.000 C 
ATOM     17  C   UNL     1     -20.143  41.565   4.990  0.00  0.00    +0.000 C 
ATOM     18  C   UNL     1     -19.047  36.342   7.679  0.00  0.00    +0.000 C 
ATOM     19  C   UNL     1     -19.891  37.333   7.320  0.00  0.00    +0.000 C 
ATOM     20  C   UNL     1     -17.237  37.377   5.087  0.00  0.00    +0.000 C 
ATOM     21  C   UNL     1     -21.368  41.010   5.723  0.00  0.00    +0.000 C 
ATOM     22  C   UNL     1     -21.204  36.844   7.320  0.00  0.00    +0.000 C 
ATOM     23  C   UNL     1     -16.779  36.853   3.752  0.00  0.00    +0.000 C 
ATOM     24  C   UNL     1     -17.759  33.843   3.415  0.00  0.00    +0.000 C 
ATOM     25  C   UNL     1     -20.819  34.735   7.275  0.00  0.00    +0.000 C 
ATOM     26  C   UNL     1     -15.573  37.421   2.992  0.00  0.00    +0.000 C 
ATOM     27  C   UNL     1     -21.023  33.688   6.448  0.00  0.00    +0.000 C 
ATOM     28  C   UNL     1     -22.392  33.368   5.893  0.00  0.00    +0.000 C 
ATOM     29  C   UNL     1     -19.925  33.099   5.758  0.00  0.00    +0.000 C 
ATOM     30  C   UNL     1     -19.012  32.852   5.016  0.00  0.00    +0.000 C 
ENDROOT
BRANCH  17  31
ATOM     31  O   UNL     1     -19.713  42.816   5.498  0.00  0.00    +0.000 OA
ATOM     32  H   UNL     1     -19.926  42.799   6.450  0.00  0.00    +0.000 HD
ENDBRANCH  17  31
BRANCH  17  33
ATOM     33  C   UNL     1     -20.359  41.666   3.536  0.00  0.00    +0.000 C 
BRANCH  33  34
ATOM     34  O   UNL     1     -20.564  41.734   2.221  0.00  0.00    +0.000 OA
ATOM     35  H   UNL     1     -21.384  42.223   2.019  0.00  0.00    +0.000 HD
ENDBRANCH  33  34
ENDBRANCH  17  33
BRANCH  24  36
ATOM     36  C   UNL     1     -16.791  33.744   2.554  0.00  0.00    +0.000 C 
BRANCH  36  37
ATOM     37  C   UNL     1     -15.622  33.604   1.574  0.00  0.00    +0.000 C 
ATOM     38  C   UNL     1     -14.689  33.475   0.830  0.00  0.00    +0.000 C 
BRANCH  38  39
ATOM     39  C   UNL     1     -13.485  33.292  -0.100  0.00  0.00    +0.000 C 
ATOM     40  C   UNL     1     -12.545  33.134  -0.830  0.00  0.00    +0.000 C 
BRANCH  40  41
ATOM     41  C   UNL     1     -11.348  32.926  -1.762  0.00  0.00    +0.000 C 
ATOM     42  C   UNL     1     -10.305  32.746  -2.572  0.00  0.00    +0.000 C 
ENDBRANCH  40  41
ENDBRANCH  38  39
ENDBRANCH  36  37
ENDBRANCH  24  36
BRANCH  15  43
ATOM     43  O   UNL     1     -15.442  40.527   5.189  0.00  0.00    +0.000 OA
BRANCH  43  45
ATOM     44  O   UNL     1     -15.751  42.362   6.591  0.00  0.00    +0.000 OA
ATOM     45  C   UNL     1     -15.580  41.854   5.492  0.00  0.00    +0.000 C 
BRANCH  45  46
ATOM     46  C   UNL     1     -15.509  42.673   4.321  0.00  0.00    +0.000 C 
ATOM     47  C   UNL     1     -15.446  43.362   3.343  0.00  0.00    +0.000 C 
ATOM     48  C   UNL     1     -15.378  44.236   2.089  0.00  0.00    +0.000 C 
ENDBRANCH  45  46
ENDBRANCH  43  45
ENDBRANCH  15  43
TORSDOF 10
ENDMDL
MODEL 5
REMARK VINA RESULT:      -6.0     26.582     28.815
REMARK  Name = Thapsigargin.pdbqt.pdb
REMARK  10 active torsions:
REMARK  status: ('A' for Active; 'I' for Inactive)
REMARK    1  A    between atoms: O_2  and  C_24
REMARK    2  A    between atoms: C_17  and  O_43
REMARK    3  A    between atoms: C_19  and  C_24
REMARK    4  A    between atoms: C_19  and  O_47
REMARK    5  A    between atoms: C_27  and  C_35
REMARK    6  A    between atoms: C_35  and  C_36
REMARK    7  A    between atoms: C_37  and  C_38
REMARK    8  A    between atoms: C_39  and  C_40
REMARK    9  A    between atoms: C_42  and  O_43
REMARK   10  A    between atoms: C_42  and  C_44
REMARK                            x       y       z     vdW  Elec       q    Type
REMARK                         _______ _______ _______ _____ _____    ______ ____
ROOT
ATOM      1  O   UNL     1     -23.152  36.893   5.117  0.00  0.00    +0.000 OA
ATOM      2  O   UNL     1     -19.056  41.345   5.442  0.00  0.00    +0.000 OA
ATOM      3  O   UNL     1     -17.790  39.479   4.236  0.00  0.00    +0.000 OA
ATOM      4  O   UNL     1     -18.838  37.862   7.939  0.00  0.00    +0.000 OA
ATOM      5  O   UNL     1     -24.926  35.868   4.104  0.00  0.00    +0.000 OA
ATOM      6  O   UNL     1     -18.560  40.299   3.285  0.00  0.00    +0.000 OA
ATOM      7  O   UNL     1     -15.569  39.492   5.267  0.00  0.00    +0.000 OA
ATOM      8  O   UNL     1     -19.592  35.619   7.160  0.00  0.00    +0.000 OA
ATOM      9  C   UNL     1     -21.069  40.018   6.241  0.00  0.00    +0.000 C 
ATOM     10  C   UNL     1     -23.488  39.044   4.305  0.00  0.00    +0.000 C 
ATOM     11  C   UNL     1     -22.713  38.210   5.174  0.00  0.00    +0.000 C 
ATOM     12  C   UNL     1     -21.531  41.279   5.593  0.00  0.00    +0.000 C 
ATOM     13  C   UNL     1     -21.716  38.627   5.984  0.00  0.00    +0.000 C 
ATOM     14  C   UNL     1     -23.279  40.319   4.346  0.00  0.00    +0.000 C 
ATOM     15  C   UNL     1     -22.615  41.471   4.817  0.00  0.00    +0.000 C 
ATOM     16  C   UNL     1     -20.253  39.818   7.418  0.00  0.00    +0.000 C 
ATOM     17  C   UNL     1     -24.496  38.225   3.608  0.00  0.00    +0.000 C 
ATOM     18  C   UNL     1     -20.074  38.435   7.621  0.00  0.00    +0.000 C 
ATOM     19  C   UNL     1     -20.997  37.749   6.913  0.00  0.00    +0.000 C 
ATOM     20  C   UNL     1     -20.279  40.643   5.143  0.00  0.00    +0.000 C 
ATOM     21  C   UNL     1     -24.236  36.869   4.270  0.00  0.00    +0.000 C 
ATOM     22  C   UNL     1     -20.618  36.402   6.844  0.00  0.00    +0.000 C 
ATOM     23  C   UNL     1     -19.399  41.203   4.056  0.00  0.00    +0.000 C 
ATOM     24  C   UNL     1     -16.480  39.962   4.329  0.00  0.00    +0.000 C 
ATOM     25  C   UNL     1     -18.546  36.566   7.372  0.00  0.00    +0.000 C 
ATOM     26  C   UNL     1     -19.666  42.546   3.363  0.00  0.00    +0.000 C 
ATOM     27  C   UNL     1     -17.339  36.356   6.806  0.00  0.00    +0.000 C 
ATOM     28  C   UNL     1     -16.985  35.038   6.155  0.00  0.00    +0.000 C 
ATOM     29  C   UNL     1     -16.517  37.462   6.446  0.00  0.00    +0.000 C 
ATOM     30  C   UNL     1     -16.024  38.427   5.926  0.00  0.00    +0.000 C 
ENDROOT
BRANCH  17  31
ATOM     31  O   UNL     1     -25.802  38.718   3.851  0.00  0.00    +0.000 OA
ATOM     32  H   UNL     1     -25.691  39.451   4.485  0.00  0.00    +0.000 HD
ENDBRANCH  17  31
BRANCH  17  33
ATOM     33  C   UNL     1     -24.236  38.199   2.157  0.00  0.00    +0.000 C 
BRANCH  33  34
ATOM     34  O   UNL     1     -23.998  38.151   0.847  0.00  0.00    +0.000 OA
ATOM     35  H   UNL     1     -23.331  37.472   0.636  0.00  0.00    +0.000 HD
ENDBRANCH  33  34
ENDBRANCH  17  33
BRANCH  24  36
ATOM     36  C   UNL     1     -16.095  41.011   3.666  0.00  0.00    +0.000 C 
BRANCH  36  37
ATOM     37  C   UNL     1     -15.689  42.254   2.868  0.00  0.00    +0.000 C 
ATOM     38  C   UNL     1     -15.383  43.211   2.211  0.00  0.00    +0.000 C 
BRANCH  38  39
ATOM     39  C   UNL     1     -15.003  44.421   1.352  0.00  0.00    +0.000 C 
ATOM     40  C   UNL     1     -14.694  45.361   0.672  0.00  0.00    +0.000 C 
BRANCH  40  41
ATOM     41  C   UNL     1     -14.296  46.556  -0.199  0.00  0.00    +0.000 C 
ATOM     42  C   UNL     1     -13.952  47.595  -0.959  0.00  0.00    +0.000 C 
ENDBRANCH  40  41
ENDBRANCH  38  39
ENDBRANCH  36  37
ENDBRANCH  24  36
BRANCH  15  43
ATOM     43  O   UNL     1     -23.215  42.733   4.729  0.00  0.00    +0.000 OA
BRANCH  43  45
ATOM     44  O   UNL     1     -23.136  42.993   2.415  0.00  0.00    +0.000 OA
ATOM     45  C   UNL     1     -22.959  43.392   3.558  0.00  0.00    +0.000 C 
BRANCH  45  46
ATOM     46  C   UNL     1     -22.416  44.695   3.793  0.00  0.00    +0.000 C 
ATOM     47  C   UNL     1     -21.955  45.783   3.987  0.00  0.00    +0.000 C 
ATOM     48  C   UNL     1     -21.378  47.176   4.245  0.00  0.00    +0.000 C 
ENDBRANCH  45  46
ENDBRANCH  43  45
ENDBRANCH  15  43
TORSDOF 10
ENDMDL
MODEL 6
REMARK VINA RESULT:      -5.9      3.554      7.294
REMARK  Name = Thapsigargin.pdbqt.pdb
REMARK  10 active torsions:
REMARK  status: ('A' for Active; 'I' for Inactive)
REMARK    1  A    between atoms: O_2  and  C_24
REMARK    2  A    between atoms: C_17  and  O_43
REMARK    3  A    between atoms: C_19  and  C_24
REMARK    4  A    between atoms: C_19  and  O_47
REMARK    5  A    between atoms: C_27  and  C_35
REMARK    6  A    between atoms: C_35  and  C_36
REMARK    7  A    between atoms: C_37  and  C_38
REMARK    8  A    between atoms: C_39  and  C_40
REMARK    9  A    between atoms: C_42  and  O_43
REMARK   10  A    between atoms: C_42  and  C_44
REMARK                            x       y       z     vdW  Elec       q    Type
REMARK                         _______ _______ _______ _____ _____    ______ ____
ROOT
ATOM      1  O   UNL     1      -7.652  51.850  29.416  0.00  0.00    +0.000 OA
ATOM      2  O   UNL     1      -3.961  47.054  29.682  0.00  0.00    +0.000 OA
ATOM      3  O   UNL     1      -3.539  47.982  27.336  0.00  0.00    +0.000 OA
ATOM      4  O   UNL     1      -7.598  47.006  27.403  0.00  0.00    +0.000 OA
ATOM      5  O   UNL     1      -8.117  54.050  29.824  0.00  0.00    +0.000 OA
ATOM      6  O   UNL     1      -2.688  48.652  28.334  0.00  0.00    +0.000 OA
ATOM      7  O   UNL     1      -3.447  45.995  25.908  0.00  0.00    +0.000 OA
ATOM      8  O   UNL     1      -8.483  49.041  26.271  0.00  0.00    +0.000 OA
ATOM      9  C   UNL     1      -6.047  48.377  30.271  0.00  0.00    +0.000 C 
ATOM     10  C   UNL     1      -6.038  51.529  31.055  0.00  0.00    +0.000 C 
ATOM     11  C   UNL     1      -6.832  50.915  30.033  0.00  0.00    +0.000 C 
ATOM     12  C   UNL     1      -5.073  48.458  31.398  0.00  0.00    +0.000 C 
ATOM     13  C   UNL     1      -6.837  49.600  29.723  0.00  0.00    +0.000 C 
ATOM     14  C   UNL     1      -5.316  50.761  31.803  0.00  0.00    +0.000 C 
ATOM     15  C   UNL     1      -4.807  49.506  32.200  0.00  0.00    +0.000 C 
ATOM     16  C   UNL     1      -6.724  47.234  29.702  0.00  0.00    +0.000 C 
ATOM     17  C   UNL     1      -6.334  52.972  31.106  0.00  0.00    +0.000 C 
ATOM     18  C   UNL     1      -7.536  47.667  28.635  0.00  0.00    +0.000 C 
ATOM     19  C   UNL     1      -7.722  49.001  28.718  0.00  0.00    +0.000 C 
ATOM     20  C   UNL     1      -4.580  48.311  30.015  0.00  0.00    +0.000 C 
ATOM     21  C   UNL     1      -7.446  53.049  30.058  0.00  0.00    +0.000 C 
ATOM     22  C   UNL     1      -8.231  49.474  27.501  0.00  0.00    +0.000 C 
ATOM     23  C   UNL     1      -3.121  48.216  29.652  0.00  0.00    +0.000 C 
ATOM     24  C   UNL     1      -2.845  46.910  26.762  0.00  0.00    +0.000 C 
ATOM     25  C   UNL     1      -7.737  47.825  26.222  0.00  0.00    +0.000 C 
ATOM     26  C   UNL     1      -1.995  48.171  30.692  0.00  0.00    +0.000 C 
ATOM     27  C   UNL     1      -6.950  47.575  25.155  0.00  0.00    +0.000 C 
ATOM     28  C   UNL     1      -7.014  48.421  23.903  0.00  0.00    +0.000 C 
ATOM     29  C   UNL     1      -5.776  46.782  25.304  0.00  0.00    +0.000 C 
ATOM     30  C   UNL     1      -4.683  46.357  25.566  0.00  0.00    +0.000 C 
ENDROOT
BRANCH  17  31
ATOM     31  O   UNL     1      -6.766  53.352  32.401  0.00  0.00    +0.000 OA
ATOM     32  H   UNL     1      -7.356  54.117  32.267  0.00  0.00    +0.000 HD
ENDBRANCH  17  31
BRANCH  17  33
ATOM     33  C   UNL     1      -5.150  53.763  30.725  0.00  0.00    +0.000 C 
BRANCH  33  34
ATOM     34  O   UNL     1      -4.092  54.498  30.384  0.00  0.00    +0.000 OA
ATOM     35  H   UNL     1      -4.364  55.307  29.913  0.00  0.00    +0.000 HD
ENDBRANCH  33  34
ENDBRANCH  17  33
BRANCH  24  36
ATOM     36  C   UNL     1      -1.642  46.600  27.142  0.00  0.00    +0.000 C 
BRANCH  36  37
ATOM     37  C   UNL     1      -0.233  46.256  27.635  0.00  0.00    +0.000 C 
ATOM     38  C   UNL     1       0.866  46.009  28.050  0.00  0.00    +0.000 C 
BRANCH  38  39
ATOM     39  C   UNL     1       2.263  45.708  28.601  0.00  0.00    +0.000 C 
ATOM     40  C   UNL     1       3.364  45.479  29.022  0.00  0.00    +0.000 C 
BRANCH  40  41
ATOM     41  C   UNL     1       4.772  45.192  29.552  0.00  0.00    +0.000 C 
ATOM     42  C   UNL     1       5.997  44.944  30.015  0.00  0.00    +0.000 C 
ENDBRANCH  40  41
ENDBRANCH  38  39
ENDBRANCH  36  37
ENDBRANCH  24  36
BRANCH  15  43
ATOM     43  O   UNL     1      -4.310  49.308  33.493  0.00  0.00    +0.000 OA
BRANCH  43  45
ATOM     44  O   UNL     1      -5.044  47.453  34.694  0.00  0.00    +0.000 OA
ATOM     45  C   UNL     1      -5.152  48.610  34.315  0.00  0.00    +0.000 C 
BRANCH  45  46
ATOM     46  C   UNL     1      -6.268  49.406  34.726  0.00  0.00    +0.000 C 
ATOM     47  C   UNL     1      -7.197  50.074  35.075  0.00  0.00    +0.000 C 
ATOM     48  C   UNL     1      -8.396  50.919  35.514  0.00  0.00    +0.000 C 
ENDBRANCH  45  46
ENDBRANCH  43  45
ENDBRANCH  15  43
TORSDOF 10
ENDMDL
MODEL 7
REMARK VINA RESULT:      -5.8     26.974     30.219
REMARK  Name = Thapsigargin.pdbqt.pdb
REMARK  10 active torsions:
REMARK  status: ('A' for Active; 'I' for Inactive)
REMARK    1  A    between atoms: O_2  and  C_24
REMARK    2  A    between atoms: C_17  and  O_43
REMARK    3  A    between atoms: C_19  and  C_24
REMARK    4  A    between atoms: C_19  and  O_47
REMARK    5  A    between atoms: C_27  and  C_35
REMARK    6  A    between atoms: C_35  and  C_36
REMARK    7  A    between atoms: C_37  and  C_38
REMARK    8  A    between atoms: C_39  and  C_40
REMARK    9  A    between atoms: C_42  and  O_43
REMARK   10  A    between atoms: C_42  and  C_44
REMARK                            x       y       z     vdW  Elec       q    Type
REMARK                         _______ _______ _______ _____ _____    ______ ____
ROOT
ATOM      1  O   UNL     1      -6.656  40.567  -0.508  0.00  0.00    +0.000 OA
ATOM      2  O   UNL     1      -2.575  37.771   2.989  0.00  0.00    +0.000 OA
ATOM      3  O   UNL     1      -3.732  35.833   1.784  0.00  0.00    +0.000 OA
ATOM      4  O   UNL     1      -6.766  37.752   3.916  0.00  0.00    +0.000 OA
ATOM      5  O   UNL     1      -7.243  41.655  -2.431  0.00  0.00    +0.000 OA
ATOM      6  O   UNL     1      -2.624  36.375   0.978  0.00  0.00    +0.000 OA
ATOM      7  O   UNL     1      -4.058  34.146   3.528  0.00  0.00    +0.000 OA
ATOM      8  O   UNL     1      -8.518  37.747   2.146  0.00  0.00    +0.000 OA
ATOM      9  C   UNL     1      -4.190  39.639   2.395  0.00  0.00    +0.000 C 
ATOM     10  C   UNL     1      -4.377  41.013  -0.542  0.00  0.00    +0.000 C 
ATOM     11  C   UNL     1      -5.463  40.437   0.191  0.00  0.00    +0.000 C 
ATOM     12  C   UNL     1      -2.793  40.086   2.125  0.00  0.00    +0.000 C 
ATOM     13  C   UNL     1      -5.377  39.878   1.418  0.00  0.00    +0.000 C 
ATOM     14  C   UNL     1      -3.224  41.081   0.039  0.00  0.00    +0.000 C 
ATOM     15  C   UNL     1      -2.341  40.854   1.116  0.00  0.00    +0.000 C 
ATOM     16  C   UNL     1      -4.824  39.252   3.635  0.00  0.00    +0.000 C 
ATOM     17  C   UNL     1      -4.875  41.544  -1.824  0.00  0.00    +0.000 C 
ATOM     18  C   UNL     1      -6.160  38.890   3.373  0.00  0.00    +0.000 C 
ATOM     19  C   UNL     1      -6.531  39.365   2.165  0.00  0.00    +0.000 C 
ATOM     20  C   UNL     1      -3.139  38.657   2.003  0.00  0.00    +0.000 C 
ATOM     21  C   UNL     1      -6.372  41.270  -1.656  0.00  0.00    +0.000 C 
ATOM     22  C   UNL     1      -7.715  38.733   1.763  0.00  0.00    +0.000 C 
ATOM     23  C   UNL     1      -2.149  37.584   1.632  0.00  0.00    +0.000 C 
ATOM     24  C   UNL     1      -3.280  34.754   2.551  0.00  0.00    +0.000 C 
ATOM     25  C   UNL     1      -7.702  37.039   3.079  0.00  0.00    +0.000 C 
ATOM     26  C   UNL     1      -0.652  37.852   1.430  0.00  0.00    +0.000 C 
ATOM     27  C   UNL     1      -7.615  35.696   2.996  0.00  0.00    +0.000 C 
ATOM     28  C   UNL     1      -8.535  34.892   2.104  0.00  0.00    +0.000 C 
ATOM     29  C   UNL     1      -6.428  35.030   3.416  0.00  0.00    +0.000 C 
ATOM     30  C   UNL     1      -5.316  34.585   3.520  0.00  0.00    +0.000 C 
ENDROOT
BRANCH  17  31
ATOM     31  O   UNL     1      -4.576  42.924  -1.949  0.00  0.00    +0.000 OA
ATOM     32  H   UNL     1      -3.706  42.964  -2.390  0.00  0.00    +0.000 HD
ENDBRANCH  17  31
BRANCH  17  33
ATOM     33  C   UNL     1      -4.294  40.803  -2.958  0.00  0.00    +0.000 C 
BRANCH  33  34
ATOM     34  O   UNL     1      -3.783  40.115  -3.977  0.00  0.00    +0.000 OA
ATOM     35  H   UNL     1      -3.918  40.585  -4.822  0.00  0.00    +0.000 HD
ENDBRANCH  33  34
ENDBRANCH  17  33
BRANCH  24  36
ATOM     36  C   UNL     1      -2.037  34.376   2.523  0.00  0.00    +0.000 C 
BRANCH  36  37
ATOM     37  C   UNL     1      -0.558  33.979   2.489  0.00  0.00    +0.000 C 
ATOM     38  C   UNL     1       0.608  33.692   2.488  0.00  0.00    +0.000 C 
BRANCH  38  39
ATOM     39  C   UNL     1       2.100  33.344   2.509  0.00  0.00    +0.000 C 
ATOM     40  C   UNL     1       3.272  33.085   2.527  0.00  0.00    +0.000 C 
BRANCH  40  41
ATOM     41  C   UNL     1       4.768  32.762   2.554  0.00  0.00    +0.000 C 
ATOM     42  C   UNL     1       6.070  32.478   2.578  0.00  0.00    +0.000 C 
ENDBRANCH  40  41
ENDBRANCH  38  39
ENDBRANCH  36  37
ENDBRANCH  24  36
BRANCH  15  43
ATOM     43  O   UNL     1      -1.179  41.619   1.266  0.00  0.00    +0.000 OA
BRANCH  43  45
ATOM     44  O   UNL     1      -0.821  42.808  -0.705  0.00  0.00    +0.000 OA
ATOM     45  C   UNL     1      -0.550  41.917   0.088  0.00  0.00    +0.000 C 
BRANCH  45  46
ATOM     46  C   UNL     1       0.538  41.024  -0.170  0.00  0.00    +0.000 C 
ATOM     47  C   UNL     1       1.448  40.275  -0.380  0.00  0.00    +0.000 C 
ATOM     48  C   UNL     1       2.615  39.326  -0.662  0.00  0.00    +0.000 C 
ENDBRANCH  45  46
ENDBRANCH  43  45
ENDBRANCH  15  43
TORSDOF 10
ENDMDL
MODEL 8
REMARK VINA RESULT:      -5.6     26.494     29.828
REMARK  Name = Thapsigargin.pdbqt.pdb
REMARK  10 active torsions:
REMARK  status: ('A' for Active; 'I' for Inactive)
REMARK    1  A    between atoms: O_2  and  C_24
REMARK    2  A    between atoms: C_17  and  O_43
REMARK    3  A    between atoms: C_19  and  C_24
REMARK    4  A    between atoms: C_19  and  O_47
REMARK    5  A    between atoms: C_27  and  C_35
REMARK    6  A    between atoms: C_35  and  C_36
REMARK    7  A    between atoms: C_37  and  C_38
REMARK    8  A    between atoms: C_39  and  C_40
REMARK    9  A    between atoms: C_42  and  O_43
REMARK   10  A    between atoms: C_42  and  C_44
REMARK                            x       y       z     vdW  Elec       q    Type
REMARK                         _______ _______ _______ _____ _____    ______ ____
ROOT
ATOM      1  O   UNL     1     -15.359  35.020   4.217  0.00  0.00    +0.000 OA
ATOM      2  O   UNL     1     -20.248  36.805   7.318  0.00  0.00    +0.000 OA
ATOM      3  O   UNL     1     -20.676  37.735   4.974  0.00  0.00    +0.000 OA
ATOM      4  O   UNL     1     -17.121  39.534   6.224  0.00  0.00    +0.000 OA
ATOM      5  O   UNL     1     -14.209  33.457   3.008  0.00  0.00    +0.000 OA
ATOM      6  O   UNL     1     -21.149  36.345   5.090  0.00  0.00    +0.000 OA
ATOM      7  O   UNL     1     -21.542  39.991   5.369  0.00  0.00    +0.000 OA
ATOM      8  O   UNL     1     -15.825  39.291   4.111  0.00  0.00    +0.000 OA
ATOM      9  C   UNL     1     -17.803  36.166   7.060  0.00  0.00    +0.000 C 
ATOM     10  C   UNL     1     -16.768  33.585   5.381  0.00  0.00    +0.000 C 
ATOM     11  C   UNL     1     -16.334  34.939   5.203  0.00  0.00    +0.000 C 
ATOM     12  C   UNL     1     -18.552  35.028   7.665  0.00  0.00    +0.000 C 
ATOM     13  C   UNL     1     -16.762  36.004   5.915  0.00  0.00    +0.000 C 
ATOM     14  C   UNL     1     -17.581  33.335   6.354  0.00  0.00    +0.000 C 
ATOM     15  C   UNL     1     -18.386  33.709   7.451  0.00  0.00    +0.000 C 
ATOM     16  C   UNL     1     -17.579  37.505   7.556  0.00  0.00    +0.000 C 
ATOM     17  C   UNL     1     -16.049  32.711   4.437  0.00  0.00    +0.000 C 
ATOM     18  C   UNL     1     -16.822  38.224   6.609  0.00  0.00    +0.000 C 
ATOM     19  C   UNL     1     -16.236  37.363   5.749  0.00  0.00    +0.000 C 
ATOM     20  C   UNL     1     -19.243  35.948   6.742  0.00  0.00    +0.000 C 
ATOM     21  C   UNL     1     -15.112  33.735   3.793  0.00  0.00    +0.000 C 
ATOM     22  C   UNL     1     -15.772  38.070   4.632  0.00  0.00    +0.000 C 
ATOM     23  C   UNL     1     -20.698  35.827   6.371  0.00  0.00    +0.000 C 
ATOM     24  C   UNL     1     -21.726  38.620   5.242  0.00  0.00    +0.000 C 
ATOM     25  C   UNL     1     -16.899  39.883   4.840  0.00  0.00    +0.000 C 
ATOM     26  C   UNL     1     -21.640  34.784   6.986  0.00  0.00    +0.000 C 
ATOM     27  C   UNL     1     -17.857  40.559   4.173  0.00  0.00    +0.000 C 
ATOM     28  C   UNL     1     -17.708  40.916   2.711  0.00  0.00    +0.000 C 
ATOM     29  C   UNL     1     -19.184  40.611   4.687  0.00  0.00    +0.000 C 
ATOM     30  C   UNL     1     -20.311  40.370   5.032  0.00  0.00    +0.000 C 
ENDROOT
BRANCH  17  31
ATOM     31  O   UNL     1     -15.358  31.684   5.127  0.00  0.00    +0.000 OA
ATOM     32  H   UNL     1     -14.456  31.680   4.756  0.00  0.00    +0.000 HD
ENDBRANCH  17  31
BRANCH  17  33
ATOM     33  C   UNL     1     -16.983  32.115   3.463  0.00  0.00    +0.000 C 
BRANCH  33  34
ATOM     34  O   UNL     1     -17.807  31.573   2.569  0.00  0.00    +0.000 OA
ATOM     35  H   UNL     1     -18.324  30.845   2.963  0.00  0.00    +0.000 HD
ENDBRANCH  33  34
ENDBRANCH  17  33
BRANCH  24  36
ATOM     36  C   UNL     1     -22.907  38.190   5.574  0.00  0.00    +0.000 C 
BRANCH  36  37
ATOM     37  C   UNL     1     -24.278  37.639   5.980  0.00  0.00    +0.000 C 
ATOM     38  C   UNL     1     -25.348  37.225   6.331  0.00  0.00    +0.000 C 
BRANCH  38  39
ATOM     39  C   UNL     1     -26.712  36.710   6.801  0.00  0.00    +0.000 C 
ATOM     40  C   UNL     1     -27.786  36.306   7.156  0.00  0.00    +0.000 C 
BRANCH  40  41
ATOM     41  C   UNL     1     -29.157  35.789   7.601  0.00  0.00    +0.000 C 
ATOM     42  C   UNL     1     -30.348  35.336   7.990  0.00  0.00    +0.000 C 
ENDBRANCH  40  41
ENDBRANCH  38  39
ENDBRANCH  36  37
ENDBRANCH  24  36
BRANCH  15  43
ATOM     43  O   UNL     1     -18.746  32.775   8.430  0.00  0.00    +0.000 OA
BRANCH  43  45
ATOM     44  O   UNL     1     -19.277  30.910   7.140  0.00  0.00    +0.000 OA
ATOM     45  C   UNL     1     -19.547  31.766   7.970  0.00  0.00    +0.000 C 
BRANCH  45  46
ATOM     46  C   UNL     1     -20.839  31.795   8.585  0.00  0.00    +0.000 C 
ATOM     47  C   UNL     1     -21.917  31.822   9.105  0.00  0.00    +0.000 C 
ATOM     48  C   UNL     1     -23.301  31.848   9.757  0.00  0.00    +0.000 C 
ENDBRANCH  45  46
ENDBRANCH  43  45
ENDBRANCH  15  43
TORSDOF 10
ENDMDL
MODEL 9
REMARK VINA RESULT:      -5.6      3.116      6.969
REMARK  Name = Thapsigargin.pdbqt.pdb
REMARK  10 active torsions:
REMARK  status: ('A' for Active; 'I' for Inactive)
REMARK    1  A    between atoms: O_2  and  C_24
REMARK    2  A    between atoms: C_17  and  O_43
REMARK    3  A    between atoms: C_19  and  C_24
REMARK    4  A    between atoms: C_19  and  O_47
REMARK    5  A    between atoms: C_27  and  C_35
REMARK    6  A    between atoms: C_35  and  C_36
REMARK    7  A    between atoms: C_37  and  C_38
REMARK    8  A    between atoms: C_39  and  C_40
REMARK    9  A    between atoms: C_42  and  O_43
REMARK   10  A    between atoms: C_42  and  C_44
REMARK                            x       y       z     vdW  Elec       q    Type
REMARK                         _______ _______ _______ _____ _____    ______ ____
ROOT
ATOM      1  O   UNL     1      -8.422  52.952  27.828  0.00  0.00    +0.000 OA
ATOM      2  O   UNL     1      -6.479  47.387  29.225  0.00  0.00    +0.000 OA
ATOM      3  O   UNL     1      -4.936  48.075  27.305  0.00  0.00    +0.000 OA
ATOM      4  O   UNL     1      -8.786  48.175  25.693  0.00  0.00    +0.000 OA
ATOM      5  O   UNL     1      -8.441  55.214  28.160  0.00  0.00    +0.000 OA
ATOM      6  O   UNL     1      -4.417  48.548  28.600  0.00  0.00    +0.000 OA
ATOM      7  O   UNL     1      -4.784  46.072  25.905  0.00  0.00    +0.000 OA
ATOM      8  O   UNL     1      -8.603  50.318  24.437  0.00  0.00    +0.000 OA
ATOM      9  C   UNL     1      -8.221  49.224  29.023  0.00  0.00    +0.000 C 
ATOM     10  C   UNL     1      -7.734  52.299  29.948  0.00  0.00    +0.000 C 
ATOM     11  C   UNL     1      -8.180  51.866  28.658  0.00  0.00    +0.000 C 
ATOM     12  C   UNL     1      -7.793  49.101  30.446  0.00  0.00    +0.000 C 
ATOM     13  C   UNL     1      -8.391  50.584  28.287  0.00  0.00    +0.000 C 
ATOM     14  C   UNL     1      -7.591  51.405  30.870  0.00  0.00    +0.000 C 
ATOM     15  C   UNL     1      -7.615  50.079  31.354  0.00  0.00    +0.000 C 
ATOM     16  C   UNL     1      -8.878  48.269  28.160  0.00  0.00    +0.000 C 
ATOM     17  C   UNL     1      -7.653  53.771  29.971  0.00  0.00    +0.000 C 
ATOM     18  C   UNL     1      -9.058  48.849  26.888  0.00  0.00    +0.000 C 
ATOM     19  C   UNL     1      -8.920  50.190  26.977  0.00  0.00    +0.000 C 
ATOM     20  C   UNL     1      -6.842  48.774  29.367  0.00  0.00    +0.000 C 
ATOM     21  C   UNL     1      -8.196  54.085  28.575  0.00  0.00    +0.000 C 
ATOM     22  C   UNL     1      -8.764  50.724  25.691  0.00  0.00    +0.000 C 
ATOM     23  C   UNL     1      -5.435  48.294  29.606  0.00  0.00    +0.000 C 
ATOM     24  C   UNL     1      -4.365  46.839  26.985  0.00  0.00    +0.000 C 
ATOM     25  C   UNL     1      -8.231  48.951  24.609  0.00  0.00    +0.000 C 
ATOM     26  C   UNL     1      -4.869  48.006  31.003  0.00  0.00    +0.000 C 
ATOM     27  C   UNL     1      -7.174  48.462  23.928  0.00  0.00    +0.000 C 
ATOM     28  C   UNL     1      -6.517  49.243  22.811  0.00  0.00    +0.000 C 
ATOM     29  C   UNL     1      -6.398  47.403  24.479  0.00  0.00    +0.000 C 
ATOM     30  C   UNL     1      -5.646  46.723  25.126  0.00  0.00    +0.000 C 
ENDROOT
BRANCH  17  31
ATOM     31  O   UNL     1      -8.456  54.303  31.011  0.00  0.00    +0.000 OA
ATOM     32  H   UNL     1      -9.360  53.981  30.835  0.00  0.00    +0.000 HD
ENDBRANCH  17  31
BRANCH  17  33
ATOM     33  C   UNL     1      -6.258  54.215  30.143  0.00  0.00    +0.000 C 
BRANCH  33  34
ATOM     34  O   UNL     1      -4.991  54.593  30.299  0.00  0.00    +0.000 OA
ATOM     35  H   UNL     1      -4.763  54.678  31.244  0.00  0.00    +0.000 HD
ENDBRANCH  33  34
ENDBRANCH  17  33
BRANCH  24  36
ATOM     36  C   UNL     1      -3.534  46.247  27.790  0.00  0.00    +0.000 C 
BRANCH  36  37
ATOM     37  C   UNL     1      -2.590  45.514  28.749  0.00  0.00    +0.000 C 
ATOM     38  C   UNL     1      -1.877  44.937  29.524  0.00  0.00    +0.000 C 
BRANCH  38  39
ATOM     39  C   UNL     1      -0.989  44.199  30.531  0.00  0.00    +0.000 C 
ATOM     40  C   UNL     1      -0.304  43.622  31.329  0.00  0.00    +0.000 C 
BRANCH  40  41
ATOM     41  C   UNL     1       0.564  42.884  32.353  0.00  0.00    +0.000 C 
ATOM     42  C   UNL     1       1.320  42.244  33.245  0.00  0.00    +0.000 C 
ENDBRANCH  40  41
ENDBRANCH  38  39
ENDBRANCH  36  37
ENDBRANCH  24  36
BRANCH  15  43
ATOM     43  O   UNL     1      -7.744  49.816  32.722  0.00  0.00    +0.000 OA
BRANCH  43  45
ATOM     44  O   UNL     1      -7.178  47.661  33.400  0.00  0.00    +0.000 OA
ATOM     45  C   UNL     1      -7.980  48.502  33.019  0.00  0.00    +0.000 C 
BRANCH  45  46
ATOM     46  C   UNL     1      -9.355  48.155  32.826  0.00  0.00    +0.000 C 
ATOM     47  C   UNL     1     -10.505  47.864  32.671  0.00  0.00    +0.000 C 
ATOM     48  C   UNL     1     -11.974  47.491  32.457  0.00  0.00    +0.000 C 
ENDBRANCH  45  46
ENDBRANCH  43  45
ENDBRANCH  15  43
TORSDOF 10
ENDMDL
