MODEL 1
REMARK VINA RESULT:      -5.8      0.000      0.000
REMARK  Name = Thioguanosine.pdbqt.pdb
REMARK  5 active torsions:
REMARK  status: ('A' for Active; 'I' for Inactive)
REMARK    1  A    between atoms: N_2  and  C1*_12
REMARK    2  A    between atoms: C4*_14  and  C5*_17
REMARK    3  A    between atoms: C3*_15  and  O3*_20
REMARK    4  A    between atoms: C2*_16  and  O2*_22
REMARK    5  A    between atoms: C5*_17  and  O5*_18
REMARK                            x       y       z     vdW  Elec       q    Type
REMARK                         _______ _______ _______ _____ _____    ______ ____
ROOT
ATOM      1  S   UNL     1       8.616  45.378   4.654  0.00  0.00    +0.000 S 
ATOM      2  N   UNL     1       9.308  41.531   7.606  0.00  0.00    +0.000 N 
ATOM      3  N   UNL     1       7.043  41.719   6.661  0.00  0.00    +0.000 N 
ATOM      4  N   UNL     1      10.162  43.359   6.579  0.00  0.00    +0.000 NA
ATOM      5  N   UNL     1       6.641  43.595   5.255  0.00  0.00    +0.000 NA
ATOM      6  C   UNL     1       8.321  42.100   6.843  0.00  0.00    +0.000 A 
ATOM      7  C   UNL     1      10.410  42.342   7.380  0.00  0.00    +0.000 A 
ATOM      8  C   UNL     1       8.838  43.218   6.240  0.00  0.00    +0.000 A 
ATOM      9  C   UNL     1       7.963  44.027   5.389  0.00  0.00    +0.000 A 
ATOM     10  C   UNL     1       6.260  42.509   5.864  0.00  0.00    +0.000 A 
ATOM     11  H   UNL     1       6.635  40.915   7.132  0.00  0.00    +0.000 HD
ATOM     12  N   UNL     1       4.986  42.066   5.746  0.00  0.00    +0.000 N 
ATOM     13  H   UNL     1       4.905  41.078   5.544  0.00  0.00    +0.000 HD
ATOM     14  H   UNL     1       4.481  42.615   5.053  0.00  0.00    +0.000 HD
ENDROOT
BRANCH   2  15
ATOM     15  C1* UNL     1       9.284  40.431   8.441  0.00  0.00    +0.000 A 
ATOM     16  O4* UNL     1       9.798  39.175   8.039  0.00  0.00    +0.000 OA
ATOM     17  C4* UNL     1       9.626  38.248   9.080  0.00  0.00    +0.000 A 
ATOM     18  C3* UNL     1       8.996  38.922  10.180  0.00  0.00    +0.000 A 
ATOM     19  C2* UNL     1       8.792  40.283   9.789  0.00  0.00    +0.000 A 
BRANCH  18  20
ATOM     20  O3* UNL     1       8.125  38.313  11.041  0.00  0.00    +0.000 OA
ATOM     21  H3* UNL     1       7.974  38.852  11.840  0.00  0.00    +0.000 HD
ENDBRANCH  18  20
BRANCH  19  22
ATOM     22  O2* UNL     1       7.737  41.001  10.280  0.00  0.00    +0.000 OA
ATOM     23  H2* UNL     1       7.785  41.919   9.945  0.00  0.00    +0.000 HD
ENDBRANCH  19  22
BRANCH  17  24
ATOM     24  C5* UNL     1       9.803  36.863   8.906  0.00  0.00    +0.000 C 
BRANCH  24  25
ATOM     25  O5* UNL     1       9.967  35.552   8.764  0.00  0.00    +0.000 OA
ATOM     26  H5* UNL     1       9.504  35.233   7.969  0.00  0.00    +0.000 HD
ENDBRANCH  24  25
ENDBRANCH  17  24
ENDBRANCH   2  15
TORSDOF 5
ENDMDL
MODEL 2
REMARK VINA RESULT:      -5.2     24.538     26.391
REMARK  Name = Thioguanosine.pdbqt.pdb
REMARK  5 active torsions:
REMARK  status: ('A' for Active; 'I' for Inactive)
REMARK    1  A    between atoms: N_2  and  C1*_12
REMARK    2  A    between atoms: C4*_14  and  C5*_17
REMARK    3  A    between atoms: C3*_15  and  O3*_20
REMARK    4  A    between atoms: C2*_16  and  O2*_22
REMARK    5  A    between atoms: C5*_17  and  O5*_18
REMARK                            x       y       z     vdW  Elec       q    Type
REMARK                         _______ _______ _______ _____ _____    ______ ____
ROOT
ATOM      1  S   UNL     1     -14.858  42.423   4.689  0.00  0.00    +0.000 S 
ATOM      2  N   UNL     1     -16.774  38.190   6.240  0.00  0.00    +0.000 N 
ATOM      3  N   UNL     1     -18.397  40.017   5.943  0.00  0.00    +0.000 N 
ATOM      4  N   UNL     1     -14.954  39.361   5.575  0.00  0.00    +0.000 NA
ATOM      5  N   UNL     1     -17.512  42.107   5.233  0.00  0.00    +0.000 NA
ATOM      6  C   UNL     1     -17.172  39.462   5.914  0.00  0.00    +0.000 A 
ATOM      7  C   UNL     1     -15.411  38.195   5.989  0.00  0.00    +0.000 A 
ATOM      8  C   UNL     1     -16.062  40.171   5.532  0.00  0.00    +0.000 A 
ATOM      9  C   UNL     1     -16.221  41.579   5.163  0.00  0.00    +0.000 A 
ATOM     10  C   UNL     1     -18.497  41.337   5.597  0.00  0.00    +0.000 A 
ATOM     11  H   UNL     1     -19.223  39.515   6.261  0.00  0.00    +0.000 HD
ATOM     12  N   UNL     1     -19.759  41.822   5.667  0.00  0.00    +0.000 N 
ATOM     13  H   UNL     1     -20.457  41.234   5.230  0.00  0.00    +0.000 HD
ATOM     14  H   UNL     1     -19.799  42.766   5.288  0.00  0.00    +0.000 HD
ENDROOT
BRANCH   2  15
ATOM     15  C1* UNL     1     -17.493  37.115   6.728  0.00  0.00    +0.000 A 
ATOM     16  O4* UNL     1     -17.047  35.782   6.564  0.00  0.00    +0.000 OA
ATOM     17  C4* UNL     1     -17.980  34.907   7.144  0.00  0.00    +0.000 A 
ATOM     18  C3* UNL     1     -19.045  35.692   7.700  0.00  0.00    +0.000 A 
ATOM     19  C2* UNL     1     -18.739  37.067   7.451  0.00  0.00    +0.000 A 
BRANCH  18  20
ATOM     20  O3* UNL     1     -20.347  35.273   7.751  0.00  0.00    +0.000 OA
ATOM     21  H3* UNL     1     -20.704  35.102   6.859  0.00  0.00    +0.000 HD
ENDBRANCH  18  20
BRANCH  19  22
ATOM     22  O2* UNL     1     -19.738  37.986   7.278  0.00  0.00    +0.000 OA
ATOM     23  H2* UNL     1     -20.475  37.573   6.783  0.00  0.00    +0.000 HD
ENDBRANCH  19  22
BRANCH  17  24
ATOM     24  C5* UNL     1     -17.954  33.516   6.934  0.00  0.00    +0.000 C 
BRANCH  24  25
ATOM     25  O5* UNL     1     -17.927  32.206   6.712  0.00  0.00    +0.000 OA
ATOM     26  H5* UNL     1     -17.578  31.734   7.489  0.00  0.00    +0.000 HD
ENDBRANCH  24  25
ENDBRANCH  17  24
ENDBRANCH   2  15
TORSDOF 5
ENDMDL
MODEL 3
REMARK VINA RESULT:      -5.1     25.496     27.585
REMARK  Name = Thioguanosine.pdbqt.pdb
REMARK  5 active torsions:
REMARK  status: ('A' for Active; 'I' for Inactive)
REMARK    1  A    between atoms: N_2  and  C1*_12
REMARK    2  A    between atoms: C4*_14  and  C5*_17
REMARK    3  A    between atoms: C3*_15  and  O3*_20
REMARK    4  A    between atoms: C2*_16  and  O2*_22
REMARK    5  A    between atoms: C5*_17  and  O5*_18
REMARK                            x       y       z     vdW  Elec       q    Type
REMARK                         _______ _______ _______ _____ _____    ______ ____
ROOT
ATOM      1  S   UNL     1     -14.372  42.382   4.733  0.00  0.00    +0.000 S 
ATOM      2  N   UNL     1     -17.936  39.156   5.674  0.00  0.00    +0.000 N 
ATOM      3  N   UNL     1     -18.627  41.517   5.752  0.00  0.00    +0.000 N 
ATOM      4  N   UNL     1     -15.776  39.544   5.120  0.00  0.00    +0.000 NA
ATOM      5  N   UNL     1     -16.924  43.127   5.345  0.00  0.00    +0.000 NA
ATOM      6  C   UNL     1     -17.750  40.512   5.576  0.00  0.00    +0.000 A 
ATOM      7  C   UNL     1     -16.693  38.629   5.363  0.00  0.00    +0.000 A 
ATOM      8  C   UNL     1     -16.435  40.741   5.260  0.00  0.00    +0.000 A 
ATOM      9  C   UNL     1     -15.975  42.125   5.130  0.00  0.00    +0.000 A 
ATOM     10  C   UNL     1     -18.150  42.794   5.628  0.00  0.00    +0.000 A 
ATOM     11  H   UNL     1     -19.595  41.364   6.025  0.00  0.00    +0.000 HD
ATOM     12  N   UNL     1     -19.091  43.746   5.835  0.00  0.00    +0.000 N 
ATOM     13  H   UNL     1     -19.960  43.588   5.344  0.00  0.00    +0.000 HD
ATOM     14  H   UNL     1     -18.718  44.667   5.615  0.00  0.00    +0.000 HD
ENDROOT
BRANCH   2  15
ATOM     15  C1* UNL     1     -19.053  38.419   6.017  0.00  0.00    +0.000 A 
ATOM     16  O4* UNL     1     -20.335  38.720   5.499  0.00  0.00    +0.000 OA
ATOM     17  C4* UNL     1     -21.273  37.818   6.030  0.00  0.00    +0.000 A 
ATOM     18  C3* UNL     1     -20.580  36.914   6.902  0.00  0.00    +0.000 A 
ATOM     19  C2* UNL     1     -19.197  37.278   6.888  0.00  0.00    +0.000 A 
BRANCH  18  20
ATOM     20  O3* UNL     1     -21.139  36.370   8.027  0.00  0.00    +0.000 OA
ATOM     21  H3* UNL     1     -21.402  37.058   8.665  0.00  0.00    +0.000 HD
ENDBRANCH  18  20
BRANCH  19  22
ATOM     22  O2* UNL     1     -18.409  37.075   7.987  0.00  0.00    +0.000 OA
ATOM     23  H2* UNL     1     -18.931  37.248   8.797  0.00  0.00    +0.000 HD
ENDBRANCH  19  22
BRANCH  17  24
ATOM     24  C5* UNL     1     -22.662  38.004   5.909  0.00  0.00    +0.000 C 
BRANCH  24  25
ATOM     25  O5* UNL     1     -23.972  38.202   5.800  0.00  0.00    +0.000 OA
ATOM     26  H5* UNL     1     -24.430  37.365   5.607  0.00  0.00    +0.000 HD
ENDBRANCH  24  25
ENDBRANCH  17  24
ENDBRANCH   2  15
TORSDOF 5
ENDMDL
MODEL 4
REMARK VINA RESULT:      -5.0     25.760     28.138
REMARK  Name = Thioguanosine.pdbqt.pdb
REMARK  5 active torsions:
REMARK  status: ('A' for Active; 'I' for Inactive)
REMARK    1  A    between atoms: N_2  and  C1*_12
REMARK    2  A    between atoms: C4*_14  and  C5*_17
REMARK    3  A    between atoms: C3*_15  and  O3*_20
REMARK    4  A    between atoms: C2*_16  and  O2*_22
REMARK    5  A    between atoms: C5*_17  and  O5*_18
REMARK                            x       y       z     vdW  Elec       q    Type
REMARK                         _______ _______ _______ _____ _____    ______ ____
ROOT
ATOM      1  S   UNL     1     -22.875  36.693   6.739  0.00  0.00    +0.000 S 
ATOM      2  N   UNL     1     -19.735  40.143   5.244  0.00  0.00    +0.000 N 
ATOM      3  N   UNL     1     -18.760  38.412   6.696  0.00  0.00    +0.000 N 
ATOM      4  N   UNL     1     -21.831  39.287   5.206  0.00  0.00    +0.000 NA
ATOM      5  N   UNL     1     -20.251  36.736   7.486  0.00  0.00    +0.000 NA
ATOM      6  C   UNL     1     -19.753  39.005   6.009  0.00  0.00    +0.000 A 
ATOM      7  C   UNL     1     -21.034  40.242   4.769  0.00  0.00    +0.000 A 
ATOM      8  C   UNL     1     -21.029  38.503   5.998  0.00  0.00    +0.000 A 
ATOM      9  C   UNL     1     -21.316  37.295   6.775  0.00  0.00    +0.000 A 
ATOM     10  C   UNL     1     -19.076  37.290   7.414  0.00  0.00    +0.000 A 
ATOM     11  H   UNL     1     -17.818  38.794   6.745  0.00  0.00    +0.000 HD
ATOM     12  N   UNL     1     -18.025  36.765   8.089  0.00  0.00    +0.000 N 
ATOM     13  H   UNL     1     -17.181  36.671   7.540  0.00  0.00    +0.000 HD
ATOM     14  H   UNL     1     -18.281  35.873   8.506  0.00  0.00    +0.000 HD
ENDROOT
BRANCH   2  15
ATOM     15  C1* UNL     1     -18.718  41.040   4.980  0.00  0.00    +0.000 A 
ATOM     16  O4* UNL     1     -17.366  40.631   4.890  0.00  0.00    +0.000 OA
ATOM     17  C4* UNL     1     -16.559  41.752   4.629  0.00  0.00    +0.000 A 
ATOM     18  C3* UNL     1     -17.410  42.904   4.542  0.00  0.00    +0.000 A 
ATOM     19  C2* UNL     1     -18.754  42.463   4.749  0.00  0.00    +0.000 A 
BRANCH  18  20
ATOM     20  O3* UNL     1     -17.026  44.158   4.935  0.00  0.00    +0.000 OA
ATOM     21  H3* UNL     1     -16.075  44.192   5.148  0.00  0.00    +0.000 HD
ENDBRANCH  18  20
BRANCH  19  22
ATOM     22  O2* UNL     1     -19.680  43.289   5.326  0.00  0.00    +0.000 OA
ATOM     23  H2* UNL     1     -19.733  43.098   6.284  0.00  0.00    +0.000 HD
ENDBRANCH  19  22
BRANCH  17  24
ATOM     24  C5* UNL     1     -15.156  41.721   4.730  0.00  0.00    +0.000 C 
BRANCH  24  25
ATOM     25  O5* UNL     1     -13.831  41.674   4.810  0.00  0.00    +0.000 OA
ATOM     26  H5* UNL     1     -13.522  42.093   5.633  0.00  0.00    +0.000 HD
ENDBRANCH  24  25
ENDBRANCH  17  24
ENDBRANCH   2  15
TORSDOF 5
ENDMDL
MODEL 5
REMARK VINA RESULT:      -4.7      1.656      2.050
REMARK  Name = Thioguanosine.pdbqt.pdb
REMARK  5 active torsions:
REMARK  status: ('A' for Active; 'I' for Inactive)
REMARK    1  A    between atoms: N_2  and  C1*_12
REMARK    2  A    between atoms: C4*_14  and  C5*_17
REMARK    3  A    between atoms: C3*_15  and  O3*_20
REMARK    4  A    between atoms: C2*_16  and  O2*_22
REMARK    5  A    between atoms: C5*_17  and  O5*_18
REMARK                            x       y       z     vdW  Elec       q    Type
REMARK                         _______ _______ _______ _____ _____    ______ ____
ROOT
ATOM      1  S   UNL     1       8.995  44.306   3.134  0.00  0.00    +0.000 S 
ATOM      2  N   UNL     1       9.108  40.901   6.654  0.00  0.00    +0.000 N 
ATOM      3  N   UNL     1       8.826  43.212   7.454  0.00  0.00    +0.000 N 
ATOM      4  N   UNL     1       9.162  41.404   4.447  0.00  0.00    +0.000 NA
ATOM      5  N   UNL     1       8.808  44.909   5.787  0.00  0.00    +0.000 NA
ATOM      6  C   UNL     1       8.974  42.259   6.515  0.00  0.00    +0.000 A 
ATOM      7  C   UNL     1       9.198  40.443   5.348  0.00  0.00    +0.000 A 
ATOM      8  C   UNL     1       9.028  42.559   5.178  0.00  0.00    +0.000 A 
ATOM      9  C   UNL     1       8.939  43.962   4.769  0.00  0.00    +0.000 A 
ATOM     10  C   UNL     1       8.754  44.509   7.025  0.00  0.00    +0.000 A 
ATOM     11  H   UNL     1       8.823  43.008   8.450  0.00  0.00    +0.000 HD
ATOM     12  N   UNL     1       8.621  45.406   8.032  0.00  0.00    +0.000 N 
ATOM     13  H   UNL     1       7.916  45.164   8.715  0.00  0.00    +0.000 HD
ATOM     14  H   UNL     1       8.453  46.337   7.658  0.00  0.00    +0.000 HD
ENDROOT
BRANCH   2  15
ATOM     15  C1* UNL     1       9.170  40.109   7.784  0.00  0.00    +0.000 A 
ATOM     16  O4* UNL     1       9.751  38.819   7.763  0.00  0.00    +0.000 OA
ATOM     17  C4* UNL     1       9.660  38.248   9.043  0.00  0.00    +0.000 A 
ATOM     18  C3* UNL     1       9.014  39.193   9.909  0.00  0.00    +0.000 A 
ATOM     19  C2* UNL     1       8.718  40.356   9.131  0.00  0.00    +0.000 A 
BRANCH  18  20
ATOM     20  O3* UNL     1       8.201  38.831  10.949  0.00  0.00    +0.000 OA
ATOM     21  H3* UNL     1       8.198  37.865  11.083  0.00  0.00    +0.000 HD
ENDBRANCH  18  20
BRANCH  19  22
ATOM     22  O2* UNL     1       7.631  41.134   9.423  0.00  0.00    +0.000 OA
ATOM     23  H2* UNL     1       7.006  40.622   9.976  0.00  0.00    +0.000 HD
ENDBRANCH  19  22
BRANCH  17  24
ATOM     24  C5* UNL     1       9.918  36.887   9.291  0.00  0.00    +0.000 C 
BRANCH  24  25
ATOM     25  O5* UNL     1      10.162  35.598   9.502  0.00  0.00    +0.000 OA
ATOM     26  H5* UNL     1      10.514  35.459  10.399  0.00  0.00    +0.000 HD
ENDBRANCH  24  25
ENDBRANCH  17  24
ENDBRANCH   2  15
TORSDOF 5
ENDMDL
MODEL 6
REMARK VINA RESULT:      -4.5     26.762     28.145
REMARK  Name = Thioguanosine.pdbqt.pdb
REMARK  5 active torsions:
REMARK  status: ('A' for Active; 'I' for Inactive)
REMARK    1  A    between atoms: N_2  and  C1*_12
REMARK    2  A    between atoms: C4*_14  and  C5*_17
REMARK    3  A    between atoms: C3*_15  and  O3*_20
REMARK    4  A    between atoms: C2*_16  and  O2*_22
REMARK    5  A    between atoms: C5*_17  and  O5*_18
REMARK                            x       y       z     vdW  Elec       q    Type
REMARK                         _______ _______ _______ _____ _____    ______ ____
ROOT
ATOM      1  S   UNL     1     -16.721  53.148  21.654  0.00  0.00    +0.000 S 
ATOM      2  N   UNL     1     -13.112  50.632  23.808  0.00  0.00    +0.000 N 
ATOM      3  N   UNL     1     -12.375  52.557  22.463  0.00  0.00    +0.000 N 
ATOM      4  N   UNL     1     -15.330  50.914  23.456  0.00  0.00    +0.000 NA
ATOM      5  N   UNL     1     -14.085  53.787  21.359  0.00  0.00    +0.000 NA
ATOM      6  C   UNL     1     -13.287  51.727  23.001  0.00  0.00    +0.000 A 
ATOM      7  C   UNL     1     -14.404  50.199  24.063  0.00  0.00    +0.000 A 
ATOM      8  C   UNL     1     -14.631  51.880  22.775  0.00  0.00    +0.000 A 
ATOM      9  C   UNL     1     -15.078  52.971  21.906  0.00  0.00    +0.000 A 
ATOM     10  C   UNL     1     -12.838  53.558  21.653  0.00  0.00    +0.000 A 
ATOM     11  H   UNL     1     -11.373  52.433  22.590  0.00  0.00    +0.000 HD
ATOM     12  N   UNL     1     -11.856  54.338  21.140  0.00  0.00    +0.000 N 
ATOM     13  H   UNL     1     -11.173  54.648  21.818  0.00  0.00    +0.000 HD
ATOM     14  H   UNL     1     -12.256  55.133  20.646  0.00  0.00    +0.000 HD
ENDROOT
BRANCH   2  15
ATOM     15  C1* UNL     1     -11.960  50.031  24.279  0.00  0.00    +0.000 A 
ATOM     16  O4* UNL     1     -10.715  50.184  23.624  0.00  0.00    +0.000 OA
ATOM     17  C4* UNL     1      -9.734  49.453  24.316  0.00  0.00    +0.000 A 
ATOM     18  C3* UNL     1     -10.359  48.823  25.444  0.00  0.00    +0.000 A 
ATOM     19  C2* UNL     1     -11.741  49.190  25.430  0.00  0.00    +0.000 A 
BRANCH  18  20
ATOM     20  O3* UNL     1      -9.971  47.609  25.942  0.00  0.00    +0.000 OA
ATOM     21  H3* UNL     1     -10.591  46.901  25.685  0.00  0.00    +0.000 HD
ENDBRANCH  18  20
BRANCH  19  22
ATOM     22  O2* UNL     1     -12.694  48.343  25.927  0.00  0.00    +0.000 OA
ATOM     23  H2* UNL     1     -12.282  47.739  26.578  0.00  0.00    +0.000 HD
ENDBRANCH  19  22
BRANCH  17  24
ATOM     24  C5* UNL     1      -8.457  49.200  23.784  0.00  0.00    +0.000 C 
BRANCH  24  25
ATOM     25  O5* UNL     1      -7.258  48.940  23.273  0.00  0.00    +0.000 OA
ATOM     26  H5* UNL     1      -7.202  48.012  22.984  0.00  0.00    +0.000 HD
ENDBRANCH  24  25
ENDBRANCH  17  24
ENDBRANCH   2  15
TORSDOF 5
ENDMDL
MODEL 7
REMARK VINA RESULT:      -4.5     25.978     28.107
REMARK  Name = Thioguanosine.pdbqt.pdb
REMARK  5 active torsions:
REMARK  status: ('A' for Active; 'I' for Inactive)
REMARK    1  A    between atoms: N_2  and  C1*_12
REMARK    2  A    between atoms: C4*_14  and  C5*_17
REMARK    3  A    between atoms: C3*_15  and  O3*_20
REMARK    4  A    between atoms: C2*_16  and  O2*_22
REMARK    5  A    between atoms: C5*_17  and  O5*_18
REMARK                            x       y       z     vdW  Elec       q    Type
REMARK                         _______ _______ _______ _____ _____    ______ ____
ROOT
ATOM      1  S   UNL     1     -23.676  35.596   7.644  0.00  0.00    +0.000 S 
ATOM      2  N   UNL     1     -19.155  37.330   6.905  0.00  0.00    +0.000 N 
ATOM      3  N   UNL     1     -19.619  35.157   5.844  0.00  0.00    +0.000 N 
ATOM      4  N   UNL     1     -21.212  37.614   7.807  0.00  0.00    +0.000 NA
ATOM      5  N   UNL     1     -21.787  34.250   6.209  0.00  0.00    +0.000 NA
ATOM      6  C   UNL     1     -19.927  36.245   6.574  0.00  0.00    +0.000 A 
ATOM      7  C   UNL     1     -20.011  38.133   7.642  0.00  0.00    +0.000 A 
ATOM      8  C   UNL     1     -21.165  36.414   7.140  0.00  0.00    +0.000 A 
ATOM      9  C   UNL     1     -22.170  35.365   6.956  0.00  0.00    +0.000 A 
ATOM     10  C   UNL     1     -20.587  34.201   5.706  0.00  0.00    +0.000 A 
ATOM     11  H   UNL     1     -18.694  35.001   5.451  0.00  0.00    +0.000 HD
ATOM     12  N   UNL     1     -20.193  33.132   4.972  0.00  0.00    +0.000 N 
ATOM     13  H   UNL     1     -19.729  33.370   4.105  0.00  0.00    +0.000 HD
ATOM     14  H   UNL     1     -20.979  32.511   4.798  0.00  0.00    +0.000 HD
ENDROOT
BRANCH   2  15
ATOM     15  C1* UNL     1     -17.831  37.615   6.630  0.00  0.00    +0.000 A 
ATOM     16  O4* UNL     1     -17.394  38.930   6.341  0.00  0.00    +0.000 OA
ATOM     17  C4* UNL     1     -16.012  38.914   6.089  0.00  0.00    +0.000 A 
ATOM     18  C3* UNL     1     -15.548  37.563   6.225  0.00  0.00    +0.000 A 
ATOM     19  C2* UNL     1     -16.676  36.754   6.572  0.00  0.00    +0.000 A 
BRANCH  18  20
ATOM     20  O3* UNL     1     -14.522  37.038   5.486  0.00  0.00    +0.000 OA
ATOM     21  H3* UNL     1     -14.830  36.316   4.908  0.00  0.00    +0.000 HD
ENDBRANCH  18  20
BRANCH  19  22
ATOM     22  O2* UNL     1     -16.740  35.443   6.187  0.00  0.00    +0.000 OA
ATOM     23  H2* UNL     1     -16.982  35.395   5.240  0.00  0.00    +0.000 HD
ENDBRANCH  19  22
BRANCH  17  24
ATOM     24  C5* UNL     1     -15.326  40.010   5.533  0.00  0.00    +0.000 C 
BRANCH  24  25
ATOM     25  O5* UNL     1     -14.661  41.040   5.022  0.00  0.00    +0.000 OA
ATOM     26  H5* UNL     1     -15.270  41.767   4.803  0.00  0.00    +0.000 HD
ENDBRANCH  24  25
ENDBRANCH  17  24
ENDBRANCH   2  15
TORSDOF 5
ENDMDL
MODEL 8
REMARK VINA RESULT:      -4.4     33.001     34.820
REMARK  Name = Thioguanosine.pdbqt.pdb
REMARK  5 active torsions:
REMARK  status: ('A' for Active; 'I' for Inactive)
REMARK    1  A    between atoms: N_2  and  C1*_12
REMARK    2  A    between atoms: C4*_14  and  C5*_17
REMARK    3  A    between atoms: C3*_15  and  O3*_20
REMARK    4  A    between atoms: C2*_16  and  O2*_22
REMARK    5  A    between atoms: C5*_17  and  O5*_18
REMARK                            x       y       z     vdW  Elec       q    Type
REMARK                         _______ _______ _______ _____ _____    ______ ____
ROOT
ATOM      1  S   UNL     1     -27.435  45.513  12.038  0.00  0.00    +0.000 S 
ATOM      2  N   UNL     1     -25.446  44.121  16.293  0.00  0.00    +0.000 N 
ATOM      3  N   UNL     1     -24.796  46.369  15.529  0.00  0.00    +0.000 N 
ATOM      4  N   UNL     1     -26.826  43.656  14.558  0.00  0.00    +0.000 NA
ATOM      5  N   UNL     1     -25.699  47.076  13.446  0.00  0.00    +0.000 NA
ATOM      6  C   UNL     1     -25.451  45.197  15.442  0.00  0.00    +0.000 A 
ATOM      7  C   UNL     1     -26.324  43.227  15.699  0.00  0.00    +0.000 A 
ATOM      8  C   UNL     1     -26.273  44.901  14.384  0.00  0.00    +0.000 A 
ATOM      9  C   UNL     1     -26.421  45.888  13.312  0.00  0.00    +0.000 A 
ATOM     10  C   UNL     1     -24.959  47.257  14.502  0.00  0.00    +0.000 A 
ATOM     11  H   UNL     1     -24.154  46.586  16.288  0.00  0.00    +0.000 HD
ATOM     12  N   UNL     1     -24.254  48.403  14.659  0.00  0.00    +0.000 N 
ATOM     13  H   UNL     1     -24.338  48.822  15.575  0.00  0.00    +0.000 HD
ATOM     14  H   UNL     1     -24.501  49.074  13.935  0.00  0.00    +0.000 HD
ENDROOT
BRANCH   2  15
ATOM     15  C1* UNL     1     -24.748  43.897  17.463  0.00  0.00    +0.000 A 
ATOM     16  O4* UNL     1     -23.444  44.409  17.666  0.00  0.00    +0.000 OA
ATOM     17  C4* UNL     1     -22.982  44.013  18.932  0.00  0.00    +0.000 A 
ATOM     18  C3* UNL     1     -24.011  43.235  19.560  0.00  0.00    +0.000 A 
ATOM     19  C2* UNL     1     -25.115  43.170  18.654  0.00  0.00    +0.000 A 
BRANCH  18  20
ATOM     20  O3* UNL     1     -23.757  42.197  20.416  0.00  0.00    +0.000 OA
ATOM     21  H3* UNL     1     -23.523  41.383  19.933  0.00  0.00    +0.000 HD
ENDBRANCH  18  20
BRANCH  19  22
ATOM     22  O2* UNL     1     -25.943  42.081  18.637  0.00  0.00    +0.000 OA
ATOM     23  H2* UNL     1     -26.872  42.380  18.711  0.00  0.00    +0.000 HD
ENDBRANCH  19  22
BRANCH  17  24
ATOM     24  C5* UNL     1     -21.639  44.149  19.330  0.00  0.00    +0.000 C 
BRANCH  24  25
ATOM     25  O5* UNL     1     -20.364  44.267  19.686  0.00  0.00    +0.000 OA
ATOM     26  H5* UNL     1     -19.915  44.932  19.135  0.00  0.00    +0.000 HD
ENDBRANCH  24  25
ENDBRANCH  17  24
ENDBRANCH   2  15
TORSDOF 5
ENDMDL
MODEL 9
REMARK VINA RESULT:      -4.3     33.100     34.416
REMARK  Name = Thioguanosine.pdbqt.pdb
REMARK  5 active torsions:
REMARK  status: ('A' for Active; 'I' for Inactive)
REMARK    1  A    between atoms: N_2  and  C1*_12
REMARK    2  A    between atoms: C4*_14  and  C5*_17
REMARK    3  A    between atoms: C3*_15  and  O3*_20
REMARK    4  A    between atoms: C2*_16  and  O2*_22
REMARK    5  A    between atoms: C5*_17  and  O5*_18
REMARK                            x       y       z     vdW  Elec       q    Type
REMARK                         _______ _______ _______ _____ _____    ______ ____
ROOT
ATOM      1  S   UNL     1     -27.181  45.723  13.556  0.00  0.00    +0.000 S 
ATOM      2  N   UNL     1     -23.902  45.786  17.194  0.00  0.00    +0.000 N 
ATOM      3  N   UNL     1     -25.128  43.666  16.938  0.00  0.00    +0.000 N 
ATOM      4  N   UNL     1     -24.891  46.858  15.462  0.00  0.00    +0.000 NA
ATOM      5  N   UNL     1     -26.764  43.597  15.214  0.00  0.00    +0.000 NA
ATOM      6  C   UNL     1     -24.809  44.933  16.617  0.00  0.00    +0.000 A 
ATOM      7  C   UNL     1     -23.992  46.935  16.424  0.00  0.00    +0.000 A 
ATOM      8  C   UNL     1     -25.418  45.595  15.582  0.00  0.00    +0.000 A 
ATOM      9  C   UNL     1     -26.460  44.902  14.820  0.00  0.00    +0.000 A 
ATOM     10  C   UNL     1     -26.111  43.061  16.204  0.00  0.00    +0.000 A 
ATOM     11  H   UNL     1     -24.713  43.176  17.727  0.00  0.00    +0.000 HD
ATOM     12  N   UNL     1     -26.383  41.795  16.602  0.00  0.00    +0.000 N 
ATOM     13  H   UNL     1     -25.565  41.216  16.740  0.00  0.00    +0.000 HD
ATOM     14  H   UNL     1     -27.030  41.351  15.954  0.00  0.00    +0.000 HD
ENDROOT
BRANCH   2  15
ATOM     15  C1* UNL     1     -23.079  45.622  18.291  0.00  0.00    +0.000 A 
ATOM     16  O4* UNL     1     -23.101  46.520  19.384  0.00  0.00    +0.000 OA
ATOM     17  C4* UNL     1     -22.154  46.113  20.339  0.00  0.00    +0.000 A 
ATOM     18  C3* UNL     1     -21.513  44.924  19.854  0.00  0.00    +0.000 A 
ATOM     19  C2* UNL     1     -22.094  44.610  18.585  0.00  0.00    +0.000 A 
BRANCH  18  20
ATOM     20  O3* UNL     1     -20.206  44.611  20.112  0.00  0.00    +0.000 OA
ATOM     21  H3* UNL     1     -19.993  44.713  21.058  0.00  0.00    +0.000 HD
ENDBRANCH  18  20
BRANCH  19  22
ATOM     22  O2* UNL     1     -21.361  43.979  17.618  0.00  0.00    +0.000 OA
ATOM     23  H2* UNL     1     -21.308  43.023  17.823  0.00  0.00    +0.000 HD
ENDBRANCH  19  22
BRANCH  17  24
ATOM     24  C5* UNL     1     -21.760  46.927  21.416  0.00  0.00    +0.000 C 
BRANCH  24  25
ATOM     25  O5* UNL     1     -21.378  47.678  22.444  0.00  0.00    +0.000 OA
ATOM     26  H5* UNL     1     -21.865  48.520  22.453  0.00  0.00    +0.000 HD
ENDBRANCH  24  25
ENDBRANCH  17  24
ENDBRANCH   2  15
TORSDOF 5
ENDMDL
