MODEL 1
REMARK VINA RESULT:      -6.3      0.000      0.000
REMARK  Name = Trichostatin_A.pdbqt.pdb
REMARK  6 active torsions:
REMARK  status: ('A' for Active; 'I' for Inactive)
REMARK    1  A    between atoms: C_1  and  C_15
REMARK    2  A    between atoms: C_4  and  C_6
REMARK    3  A    between atoms: C_7  and  C_10
REMARK    4  A    between atoms: N_9  and  O_12
REMARK    5  A    between atoms: C_15  and  C_16
REMARK    6  A    between atoms: C_17  and  N_22
REMARK                            x       y       z     vdW  Elec       q    Type
REMARK                         _______ _______ _______ _____ _____    ______ ____
ROOT
ATOM      1  C   UNL     1      -4.313  45.469  26.123  0.00  0.00    +0.000 C 
ATOM      2  C   UNL     1      -4.088  44.534  24.952  0.00  0.00    +0.000 C 
ATOM      3  C   UNL     1      -3.146  45.963  26.753  0.00  0.00    +0.000 C 
ATOM      4  C   UNL     1      -2.113  46.437  27.367  0.00  0.00    +0.000 C 
ATOM      5  C   UNL     1      -1.601  47.799  27.007  0.00  0.00    +0.000 C 
ENDROOT
BRANCH   4   6
ATOM      6  C   UNL     1      -1.593  45.770  28.500  0.00  0.00    +0.000 C 
ATOM      7  C   UNL     1      -1.153  45.205  29.466  0.00  0.00    +0.000 C 
BRANCH   7  10
ATOM      8  O   UNL     1      -1.227  44.569  31.688  0.00  0.00    +0.000 OA
ATOM      9  N   UNL     1       0.542  43.841  30.434  0.00  0.00    +0.000 N 
ATOM     10  C   UNL     1      -0.629  44.521  30.618  0.00  0.00    +0.000 C 
ATOM     11  H   UNL     1       1.052  43.797  29.560  0.00  0.00    +0.000 HD
BRANCH   9  12
ATOM     12  O   UNL     1       1.089  43.167  31.546  0.00  0.00    +0.000 OA
ATOM     13  H   UNL     1       2.051  43.345  31.458  0.00  0.00    +0.000 HD
ENDBRANCH   9  12
ENDBRANCH   7  10
ENDBRANCH   4   6
BRANCH   1  15
ATOM     14  O   UNL     1      -6.010  44.924  27.693  0.00  0.00    +0.000 OA
ATOM     15  C   UNL     1      -5.640  45.664  26.781  0.00  0.00    +0.000 C 
BRANCH  15  16
ATOM     16  C   UNL     1      -6.531  46.762  26.353  0.00  0.00    +0.000 A 
ATOM     17  C   UNL     1      -8.214  48.808  25.360  0.00  0.00    +0.000 A 
ATOM     18  C   UNL     1      -7.863  46.824  26.748  0.00  0.00    +0.000 A 
ATOM     19  C   UNL     1      -6.038  47.694  25.444  0.00  0.00    +0.000 A 
ATOM     20  C   UNL     1      -8.684  47.843  26.264  0.00  0.00    +0.000 A 
ATOM     21  C   UNL     1      -6.869  48.709  24.968  0.00  0.00    +0.000 A 
BRANCH  17  22
ATOM     22  N   UNL     1      -9.049  49.850  24.886  0.00  0.00    +0.000 N 
ATOM     23  C   UNL     1      -9.080  51.143  25.550  0.00  0.00    +0.000 C 
ATOM     24  C   UNL     1     -10.193  49.566  24.035  0.00  0.00    +0.000 C 
ENDBRANCH  17  22
ENDBRANCH  15  16
ENDBRANCH   1  15
TORSDOF 6
ENDMDL
MODEL 2
REMARK VINA RESULT:      -5.8      3.200      4.893
REMARK  Name = Trichostatin_A.pdbqt.pdb
REMARK  6 active torsions:
REMARK  status: ('A' for Active; 'I' for Inactive)
REMARK    1  A    between atoms: C_1  and  C_15
REMARK    2  A    between atoms: C_4  and  C_6
REMARK    3  A    between atoms: C_7  and  C_10
REMARK    4  A    between atoms: N_9  and  O_12
REMARK    5  A    between atoms: C_15  and  C_16
REMARK    6  A    between atoms: C_17  and  N_22
REMARK                            x       y       z     vdW  Elec       q    Type
REMARK                         _______ _______ _______ _____ _____    ______ ____
ROOT
ATOM      1  C   UNL     1      -6.470  47.249  26.557  0.00  0.00    +0.000 C 
ATOM      2  C   UNL     1      -7.787  47.005  27.265  0.00  0.00    +0.000 C 
ATOM      3  C   UNL     1      -5.512  46.212  26.657  0.00  0.00    +0.000 C 
ATOM      4  C   UNL     1      -4.601  45.299  26.723  0.00  0.00    +0.000 C 
ATOM      5  C   UNL     1      -4.460  44.314  25.603  0.00  0.00    +0.000 C 
ENDROOT
BRANCH   4   6
ATOM      6  C   UNL     1      -3.619  45.348  27.740  0.00  0.00    +0.000 C 
ATOM      7  C   UNL     1      -2.785  45.386  28.604  0.00  0.00    +0.000 C 
BRANCH   7  10
ATOM      8  O   UNL     1      -1.400  44.401  30.172  0.00  0.00    +0.000 OA
ATOM      9  N   UNL     1      -1.305  46.675  29.954  0.00  0.00    +0.000 N 
ATOM     10  C   UNL     1      -1.781  45.434  29.634  0.00  0.00    +0.000 C 
ATOM     11  H   UNL     1      -1.614  47.540  29.525  0.00  0.00    +0.000 HD
BRANCH   9  12
ATOM     12  O   UNL     1      -0.326  46.760  30.966  0.00  0.00    +0.000 OA
ATOM     13  H   UNL     1      -0.590  46.045  31.585  0.00  0.00    +0.000 HD
ENDBRANCH   9  12
ENDBRANCH   7  10
ENDBRANCH   4   6
BRANCH   1  15
ATOM     14  O   UNL     1      -6.575  49.043  25.004  0.00  0.00    +0.000 OA
ATOM     15  C   UNL     1      -6.056  48.581  26.020  0.00  0.00    +0.000 C 
BRANCH  15  16
ATOM     16  C   UNL     1      -5.020  49.374  26.712  0.00  0.00    +0.000 A 
ATOM     17  C   UNL     1      -2.983  50.958  27.873  0.00  0.00    +0.000 A 
ATOM     18  C   UNL     1      -5.346  50.378  27.619  0.00  0.00    +0.000 A 
ATOM     19  C   UNL     1      -3.689  49.173  26.358  0.00  0.00    +0.000 A 
ATOM     20  C   UNL     1      -4.336  51.147  28.197  0.00  0.00    +0.000 A 
ATOM     21  C   UNL     1      -2.688  49.949  26.944  0.00  0.00    +0.000 A 
BRANCH  17  22
ATOM     22  N   UNL     1      -1.961  51.732  28.478  0.00  0.00    +0.000 N 
ATOM     23  C   UNL     1      -0.820  52.197  27.707  0.00  0.00    +0.000 C 
ATOM     24  C   UNL     1      -1.770  51.726  29.920  0.00  0.00    +0.000 C 
ENDBRANCH  17  22
ENDBRANCH  15  16
ENDBRANCH   1  15
TORSDOF 6
ENDMDL
MODEL 3
REMARK VINA RESULT:      -5.5      3.549      5.292
REMARK  Name = Trichostatin_A.pdbqt.pdb
REMARK  6 active torsions:
REMARK  status: ('A' for Active; 'I' for Inactive)
REMARK    1  A    between atoms: C_1  and  C_15
REMARK    2  A    between atoms: C_4  and  C_6
REMARK    3  A    between atoms: C_7  and  C_10
REMARK    4  A    between atoms: N_9  and  O_12
REMARK    5  A    between atoms: C_15  and  C_16
REMARK    6  A    between atoms: C_17  and  N_22
REMARK                            x       y       z     vdW  Elec       q    Type
REMARK                         _______ _______ _______ _____ _____    ______ ____
ROOT
ATOM      1  C   UNL     1      -0.656  51.133  27.582  0.00  0.00    +0.000 C 
ATOM      2  C   UNL     1       0.008  51.779  26.382  0.00  0.00    +0.000 C 
ATOM      3  C   UNL     1       0.194  50.388  28.433  0.00  0.00    +0.000 C 
ATOM      4  C   UNL     1       0.926  49.692  29.239  0.00  0.00    +0.000 C 
ATOM      5  C   UNL     1       1.456  50.326  30.489  0.00  0.00    +0.000 C 
ENDROOT
BRANCH   4   6
ATOM      6  C   UNL     1       1.059  48.297  29.050  0.00  0.00    +0.000 C 
ATOM      7  C   UNL     1       1.169  47.110  28.892  0.00  0.00    +0.000 C 
BRANCH   7  10
ATOM      8  O   UNL     1       0.302  44.978  28.673  0.00  0.00    +0.000 OA
ATOM      9  N   UNL     1       2.572  45.219  28.540  0.00  0.00    +0.000 N 
ATOM     10  C   UNL     1       1.299  45.691  28.694  0.00  0.00    +0.000 C 
ATOM     11  H   UNL     1       3.407  45.792  28.563  0.00  0.00    +0.000 HD
BRANCH   9  12
ATOM     12  O   UNL     1       2.737  43.830  28.354  0.00  0.00    +0.000 OA
ATOM     13  H   UNL     1       1.819  43.490  28.425  0.00  0.00    +0.000 HD
ENDBRANCH   9  12
ENDBRANCH   7  10
ENDBRANCH   4   6
BRANCH   1  15
ATOM     14  O   UNL     1      -2.794  51.952  28.216  0.00  0.00    +0.000 OA
ATOM     15  C   UNL     1      -2.138  51.023  27.745  0.00  0.00    +0.000 C 
BRANCH  15  16
ATOM     16  C   UNL     1      -2.844  49.794  27.331  0.00  0.00    +0.000 A 
ATOM     17  C   UNL     1      -4.228  47.519  26.374  0.00  0.00    +0.000 A 
ATOM     18  C   UNL     1      -2.189  48.570  27.224  0.00  0.00    +0.000 A 
ATOM     19  C   UNL     1      -4.175  49.898  26.936  0.00  0.00    +0.000 A 
ATOM     20  C   UNL     1      -2.881  47.450  26.764  0.00  0.00    +0.000 A 
ATOM     21  C   UNL     1      -4.856  48.770  26.478  0.00  0.00    +0.000 A 
BRANCH  17  22
ATOM     22  N   UNL     1      -4.929  46.372  25.924  0.00  0.00    +0.000 N 
ATOM     23  C   UNL     1      -4.233  45.283  25.258  0.00  0.00    +0.000 C 
ATOM     24  C   UNL     1      -6.366  46.410  25.706  0.00  0.00    +0.000 C 
ENDBRANCH  17  22
ENDBRANCH  15  16
ENDBRANCH   1  15
TORSDOF 6
ENDMDL
MODEL 4
REMARK VINA RESULT:      -5.4     23.572     25.327
REMARK  Name = Trichostatin_A.pdbqt.pdb
REMARK  6 active torsions:
REMARK  status: ('A' for Active; 'I' for Inactive)
REMARK    1  A    between atoms: C_1  and  C_15
REMARK    2  A    between atoms: C_4  and  C_6
REMARK    3  A    between atoms: C_7  and  C_10
REMARK    4  A    between atoms: N_9  and  O_12
REMARK    5  A    between atoms: C_15  and  C_16
REMARK    6  A    between atoms: C_17  and  N_22
REMARK                            x       y       z     vdW  Elec       q    Type
REMARK                         _______ _______ _______ _____ _____    ______ ____
ROOT
ATOM      1  C   UNL     1     -19.834  29.290  17.757  0.00  0.00    +0.000 C 
ATOM      2  C   UNL     1     -19.093  30.450  17.123  0.00  0.00    +0.000 C 
ATOM      3  C   UNL     1     -20.679  29.617  18.845  0.00  0.00    +0.000 C 
ATOM      4  C   UNL     1     -21.459  29.860  19.846  0.00  0.00    +0.000 C 
ATOM      5  C   UNL     1     -22.929  30.034  19.611  0.00  0.00    +0.000 C 
ENDROOT
BRANCH   4   6
ATOM      6  C   UNL     1     -20.967  29.765  21.168  0.00  0.00    +0.000 C 
ATOM      7  C   UNL     1     -20.550  29.687  22.292  0.00  0.00    +0.000 C 
BRANCH   7  10
ATOM      8  O   UNL     1     -20.383  30.424  24.478  0.00  0.00    +0.000 OA
ATOM      9  N   UNL     1     -19.226  28.536  23.903  0.00  0.00    +0.000 N 
ATOM     10  C   UNL     1     -20.056  29.590  23.641  0.00  0.00    +0.000 C 
ATOM     11  H   UNL     1     -18.940  27.843  23.222  0.00  0.00    +0.000 HD
BRANCH   9  12
ATOM     12  O   UNL     1     -18.716  28.416  25.213  0.00  0.00    +0.000 OA
ATOM     13  H   UNL     1     -19.482  28.672  25.770  0.00  0.00    +0.000 HD
ENDBRANCH   9  12
ENDBRANCH   7  10
ENDBRANCH   4   6
BRANCH   1  15
ATOM     14  O   UNL     1     -20.152  27.218  16.641  0.00  0.00    +0.000 OA
ATOM     15  C   UNL     1     -19.516  27.857  17.480  0.00  0.00    +0.000 C 
BRANCH  15  16
ATOM     16  C   UNL     1     -18.418  27.183  18.203  0.00  0.00    +0.000 A 
ATOM     17  C   UNL     1     -16.223  25.887  19.431  0.00  0.00    +0.000 A 
ATOM     18  C   UNL     1     -17.723  27.810  19.232  0.00  0.00    +0.000 A 
ATOM     19  C   UNL     1     -18.010  25.927  17.762  0.00  0.00    +0.000 A 
ATOM     20  C   UNL     1     -16.649  27.161  19.841  0.00  0.00    +0.000 A 
ATOM     21  C   UNL     1     -16.935  25.288  18.380  0.00  0.00    +0.000 A 
BRANCH  17  22
ATOM     22  N   UNL     1     -15.142  25.226  20.066  0.00  0.00    +0.000 N 
ATOM     23  C   UNL     1     -14.236  24.378  19.310  0.00  0.00    +0.000 C 
ATOM     24  C   UNL     1     -15.140  25.005  21.503  0.00  0.00    +0.000 C 
ENDBRANCH  17  22
ENDBRANCH  15  16
ENDBRANCH   1  15
TORSDOF 6
ENDMDL
MODEL 5
REMARK VINA RESULT:      -5.4     25.284     26.657
REMARK  Name = Trichostatin_A.pdbqt.pdb
REMARK  6 active torsions:
REMARK  status: ('A' for Active; 'I' for Inactive)
REMARK    1  A    between atoms: C_1  and  C_15
REMARK    2  A    between atoms: C_4  and  C_6
REMARK    3  A    between atoms: C_7  and  C_10
REMARK    4  A    between atoms: N_9  and  O_12
REMARK    5  A    between atoms: C_15  and  C_16
REMARK    6  A    between atoms: C_17  and  N_22
REMARK                            x       y       z     vdW  Elec       q    Type
REMARK                         _______ _______ _______ _____ _____    ______ ____
ROOT
ATOM      1  C   UNL     1     -16.409  40.131   4.635  0.00  0.00    +0.000 C 
ATOM      2  C   UNL     1     -16.610  40.026   3.136  0.00  0.00    +0.000 C 
ATOM      3  C   UNL     1     -16.051  38.931   5.296  0.00  0.00    +0.000 C 
ATOM      4  C   UNL     1     -15.729  37.863   5.948  0.00  0.00    +0.000 C 
ATOM      5  C   UNL     1     -14.289  37.599   6.265  0.00  0.00    +0.000 C 
ENDROOT
BRANCH   4   6
ATOM      6  C   UNL     1     -16.734  37.057   6.529  0.00  0.00    +0.000 C 
ATOM      7  C   UNL     1     -17.590  36.374   7.026  0.00  0.00    +0.000 C 
BRANCH   7  10
ATOM      8  O   UNL     1     -19.789  35.914   7.569  0.00  0.00    +0.000 OA
ATOM      9  N   UNL     1     -18.201  34.397   8.205  0.00  0.00    +0.000 N 
ATOM     10  C   UNL     1     -18.618  35.557   7.614  0.00  0.00    +0.000 C 
ATOM     11  H   UNL     1     -17.236  34.090   8.257  0.00  0.00    +0.000 HD
BRANCH   9  12
ATOM     12  O   UNL     1     -19.181  33.576   8.800  0.00  0.00    +0.000 OA
ATOM     13  H   UNL     1     -18.671  32.779   9.060  0.00  0.00    +0.000 HD
ENDBRANCH   9  12
ENDBRANCH   7  10
ENDBRANCH   4   6
BRANCH   1  15
ATOM     14  O   UNL     1     -16.124  41.725   6.372  0.00  0.00    +0.000 OA
ATOM     15  C   UNL     1     -16.821  41.319   5.442  0.00  0.00    +0.000 C 
BRANCH  15  16
ATOM     16  C   UNL     1     -18.074  42.035   5.128  0.00  0.00    +0.000 A 
ATOM     17  C   UNL     1     -20.424  43.406   4.349  0.00  0.00    +0.000 A 
ATOM     18  C   UNL     1     -19.323  41.465   5.353  0.00  0.00    +0.000 A 
ATOM     19  C   UNL     1     -17.986  43.270   4.491  0.00  0.00    +0.000 A 
ATOM     20  C   UNL     1     -20.478  42.152   4.977  0.00  0.00    +0.000 A 
ATOM     21  C   UNL     1     -19.148  43.948   4.121  0.00  0.00    +0.000 A 
BRANCH  17  22
ATOM     22  N   UNL     1     -21.602  44.106   3.986  0.00  0.00    +0.000 N 
ATOM     23  C   UNL     1     -21.667  45.556   4.072  0.00  0.00    +0.000 C 
ATOM     24  C   UNL     1     -22.889  43.432   3.940  0.00  0.00    +0.000 C 
ENDBRANCH  17  22
ENDBRANCH  15  16
ENDBRANCH   1  15
TORSDOF 6
ENDMDL
MODEL 6
REMARK VINA RESULT:      -5.3     12.265     14.647
REMARK  Name = Trichostatin_A.pdbqt.pdb
REMARK  6 active torsions:
REMARK  status: ('A' for Active; 'I' for Inactive)
REMARK    1  A    between atoms: C_1  and  C_15
REMARK    2  A    between atoms: C_4  and  C_6
REMARK    3  A    between atoms: C_7  and  C_10
REMARK    4  A    between atoms: N_9  and  O_12
REMARK    5  A    between atoms: C_15  and  C_16
REMARK    6  A    between atoms: C_17  and  N_22
REMARK                            x       y       z     vdW  Elec       q    Type
REMARK                         _______ _______ _______ _____ _____    ______ ____
ROOT
ATOM      1  C   UNL     1       1.418  57.236  20.425  0.00  0.00    +0.000 C 
ATOM      2  C   UNL     1       0.956  58.608  19.976  0.00  0.00    +0.000 C 
ATOM      3  C   UNL     1       2.534  56.704  19.735  0.00  0.00    +0.000 C 
ATOM      4  C   UNL     1       3.544  56.169  19.133  0.00  0.00    +0.000 C 
ATOM      5  C   UNL     1       4.910  56.290  19.737  0.00  0.00    +0.000 C 
ENDROOT
BRANCH   4   6
ATOM      6  C   UNL     1       3.340  55.312  18.027  0.00  0.00    +0.000 C 
ATOM      7  C   UNL     1       3.169  54.586  17.085  0.00  0.00    +0.000 C 
BRANCH   7  10
ATOM      8  O   UNL     1       2.506  52.586  16.132  0.00  0.00    +0.000 OA
ATOM      9  N   UNL     1       3.316  54.209  14.738  0.00  0.00    +0.000 N 
ATOM     10  C   UNL     1       2.966  53.710  15.962  0.00  0.00    +0.000 C 
ATOM     11  H   UNL     1       3.704  55.131  14.580  0.00  0.00    +0.000 HD
BRANCH   9  12
ATOM     12  O   UNL     1       3.139  53.373  13.615  0.00  0.00    +0.000 OA
ATOM     13  H   UNL     1       2.176  53.184  13.633  0.00  0.00    +0.000 HD
ENDBRANCH   9  12
ENDBRANCH   7  10
ENDBRANCH   4   6
BRANCH   1  15
ATOM     14  O   UNL     1      -0.340  55.710  20.897  0.00  0.00    +0.000 OA
ATOM     15  C   UNL     1       0.621  56.350  21.326  0.00  0.00    +0.000 C 
BRANCH  15  16
ATOM     16  C   UNL     1       0.984  56.216  22.751  0.00  0.00    +0.000 A 
ATOM     17  C   UNL     1       1.663  55.779  25.463  0.00  0.00    +0.000 A 
ATOM     18  C   UNL     1       2.226  56.617  23.234  0.00  0.00    +0.000 A 
ATOM     19  C   UNL     1       0.089  55.573  23.603  0.00  0.00    +0.000 A 
ATOM     20  C   UNL     1       2.549  56.409  24.575  0.00  0.00    +0.000 A 
ATOM     21  C   UNL     1       0.424  55.372  24.942  0.00  0.00    +0.000 A 
BRANCH  17  22
ATOM     22  N   UNL     1       1.992  55.587  26.829  0.00  0.00    +0.000 N 
ATOM     23  C   UNL     1       2.301  54.264  27.345  0.00  0.00    +0.000 C 
ATOM     24  C   UNL     1       1.622  56.571  27.834  0.00  0.00    +0.000 C 
ENDBRANCH  17  22
ENDBRANCH  15  16
ENDBRANCH   1  15
TORSDOF 6
ENDMDL
MODEL 7
REMARK VINA RESULT:      -5.1     21.859     23.502
REMARK  Name = Trichostatin_A.pdbqt.pdb
REMARK  6 active torsions:
REMARK  status: ('A' for Active; 'I' for Inactive)
REMARK    1  A    between atoms: C_1  and  C_15
REMARK    2  A    between atoms: C_4  and  C_6
REMARK    3  A    between atoms: C_7  and  C_10
REMARK    4  A    between atoms: N_9  and  O_12
REMARK    5  A    between atoms: C_15  and  C_16
REMARK    6  A    between atoms: C_17  and  N_22
REMARK                            x       y       z     vdW  Elec       q    Type
REMARK                         _______ _______ _______ _____ _____    ______ ____
ROOT
ATOM      1  C   UNL     1     -25.515  43.786  20.590  0.00  0.00    +0.000 C 
ATOM      2  C   UNL     1     -25.150  45.102  21.247  0.00  0.00    +0.000 C 
ATOM      3  C   UNL     1     -26.637  43.114  21.133  0.00  0.00    +0.000 C 
ATOM      4  C   UNL     1     -27.649  42.458  21.595  0.00  0.00    +0.000 C 
ATOM      5  C   UNL     1     -28.985  42.600  20.932  0.00  0.00    +0.000 C 
ENDROOT
BRANCH   4   6
ATOM      6  C   UNL     1     -27.460  41.466  22.586  0.00  0.00    +0.000 C 
ATOM      7  C   UNL     1     -27.303  40.623  23.428  0.00  0.00    +0.000 C 
BRANCH   7  10
ATOM      8  O   UNL     1     -27.650  39.716  25.526  0.00  0.00    +0.000 OA
ATOM      9  N   UNL     1     -26.309  38.560  24.080  0.00  0.00    +0.000 N 
ATOM     10  C   UNL     1     -27.111  39.609  24.430  0.00  0.00    +0.000 C 
ATOM     11  H   UNL     1     -25.849  38.459  23.182  0.00  0.00    +0.000 HD
BRANCH   9  12
ATOM     12  O   UNL     1     -26.091  37.552  25.042  0.00  0.00    +0.000 OA
ATOM     13  H   UNL     1     -25.269  37.120  24.724  0.00  0.00    +0.000 HD
ENDBRANCH   9  12
ENDBRANCH   7  10
ENDBRANCH   4   6
BRANCH   1  15
ATOM     14  O   UNL     1     -23.918  43.690  18.834  0.00  0.00    +0.000 OA
ATOM     15  C   UNL     1     -24.626  43.068  19.627  0.00  0.00    +0.000 C 
BRANCH  15  16
ATOM     16  C   UNL     1     -24.572  41.592  19.620  0.00  0.00    +0.000 A 
ATOM     17  C   UNL     1     -24.579  38.766  19.754  0.00  0.00    +0.000 A 
ATOM     18  C   UNL     1     -25.070  40.843  18.559  0.00  0.00    +0.000 A 
ATOM     19  C   UNL     1     -24.104  40.944  20.760  0.00  0.00    +0.000 A 
ATOM     20  C   UNL     1     -25.059  39.450  18.626  0.00  0.00    +0.000 A 
ATOM     21  C   UNL     1     -24.098  39.549  20.815  0.00  0.00    +0.000 A 
BRANCH  17  22
ATOM     22  N   UNL     1     -24.555  37.350  19.808  0.00  0.00    +0.000 N 
ATOM     23  C   UNL     1     -23.591  36.588  19.031  0.00  0.00    +0.000 C 
ATOM     24  C   UNL     1     -25.713  36.597  20.263  0.00  0.00    +0.000 C 
ENDBRANCH  17  22
ENDBRANCH  15  16
ENDBRANCH   1  15
TORSDOF 6
ENDMDL
MODEL 8
REMARK VINA RESULT:      -5.0     12.436     14.183
REMARK  Name = Trichostatin_A.pdbqt.pdb
REMARK  6 active torsions:
REMARK  status: ('A' for Active; 'I' for Inactive)
REMARK    1  A    between atoms: C_1  and  C_15
REMARK    2  A    between atoms: C_4  and  C_6
REMARK    3  A    between atoms: C_7  and  C_10
REMARK    4  A    between atoms: N_9  and  O_12
REMARK    5  A    between atoms: C_15  and  C_16
REMARK    6  A    between atoms: C_17  and  N_22
REMARK                            x       y       z     vdW  Elec       q    Type
REMARK                         _______ _______ _______ _____ _____    ______ ____
ROOT
ATOM      1  C   UNL     1       1.495  57.151  20.534  0.00  0.00    +0.000 C 
ATOM      2  C   UNL     1       0.905  58.405  19.920  0.00  0.00    +0.000 C 
ATOM      3  C   UNL     1       2.849  56.887  20.218  0.00  0.00    +0.000 C 
ATOM      4  C   UNL     1       4.081  56.596  19.956  0.00  0.00    +0.000 C 
ATOM      5  C   UNL     1       5.154  56.988  20.925  0.00  0.00    +0.000 C 
ENDROOT
BRANCH   4   6
ATOM      6  C   UNL     1       4.393  55.745  18.870  0.00  0.00    +0.000 C 
ATOM      7  C   UNL     1       4.658  55.025  17.946  0.00  0.00    +0.000 C 
BRANCH   7  10
ATOM      8  O   UNL     1       4.257  54.125  15.854  0.00  0.00    +0.000 OA
ATOM      9  N   UNL     1       6.119  53.414  16.975  0.00  0.00    +0.000 N 
ATOM     10  C   UNL     1       4.983  54.162  16.841  0.00  0.00    +0.000 C 
ATOM     11  H   UNL     1       6.726  53.427  17.786  0.00  0.00    +0.000 HD
BRANCH   9  12
ATOM     12  O   UNL     1       6.462  52.549  15.914  0.00  0.00    +0.000 OA
ATOM     13  H   UNL     1       6.620  51.695  16.371  0.00  0.00    +0.000 HD
ENDBRANCH   9  12
ENDBRANCH   7  10
ENDBRANCH   4   6
BRANCH   1  15
ATOM     14  O   UNL     1       0.257  55.124  20.561  0.00  0.00    +0.000 OA
ATOM     15  C   UNL     1       0.676  56.092  21.197  0.00  0.00    +0.000 C 
BRANCH  15  16
ATOM     16  C   UNL     1       0.364  56.183  22.637  0.00  0.00    +0.000 A 
ATOM     17  C   UNL     1      -0.122  56.505  25.407  0.00  0.00    +0.000 A 
ATOM     18  C   UNL     1      -0.925  56.430  23.097  0.00  0.00    +0.000 A 
ATOM     19  C   UNL     1       1.419  56.124  23.545  0.00  0.00    +0.000 A 
ATOM     20  C   UNL     1      -1.160  56.576  24.464  0.00  0.00    +0.000 A 
ATOM     21  C   UNL     1       1.171  56.270  24.911  0.00  0.00    +0.000 A 
BRANCH  17  22
ATOM     22  N   UNL     1      -0.371  56.636  26.796  0.00  0.00    +0.000 N 
ATOM     23  C   UNL     1       0.719  56.857  27.733  0.00  0.00    +0.000 C 
ATOM     24  C   UNL     1      -1.602  56.137  27.387  0.00  0.00    +0.000 C 
ENDBRANCH  17  22
ENDBRANCH  15  16
ENDBRANCH   1  15
TORSDOF 6
ENDMDL
MODEL 9
REMARK VINA RESULT:      -4.9      9.614     13.619
REMARK  Name = Trichostatin_A.pdbqt.pdb
REMARK  6 active torsions:
REMARK  status: ('A' for Active; 'I' for Inactive)
REMARK    1  A    between atoms: C_1  and  C_15
REMARK    2  A    between atoms: C_4  and  C_6
REMARK    3  A    between atoms: C_7  and  C_10
REMARK    4  A    between atoms: N_9  and  O_12
REMARK    5  A    between atoms: C_15  and  C_16
REMARK    6  A    between atoms: C_17  and  N_22
REMARK                            x       y       z     vdW  Elec       q    Type
REMARK                         _______ _______ _______ _____ _____    ______ ____
ROOT
ATOM      1  C   UNL     1      -3.211  36.986  35.229  0.00  0.00    +0.000 C 
ATOM      2  C   UNL     1      -2.198  35.950  34.785  0.00  0.00    +0.000 C 
ATOM      3  C   UNL     1      -4.081  36.592  36.274  0.00  0.00    +0.000 C 
ATOM      4  C   UNL     1      -4.903  36.280  37.221  0.00  0.00    +0.000 C 
ATOM      5  C   UNL     1      -4.595  36.688  38.629  0.00  0.00    +0.000 C 
ENDROOT
BRANCH   4   6
ATOM      6  C   UNL     1      -6.172  35.739  36.909  0.00  0.00    +0.000 C 
ATOM      7  C   UNL     1      -7.252  35.282  36.645  0.00  0.00    +0.000 C 
BRANCH   7  10
ATOM      8  O   UNL     1      -9.563  35.318  36.667  0.00  0.00    +0.000 OA
ATOM      9  N   UNL     1      -8.539  33.557  35.628  0.00  0.00    +0.000 N 
ATOM     10  C   UNL     1      -8.542  34.734  36.322  0.00  0.00    +0.000 C 
ATOM     11  H   UNL     1      -7.706  33.058  35.341  0.00  0.00    +0.000 HD
BRANCH   9  12
ATOM     12  O   UNL     1      -9.788  32.986  35.302  0.00  0.00    +0.000 OA
ATOM     13  H   UNL     1      -9.911  33.250  34.365  0.00  0.00    +0.000 HD
ENDBRANCH   9  12
ENDBRANCH   7  10
ENDBRANCH   4   6
BRANCH   1  15
ATOM     14  O   UNL     1      -4.628  38.468  34.030  0.00  0.00    +0.000 OA
ATOM     15  C   UNL     1      -3.500  38.238  34.467  0.00  0.00    +0.000 C 
BRANCH  15  16
ATOM     16  C   UNL     1      -2.432  39.233  34.235  0.00  0.00    +0.000 A 
ATOM     17  C   UNL     1      -0.441  41.145  33.614  0.00  0.00    +0.000 A 
ATOM     18  C   UNL     1      -2.434  40.473  34.865  0.00  0.00    +0.000 A 
ATOM     19  C   UNL     1      -1.463  38.948  33.277  0.00  0.00    +0.000 A 
ATOM     20  C   UNL     1      -1.442  41.407  34.563  0.00  0.00    +0.000 A 
ATOM     21  C   UNL     1      -0.475  39.890  32.985  0.00  0.00    +0.000 A 
BRANCH  17  22
ATOM     22  N   UNL     1       0.574  42.091  33.327  0.00  0.00    +0.000 N 
ATOM     23  C   UNL     1       0.508  42.919  32.133  0.00  0.00    +0.000 C 
ATOM     24  C   UNL     1       1.893  41.983  33.930  0.00  0.00    +0.000 C 
ENDBRANCH  17  22
ENDBRANCH  15  16
ENDBRANCH   1  15
TORSDOF 6
ENDMDL
