MODEL 1
REMARK VINA RESULT:      -5.8      0.000      0.000
REMARK  Name = Trifluridine.pdbqt.pdb
REMARK  5 active torsions:
REMARK  status: ('A' for Active; 'I' for Inactive)
REMARK    1  A    between atoms: N_3  and  C1*_10
REMARK    2  A    between atoms: C_7  and  C_20
REMARK    3  A    between atoms: C4*_12  and  C5*_15
REMARK    4  A    between atoms: C3*_13  and  O3*_18
REMARK    5  A    between atoms: C5*_15  and  O5*_16
REMARK                            x       y       z     vdW  Elec       q    Type
REMARK                         _______ _______ _______ _____ _____    ______ ____
ROOT
ATOM      1  O   UNL     1      -1.895  48.479  29.214  0.00  0.00    +0.000 OA
ATOM      2  O   UNL     1      -5.334  48.086  26.201  0.00  0.00    +0.000 OA
ATOM      3  N   UNL     1      -2.324  46.342  28.286  0.00  0.00    +0.000 N 
ATOM      4  N   UNL     1      -3.597  48.221  27.695  0.00  0.00    +0.000 N 
ATOM      5  C   UNL     1      -3.150  45.722  27.421  0.00  0.00    +0.000 A 
ATOM      6  C   UNL     1      -2.525  47.729  28.478  0.00  0.00    +0.000 A 
ATOM      7  C   UNL     1      -4.143  46.078  26.676  0.00  0.00    +0.000 A 
ATOM      8  C   UNL     1      -4.433  47.527  26.811  0.00  0.00    +0.000 A 
ATOM      9  H   UNL     1      -3.783  49.208  27.798  0.00  0.00    +0.000 HD
ENDROOT
BRANCH   3  10
ATOM     10  C1* UNL     1      -1.360  45.615  28.924  0.00  0.00    +0.000 A 
ATOM     11  O4* UNL     1      -0.071  45.469  28.400  0.00  0.00    +0.000 OA
ATOM     12  C4* UNL     1       0.639  44.649  29.287  0.00  0.00    +0.000 A 
ATOM     13  C3* UNL     1      -0.223  44.283  30.383  0.00  0.00    +0.000 A 
ATOM     14  C2* UNL     1      -1.466  44.890  30.127  0.00  0.00    +0.000 A 
BRANCH  13  15
ATOM     15  O3* UNL     1      -0.072  43.089  31.028  0.00  0.00    +0.000 OA
ATOM     16  H3* UNL     1      -0.935  42.707  31.263  0.00  0.00    +0.000 HD
ENDBRANCH  13  15
BRANCH  12  17
ATOM     17  C5* UNL     1       1.906  44.119  28.976  0.00  0.00    +0.000 C 
BRANCH  17  18
ATOM     18  O5* UNL     1       3.103  43.618  28.688  0.00  0.00    +0.000 OA
ATOM     19  H5* UNL     1       3.604  44.240  28.135  0.00  0.00    +0.000 HD
ENDBRANCH  17  18
ENDBRANCH  12  17
ENDBRANCH   3  10
BRANCH   7  20
ATOM     20  C   UNL     1      -4.991  45.276  25.783  0.00  0.00    +0.000 C 
ATOM     21  F   UNL     1      -4.935  45.697  24.495  0.00  0.00    +0.000 F 
ATOM     22  F   UNL     1      -4.610  43.969  25.768  0.00  0.00    +0.000 F 
ATOM     23  F   UNL     1      -6.294  45.283  26.159  0.00  0.00    +0.000 F 
ENDBRANCH   7  20
TORSDOF 5
ENDMDL
MODEL 2
REMARK VINA RESULT:      -5.6      4.127      8.133
REMARK  Name = Trifluridine.pdbqt.pdb
REMARK  5 active torsions:
REMARK  status: ('A' for Active; 'I' for Inactive)
REMARK    1  A    between atoms: N_3  and  C1*_10
REMARK    2  A    between atoms: C_7  and  C_20
REMARK    3  A    between atoms: C4*_12  and  C5*_15
REMARK    4  A    between atoms: C3*_13  and  O3*_18
REMARK    5  A    between atoms: C5*_15  and  O5*_16
REMARK                            x       y       z     vdW  Elec       q    Type
REMARK                         _______ _______ _______ _____ _____    ______ ____
ROOT
ATOM      1  O   UNL     1      -7.424  47.225  29.248  0.00  0.00    +0.000 OA
ATOM      2  O   UNL     1      -3.512  45.154  28.038  0.00  0.00    +0.000 OA
ATOM      3  N   UNL     1      -7.143  46.616  26.977  0.00  0.00    +0.000 N 
ATOM      4  N   UNL     1      -5.492  46.178  28.583  0.00  0.00    +0.000 N 
ATOM      5  C   UNL     1      -6.254  46.028  26.151  0.00  0.00    +0.000 A 
ATOM      6  C   UNL     1      -6.773  46.727  28.337  0.00  0.00    +0.000 A 
ATOM      7  C   UNL     1      -5.078  45.509  26.279  0.00  0.00    +0.000 A 
ATOM      8  C   UNL     1      -4.601  45.581  27.683  0.00  0.00    +0.000 A 
ATOM      9  H   UNL     1      -5.180  46.234  29.543  0.00  0.00    +0.000 HD
ENDROOT
BRANCH   3  10
ATOM     10  C1* UNL     1      -8.325  47.071  26.467  0.00  0.00    +0.000 A 
ATOM     11  O4* UNL     1      -9.442  47.307  27.277  0.00  0.00    +0.000 OA
ATOM     12  C4* UNL     1     -10.474  47.735  26.433  0.00  0.00    +0.000 A 
ATOM     13  C3* UNL     1      -9.990  47.767  25.075  0.00  0.00    +0.000 A 
ATOM     14  C2* UNL     1      -8.651  47.340  25.123  0.00  0.00    +0.000 A 
BRANCH  13  15
ATOM     15  O3* UNL     1     -10.831  47.538  24.023  0.00  0.00    +0.000 OA
ATOM     16  H3* UNL     1     -11.165  48.375  23.655  0.00  0.00    +0.000 HD
ENDBRANCH  13  15
BRANCH  12  17
ATOM     17  C5* UNL     1     -11.805  47.865  26.874  0.00  0.00    +0.000 C 
BRANCH  17  18
ATOM     18  O5* UNL     1     -13.061  47.993  27.292  0.00  0.00    +0.000 OA
ATOM     19  H5* UNL     1     -13.133  47.727  28.224  0.00  0.00    +0.000 HD
ENDBRANCH  17  18
ENDBRANCH  12  17
ENDBRANCH   3  10
BRANCH   7  20
ATOM     20  C   UNL     1      -4.192  44.916  25.269  0.00  0.00    +0.000 C 
ATOM     21  F   UNL     1      -4.165  43.561  25.331  0.00  0.00    +0.000 F 
ATOM     22  F   UNL     1      -4.591  45.227  24.005  0.00  0.00    +0.000 F 
ATOM     23  F   UNL     1      -2.913  45.354  25.378  0.00  0.00    +0.000 F 
ENDBRANCH   7  20
TORSDOF 5
ENDMDL
MODEL 3
REMARK VINA RESULT:      -5.5     26.855     28.071
REMARK  Name = Trifluridine.pdbqt.pdb
REMARK  5 active torsions:
REMARK  status: ('A' for Active; 'I' for Inactive)
REMARK    1  A    between atoms: N_3  and  C1*_10
REMARK    2  A    between atoms: C_7  and  C_20
REMARK    3  A    between atoms: C4*_12  and  C5*_15
REMARK    4  A    between atoms: C3*_13  and  O3*_18
REMARK    5  A    between atoms: C5*_15  and  O5*_16
REMARK                            x       y       z     vdW  Elec       q    Type
REMARK                         _______ _______ _______ _____ _____    ______ ____
ROOT
ATOM      1  O   UNL     1     -17.909  37.723   3.296  0.00  0.00    +0.000 OA
ATOM      2  O   UNL     1     -15.565  41.658   3.011  0.00  0.00    +0.000 OA
ATOM      3  N   UNL     1     -17.586  38.973   5.281  0.00  0.00    +0.000 N 
ATOM      4  N   UNL     1     -16.752  39.704   3.215  0.00  0.00    +0.000 N 
ATOM      5  C   UNL     1     -17.015  40.111   5.722  0.00  0.00    +0.000 A 
ATOM      6  C   UNL     1     -17.471  38.696   3.900  0.00  0.00    +0.000 A 
ATOM      7  C   UNL     1     -16.345  41.077   5.185  0.00  0.00    +0.000 A 
ATOM      8  C   UNL     1     -16.171  40.872   3.726  0.00  0.00    +0.000 A 
ATOM      9  H   UNL     1     -16.640  39.552   2.223  0.00  0.00    +0.000 HD
ENDROOT
BRANCH   3  10
ATOM     10  C1* UNL     1     -18.225  38.160   6.173  0.00  0.00    +0.000 A 
ATOM     11  O4* UNL     1     -17.676  36.945   6.597  0.00  0.00    +0.000 OA
ATOM     12  C4* UNL     1     -18.599  36.366   7.478  0.00  0.00    +0.000 A 
ATOM     13  C3* UNL     1     -19.739  37.239   7.605  0.00  0.00    +0.000 A 
ATOM     14  C2* UNL     1     -19.485  38.345   6.775  0.00  0.00    +0.000 A 
BRANCH  13  15
ATOM     15  O3* UNL     1     -20.985  36.736   7.853  0.00  0.00    +0.000 OA
ATOM     16  H3* UNL     1     -21.342  36.286   7.068  0.00  0.00    +0.000 HD
ENDBRANCH  13  15
BRANCH  12  17
ATOM     17  C5* UNL     1     -18.474  35.042   7.940  0.00  0.00    +0.000 C 
BRANCH  17  18
ATOM     18  O5* UNL     1     -18.352  33.791   8.373  0.00  0.00    +0.000 OA
ATOM     19  H5* UNL     1     -18.530  33.747   9.327  0.00  0.00    +0.000 HD
ENDBRANCH  17  18
ENDBRANCH  12  17
ENDBRANCH   3  10
BRANCH   7  20
ATOM     20  C   UNL     1     -15.745  42.268   5.801  0.00  0.00    +0.000 C 
ATOM     21  F   UNL     1     -16.351  43.417   5.410  0.00  0.00    +0.000 F 
ATOM     22  F   UNL     1     -15.841  42.235   7.159  0.00  0.00    +0.000 F 
ATOM     23  F   UNL     1     -14.424  42.388   5.520  0.00  0.00    +0.000 F 
ENDBRANCH   7  20
TORSDOF 5
ENDMDL
MODEL 4
REMARK VINA RESULT:      -5.4     26.602     27.666
REMARK  Name = Trifluridine.pdbqt.pdb
REMARK  5 active torsions:
REMARK  status: ('A' for Active; 'I' for Inactive)
REMARK    1  A    between atoms: N_3  and  C1*_10
REMARK    2  A    between atoms: C_7  and  C_20
REMARK    3  A    between atoms: C4*_12  and  C5*_15
REMARK    4  A    between atoms: C3*_13  and  O3*_18
REMARK    5  A    between atoms: C5*_15  and  O5*_16
REMARK                            x       y       z     vdW  Elec       q    Type
REMARK                         _______ _______ _______ _____ _____    ______ ____
ROOT
ATOM      1  O   UNL     1     -14.857  37.467   6.517  0.00  0.00    +0.000 OA
ATOM      2  O   UNL     1     -14.696  41.721   4.803  0.00  0.00    +0.000 OA
ATOM      3  N   UNL     1     -16.892  38.661   6.308  0.00  0.00    +0.000 N 
ATOM      4  N   UNL     1     -14.842  39.596   5.658  0.00  0.00    +0.000 N 
ATOM      5  C   UNL     1     -17.371  39.851   5.896  0.00  0.00    +0.000 A 
ATOM      6  C   UNL     1     -15.496  38.464   6.200  0.00  0.00    +0.000 A 
ATOM      7  C   UNL     1     -16.862  40.930   5.400  0.00  0.00    +0.000 A 
ATOM      8  C   UNL     1     -15.390  40.818   5.249  0.00  0.00    +0.000 A 
ATOM      9  H   UNL     1     -13.840  39.506   5.562  0.00  0.00    +0.000 HD
ENDROOT
BRANCH   3  10
ATOM     10  C1* UNL     1     -17.759  37.730   6.805  0.00  0.00    +0.000 A 
ATOM     11  O4* UNL     1     -17.319  36.503   7.314  0.00  0.00    +0.000 OA
ATOM     12  C4* UNL     1     -18.461  35.793   7.706  0.00  0.00    +0.000 A 
ATOM     13  C3* UNL     1     -19.629  36.594   7.439  0.00  0.00    +0.000 A 
ATOM     14  C2* UNL     1     -19.164  37.793   6.869  0.00  0.00    +0.000 A 
BRANCH  13  15
ATOM     15  O3* UNL     1     -20.826  36.012   7.131  0.00  0.00    +0.000 OA
ATOM     16  H3* UNL     1     -21.006  35.254   7.714  0.00  0.00    +0.000 HD
ENDBRANCH  13  15
BRANCH  12  17
ATOM     17  C5* UNL     1     -18.417  34.434   8.072  0.00  0.00    +0.000 C 
BRANCH  17  18
ATOM     18  O5* UNL     1     -18.372  33.152   8.423  0.00  0.00    +0.000 OA
ATOM     19  H5* UNL     1     -19.182  32.698   8.137  0.00  0.00    +0.000 HD
ENDBRANCH  17  18
ENDBRANCH  12  17
ENDBRANCH   3  10
BRANCH   7  20
ATOM     20  C   UNL     1     -17.511  42.191   5.013  0.00  0.00    +0.000 C 
ATOM     21  F   UNL     1     -17.374  42.462   3.691  0.00  0.00    +0.000 F 
ATOM     22  F   UNL     1     -18.850  42.161   5.255  0.00  0.00    +0.000 F 
ATOM     23  F   UNL     1     -17.028  43.256   5.700  0.00  0.00    +0.000 F 
ENDBRANCH   7  20
TORSDOF 5
ENDMDL
MODEL 5
REMARK VINA RESULT:      -5.4     19.309     20.772
REMARK  Name = Trifluridine.pdbqt.pdb
REMARK  5 active torsions:
REMARK  status: ('A' for Active; 'I' for Inactive)
REMARK    1  A    between atoms: N_3  and  C1*_10
REMARK    2  A    between atoms: C_7  and  C_20
REMARK    3  A    between atoms: C4*_12  and  C5*_15
REMARK    4  A    between atoms: C3*_13  and  O3*_18
REMARK    5  A    between atoms: C5*_15  and  O5*_16
REMARK                            x       y       z     vdW  Elec       q    Type
REMARK                         _______ _______ _______ _____ _____    ______ ____
ROOT
ATOM      1  O   UNL     1      -2.216  26.876  22.565  0.00  0.00    +0.000 OA
ATOM      2  O   UNL     1       1.262  28.802  20.272  0.00  0.00    +0.000 OA
ATOM      3  N   UNL     1      -2.550  27.417  20.283  0.00  0.00    +0.000 N 
ATOM      4  N   UNL     1      -0.510  27.834  21.363  0.00  0.00    +0.000 N 
ATOM      5  C   UNL     1      -1.907  27.956  19.229  0.00  0.00    +0.000 A 
ATOM      6  C   UNL     1      -1.825  27.325  21.494  0.00  0.00    +0.000 A 
ATOM      7  C   UNL     1      -0.730  28.444  19.016  0.00  0.00    +0.000 A 
ATOM      8  C   UNL     1       0.111  28.391  20.238  0.00  0.00    +0.000 A 
ATOM      9  H   UNL     1       0.050  27.792  22.202  0.00  0.00    +0.000 HD
ENDROOT
BRANCH   3  10
ATOM     10  C1* UNL     1      -3.843  27.005  20.135  0.00  0.00    +0.000 A 
ATOM     11  O4* UNL     1      -4.374  26.658  18.887  0.00  0.00    +0.000 OA
ATOM     12  C4* UNL     1      -5.715  26.313  19.096  0.00  0.00    +0.000 A 
ATOM     13  C3* UNL     1      -6.022  26.446  20.498  0.00  0.00    +0.000 A 
ATOM     14  C2* UNL     1      -4.841  26.887  21.122  0.00  0.00    +0.000 A 
BRANCH  13  15
ATOM     15  O3* UNL     1      -7.280  26.780  20.914  0.00  0.00    +0.000 OA
ATOM     16  H3* UNL     1      -7.263  27.154  21.812  0.00  0.00    +0.000 HD
ENDBRANCH  13  15
BRANCH  12  17
ATOM     17  C5* UNL     1      -6.618  26.111  18.034  0.00  0.00    +0.000 C 
BRANCH  17  18
ATOM     18  O5* UNL     1      -7.469  25.925  17.031  0.00  0.00    +0.000 OA
ATOM     19  H5* UNL     1      -7.149  26.374  16.230  0.00  0.00    +0.000 HD
ENDBRANCH  17  18
ENDBRANCH  12  17
ENDBRANCH   3  10
BRANCH   7  20
ATOM     20  C   UNL     1      -0.157  29.035  17.798  0.00  0.00    +0.000 C 
ATOM     21  F   UNL     1       0.548  30.166  18.051  0.00  0.00    +0.000 F 
ATOM     22  F   UNL     1       0.707  28.181  17.184  0.00  0.00    +0.000 F 
ATOM     23  F   UNL     1      -1.103  29.341  16.875  0.00  0.00    +0.000 F 
ENDBRANCH   7  20
TORSDOF 5
ENDMDL
MODEL 6
REMARK VINA RESULT:      -5.2     26.587     27.860
REMARK  Name = Trifluridine.pdbqt.pdb
REMARK  5 active torsions:
REMARK  status: ('A' for Active; 'I' for Inactive)
REMARK    1  A    between atoms: N_3  and  C1*_10
REMARK    2  A    between atoms: C_7  and  C_20
REMARK    3  A    between atoms: C4*_12  and  C5*_15
REMARK    4  A    between atoms: C3*_13  and  O3*_18
REMARK    5  A    between atoms: C5*_15  and  O5*_16
REMARK                            x       y       z     vdW  Elec       q    Type
REMARK                         _______ _______ _______ _____ _____    ______ ____
ROOT
ATOM      1  O   UNL     1     -15.066  36.409   5.945  0.00  0.00    +0.000 OA
ATOM      2  O   UNL     1     -14.533  40.902   5.176  0.00  0.00    +0.000 OA
ATOM      3  N   UNL     1     -16.924  37.830   6.317  0.00  0.00    +0.000 N 
ATOM      4  N   UNL     1     -14.864  38.664   5.570  0.00  0.00    +0.000 N 
ATOM      5  C   UNL     1     -17.281  39.127   6.249  0.00  0.00    +0.000 A 
ATOM      6  C   UNL     1     -15.595  37.514   5.952  0.00  0.00    +0.000 A 
ATOM      7  C   UNL     1     -16.694  40.231   5.922  0.00  0.00    +0.000 A 
ATOM      8  C   UNL     1     -15.284  40.000   5.522  0.00  0.00    +0.000 A 
ATOM      9  H   UNL     1     -13.905  38.492   5.301  0.00  0.00    +0.000 HD
ENDROOT
BRANCH   3  10
ATOM     10  C1* UNL     1     -17.841  36.908   6.732  0.00  0.00    +0.000 A 
ATOM     11  O4* UNL     1     -19.217  37.158   6.690  0.00  0.00    +0.000 OA
ATOM     12  C4* UNL     1     -19.854  36.023   7.209  0.00  0.00    +0.000 A 
ATOM     13  C3* UNL     1     -18.856  35.051   7.577  0.00  0.00    +0.000 A 
ATOM     14  C2* UNL     1     -17.610  35.630   7.278  0.00  0.00    +0.000 A 
BRANCH  13  15
ATOM     15  O3* UNL     1     -19.069  34.180   8.608  0.00  0.00    +0.000 OA
ATOM     16  H3* UNL     1     -19.954  34.305   8.993  0.00  0.00    +0.000 HD
ENDBRANCH  13  15
BRANCH  12  17
ATOM     17  C5* UNL     1     -21.229  36.001   7.512  0.00  0.00    +0.000 C 
BRANCH  17  18
ATOM     18  O5* UNL     1     -22.527  35.984   7.800  0.00  0.00    +0.000 OA
ATOM     19  H5* UNL     1     -23.048  35.830   6.995  0.00  0.00    +0.000 HD
ENDBRANCH  17  18
ENDBRANCH  12  17
ENDBRANCH   3  10
BRANCH   7  20
ATOM     20  C   UNL     1     -17.205  41.609   5.919  0.00  0.00    +0.000 C 
ATOM     21  F   UNL     1     -16.529  42.416   6.774  0.00  0.00    +0.000 F 
ATOM     22  F   UNL     1     -17.092  42.184   4.690  0.00  0.00    +0.000 F 
ATOM     23  F   UNL     1     -18.519  41.677   6.247  0.00  0.00    +0.000 F 
ENDBRANCH   7  20
TORSDOF 5
ENDMDL
MODEL 7
REMARK VINA RESULT:      -4.9     22.142     23.060
REMARK  Name = Trifluridine.pdbqt.pdb
REMARK  5 active torsions:
REMARK  status: ('A' for Active; 'I' for Inactive)
REMARK    1  A    between atoms: N_3  and  C1*_10
REMARK    2  A    between atoms: C_7  and  C_20
REMARK    3  A    between atoms: C4*_12  and  C5*_15
REMARK    4  A    between atoms: C3*_13  and  O3*_18
REMARK    5  A    between atoms: C5*_15  and  O5*_16
REMARK                            x       y       z     vdW  Elec       q    Type
REMARK                         _______ _______ _______ _____ _____    ______ ____
ROOT
ATOM      1  O   UNL     1     -16.159  55.083  13.317  0.00  0.00    +0.000 OA
ATOM      2  O   UNL     1     -19.406  53.905  16.338  0.00  0.00    +0.000 OA
ATOM      3  N   UNL     1     -17.266  53.012  13.010  0.00  0.00    +0.000 N 
ATOM      4  N   UNL     1     -17.798  54.442  14.790  0.00  0.00    +0.000 N 
ATOM      5  C   UNL     1     -18.225  52.245  13.564  0.00  0.00    +0.000 A 
ATOM      6  C   UNL     1     -16.987  54.243  13.648  0.00  0.00    +0.000 A 
ATOM      7  C   UNL     1     -19.005  52.337  14.589  0.00  0.00    +0.000 A 
ATOM      8  C   UNL     1     -18.783  53.604  15.330  0.00  0.00    +0.000 A 
ATOM      9  H   UNL     1     -17.636  55.308  15.284  0.00  0.00    +0.000 HD
ENDROOT
BRANCH   3  10
ATOM     10  C1* UNL     1     -16.623  52.569  11.890  0.00  0.00    +0.000 A 
ATOM     11  O4* UNL     1     -16.717  53.239  10.665  0.00  0.00    +0.000 OA
ATOM     12  C4* UNL     1     -15.965  52.504   9.740  0.00  0.00    +0.000 A 
ATOM     13  C3* UNL     1     -15.391  51.360  10.402  0.00  0.00    +0.000 A 
ATOM     14  C2* UNL     1     -15.824  51.419  11.739  0.00  0.00    +0.000 A 
BRANCH  13  15
ATOM     15  O3* UNL     1     -15.157  50.198   9.723  0.00  0.00    +0.000 OA
ATOM     16  H3* UNL     1     -15.270  49.425  10.303  0.00  0.00    +0.000 HD
ENDBRANCH  13  15
BRANCH  12  17
ATOM     17  C5* UNL     1     -16.002  52.767   8.357  0.00  0.00    +0.000 C 
BRANCH  17  18
ATOM     18  O5* UNL     1     -16.040  53.011   7.050  0.00  0.00    +0.000 OA
ATOM     19  H5* UNL     1     -15.184  53.361   6.749  0.00  0.00    +0.000 HD
ENDBRANCH  17  18
ENDBRANCH  12  17
ENDBRANCH   3  10
BRANCH   7  20
ATOM     20  C   UNL     1     -20.007  51.393  15.104  0.00  0.00    +0.000 C 
ATOM     21  F   UNL     1     -19.671  50.888  16.317  0.00  0.00    +0.000 F 
ATOM     22  F   UNL     1     -21.220  51.989  15.267  0.00  0.00    +0.000 F 
ATOM     23  F   UNL     1     -20.212  50.345  14.268  0.00  0.00    +0.000 F 
ENDBRANCH   7  20
TORSDOF 5
ENDMDL
MODEL 8
REMARK VINA RESULT:      -4.8     23.332     24.308
REMARK  Name = Trifluridine.pdbqt.pdb
REMARK  5 active torsions:
REMARK  status: ('A' for Active; 'I' for Inactive)
REMARK    1  A    between atoms: N_3  and  C1*_10
REMARK    2  A    between atoms: C_7  and  C_20
REMARK    3  A    between atoms: C4*_12  and  C5*_15
REMARK    4  A    between atoms: C3*_13  and  O3*_18
REMARK    5  A    between atoms: C5*_15  and  O5*_16
REMARK                            x       y       z     vdW  Elec       q    Type
REMARK                         _______ _______ _______ _____ _____    ______ ____
ROOT
ATOM      1  O   UNL     1       9.179  45.490   3.992  0.00  0.00    +0.000 OA
ATOM      2  O   UNL     1       6.691  41.792   2.897  0.00  0.00    +0.000 OA
ATOM      3  N   UNL     1       7.807  44.535   5.669  0.00  0.00    +0.000 N 
ATOM      4  N   UNL     1       7.918  43.634   3.507  0.00  0.00    +0.000 N 
ATOM      5  C   UNL     1       6.942  43.520   5.863  0.00  0.00    +0.000 A 
ATOM      6  C   UNL     1       8.379  44.647   4.381  0.00  0.00    +0.000 A 
ATOM      7  C   UNL     1       6.462  42.564   5.139  0.00  0.00    +0.000 A 
ATOM      8  C   UNL     1       7.007  42.600   3.759  0.00  0.00    +0.000 A 
ATOM      9  H   UNL     1       8.297  43.671   2.571  0.00  0.00    +0.000 HD
ENDROOT
BRANCH   3  10
ATOM     10  C1* UNL     1       8.075  45.387   6.701  0.00  0.00    +0.000 A 
ATOM     11  O4* UNL     1       7.279  46.507   6.965  0.00  0.00    +0.000 OA
ATOM     12  C4* UNL     1       7.851  47.164   8.062  0.00  0.00    +0.000 A 
ATOM     13  C3* UNL     1       9.021  46.438   8.488  0.00  0.00    +0.000 A 
ATOM     14  C2* UNL     1       9.143  45.340   7.618  0.00  0.00    +0.000 A 
BRANCH  13  15
ATOM     15  O3* UNL     1      10.079  47.084   9.062  0.00  0.00    +0.000 OA
ATOM     16  H3* UNL     1      10.875  46.524   9.054  0.00  0.00    +0.000 HD
ENDBRANCH  13  15
BRANCH  12  17
ATOM     17  C5* UNL     1       7.436  48.445   8.477  0.00  0.00    +0.000 C 
BRANCH  17  18
ATOM     18  O5* UNL     1       7.045  49.655   8.863  0.00  0.00    +0.000 OA
ATOM     19  H5* UNL     1       7.016  49.705   9.833  0.00  0.00    +0.000 HD
ENDBRANCH  17  18
ENDBRANCH  12  17
ENDBRANCH   3  10
BRANCH   7  20
ATOM     20  C   UNL     1       5.484  41.521   5.477  0.00  0.00    +0.000 C 
ATOM     21  F   UNL     1       6.023  40.276   5.462  0.00  0.00    +0.000 F 
ATOM     22  F   UNL     1       4.974  41.696   6.727  0.00  0.00    +0.000 F 
ATOM     23  F   UNL     1       4.420  41.514   4.635  0.00  0.00    +0.000 F 
ENDBRANCH   7  20
TORSDOF 5
ENDMDL
MODEL 9
REMARK VINA RESULT:      -4.8     23.019     24.858
REMARK  Name = Trifluridine.pdbqt.pdb
REMARK  5 active torsions:
REMARK  status: ('A' for Active; 'I' for Inactive)
REMARK    1  A    between atoms: N_3  and  C1*_10
REMARK    2  A    between atoms: C_7  and  C_20
REMARK    3  A    between atoms: C4*_12  and  C5*_15
REMARK    4  A    between atoms: C3*_13  and  O3*_18
REMARK    5  A    between atoms: C5*_15  and  O5*_16
REMARK                            x       y       z     vdW  Elec       q    Type
REMARK                         _______ _______ _______ _____ _____    ______ ____
ROOT
ATOM      1  O   UNL     1     -26.261  41.758  21.253  0.00  0.00    +0.000 OA
ATOM      2  O   UNL     1     -25.375  37.268  20.913  0.00  0.00    +0.000 OA
ATOM      3  N   UNL     1     -24.907  41.024  19.454  0.00  0.00    +0.000 N 
ATOM      4  N   UNL     1     -25.789  39.523  21.024  0.00  0.00    +0.000 N 
ATOM      5  C   UNL     1     -24.381  39.900  18.928  0.00  0.00    +0.000 A 
ATOM      6  C   UNL     1     -25.697  40.876  20.617  0.00  0.00    +0.000 A 
ATOM      7  C   UNL     1     -24.405  38.643  19.225  0.00  0.00    +0.000 A 
ATOM      8  C   UNL     1     -25.215  38.386  20.442  0.00  0.00    +0.000 A 
ATOM      9  H   UNL     1     -26.343  39.364  21.854  0.00  0.00    +0.000 HD
ENDROOT
BRANCH   3  10
ATOM     10  C1* UNL     1     -24.650  42.223  18.853  0.00  0.00    +0.000 A 
ATOM     11  O4* UNL     1     -23.598  43.050  19.264  0.00  0.00    +0.000 OA
ATOM     12  C4* UNL     1     -23.642  44.195  18.459  0.00  0.00    +0.000 A 
ATOM     13  C3* UNL     1     -24.738  44.076  17.530  0.00  0.00    +0.000 A 
ATOM     14  C2* UNL     1     -25.355  42.842  17.803  0.00  0.00    +0.000 A 
BRANCH  13  15
ATOM     15  O3* UNL     1     -25.401  45.182  17.079  0.00  0.00    +0.000 OA
ATOM     16  H3* UNL     1     -26.364  45.065  17.152  0.00  0.00    +0.000 HD
ENDBRANCH  13  15
BRANCH  12  17
ATOM     17  C5* UNL     1     -22.862  45.337  18.727  0.00  0.00    +0.000 C 
BRANCH  17  18
ATOM     18  O5* UNL     1     -22.131  46.418  18.981  0.00  0.00    +0.000 OA
ATOM     19  H5* UNL     1     -22.620  47.220  18.732  0.00  0.00    +0.000 HD
ENDBRANCH  17  18
ENDBRANCH  12  17
ENDBRANCH   3  10
BRANCH   7  20
ATOM     20  C   UNL     1     -23.751  37.503  18.568  0.00  0.00    +0.000 C 
ATOM     21  F   UNL     1     -23.096  37.861  17.435  0.00  0.00    +0.000 F 
ATOM     22  F   UNL     1     -22.819  36.925  19.375  0.00  0.00    +0.000 F 
ATOM     23  F   UNL     1     -24.626  36.520  18.240  0.00  0.00    +0.000 F 
ENDBRANCH   7  20
TORSDOF 5
ENDMDL
