MODEL 1
REMARK VINA RESULT:      -7.7      0.000      0.000
REMARK  Name = Troglitazone.pdbqt.pdb
REMARK  4 active torsions:
REMARK  status: ('A' for Active; 'I' for Inactive)
REMARK    1  A    between atoms: C_1  and  O_2
REMARK    2  A    between atoms: C_1  and  C_18
REMARK    3  A    between atoms: O_2  and  C_3
REMARK    4  A    between atoms: C_26  and  O_32
REMARK                            x       y       z     vdW  Elec       q    Type
REMARK                         _______ _______ _______ _____ _____    ______ ____
ROOT
ATOM      1  C   UNL     1      -2.424  45.995  28.101  0.00  0.00    +0.000 C 
ENDROOT
BRANCH   1   2
ATOM      2  C   UNL     1      -1.198  46.634  27.593  0.00  0.00    +0.000 C 
ATOM      3  O   UNL     1      -0.058  45.927  28.202  0.00  0.00    +0.000 OA
ATOM      4  C   UNL     1       1.150  46.552  28.538  0.00  0.00    +0.000 A 
ATOM      5  C   UNL     1       1.289  47.956  28.745  0.00  0.00    +0.000 A 
ATOM      6  C   UNL     1       2.266  45.713  28.736  0.00  0.00    +0.000 A 
ATOM      7  C   UNL     1       0.099  48.700  28.535  0.00  0.00    +0.000 C 
ATOM      8  C   UNL     1       2.516  48.522  29.111  0.00  0.00    +0.000 A 
ATOM      9  C   UNL     1      -1.115  48.037  27.977  0.00  0.00    +0.000 C 
ATOM     10  C   UNL     1       3.625  47.680  29.287  0.00  0.00    +0.000 A 
ATOM     11  C   UNL     1       2.637  50.017  29.323  0.00  0.00    +0.000 C 
ATOM     12  C   UNL     1       3.504  46.287  29.103  0.00  0.00    +0.000 A 
ATOM     13  C   UNL     1       4.774  45.469  29.338  0.00  0.00    +0.000 C 
ATOM     14  C   UNL     1       2.095  44.209  28.563  0.00  0.00    +0.000 C 
ATOM     15  C   UNL     1      -1.060  46.466  26.060  0.00  0.00    +0.000 C 
BRANCH  10  16
ATOM     16  O   UNL     1       4.850  48.215  29.651  0.00  0.00    +0.000 OA
ATOM     17  H   UNL     1       4.840  49.175  29.440  0.00  0.00    +0.000 HD
ENDBRANCH  10  16
ENDBRANCH   1   2
BRANCH   1  18
ATOM     18  O   UNL     1      -3.530  45.408  28.562  0.00  0.00    +0.000 OA
BRANCH  18  19
ATOM     19  C   UNL     1      -4.696  45.855  27.992  0.00  0.00    +0.000 C 
ATOM     20  C   UNL     1      -5.913  45.171  28.042  0.00  0.00    +0.000 C 
ATOM     21  C   UNL     1      -7.046  45.710  27.438  0.00  0.00    +0.000 C 
ATOM     22  C   UNL     1      -6.965  46.935  26.782  0.00  0.00    +0.000 C 
ATOM     23  C   UNL     1      -5.754  47.622  26.728  0.00  0.00    +0.000 C 
ATOM     24  C   UNL     1      -4.621  47.082  27.334  0.00  0.00    +0.000 C 
ATOM     25  C   UNL     1      -8.122  47.489  26.165  0.00  0.00    +0.000 C 
ATOM     26  C   UNL     1      -9.266  48.040  25.544  0.00  0.00    +0.000 C 
ATOM     27  S   UNL     1     -10.861  47.988  26.192  0.00  0.00    +0.000 S 
ATOM     28  C   UNL     1     -11.517  48.866  24.825  0.00  0.00    +0.000 C 
ATOM     29  O   UNL     1     -12.692  49.168  24.702  0.00  0.00    +0.000 OA
ATOM     30  N   UNL     1     -10.527  49.155  23.944  0.00  0.00    +0.000 N 
ATOM     31  C   UNL     1      -9.260  48.753  24.250  0.00  0.00    +0.000 C 
ATOM     32  H   UNL     1     -10.722  49.663  23.096  0.00  0.00    +0.000 HD
ATOM     33  O   UNL     1      -8.277  48.958  23.558  0.00  0.00    +0.000 OA
ENDBRANCH  18  19
ENDBRANCH   1  18
TORSDOF 4
ENDMDL
MODEL 2
REMARK VINA RESULT:      -7.5      4.169      7.921
REMARK  Name = Troglitazone.pdbqt.pdb
REMARK  4 active torsions:
REMARK  status: ('A' for Active; 'I' for Inactive)
REMARK    1  A    between atoms: C_1  and  O_2
REMARK    2  A    between atoms: C_1  and  C_18
REMARK    3  A    between atoms: O_2  and  C_3
REMARK    4  A    between atoms: C_26  and  O_32
REMARK                            x       y       z     vdW  Elec       q    Type
REMARK                         _______ _______ _______ _____ _____    ______ ____
ROOT
ATOM      1  C   UNL     1      -8.933  49.615  25.544  0.00  0.00    +0.000 C 
ENDROOT
BRANCH   1   2
ATOM      2  C   UNL     1      -8.120  48.628  26.275  0.00  0.00    +0.000 C 
ATOM      3  O   UNL     1      -6.745  49.155  26.330  0.00  0.00    +0.000 OA
ATOM      4  C   UNL     1      -5.605  48.343  26.304  0.00  0.00    +0.000 A 
ATOM      5  C   UNL     1      -5.588  47.008  25.801  0.00  0.00    +0.000 A 
ATOM      6  C   UNL     1      -4.400  48.924  26.753  0.00  0.00    +0.000 A 
ATOM      7  C   UNL     1      -6.850  46.533  25.361  0.00  0.00    +0.000 C 
ATOM      8  C   UNL     1      -4.409  46.254  25.770  0.00  0.00    +0.000 A 
ATOM      9  C   UNL     1      -8.083  47.341  25.593  0.00  0.00    +0.000 C 
ATOM     10  C   UNL     1      -3.220  46.836  26.237  0.00  0.00    +0.000 A 
ATOM     11  C   UNL     1      -4.419  44.839  25.232  0.00  0.00    +0.000 C 
ATOM     12  C   UNL     1      -3.212  48.160  26.723  0.00  0.00    +0.000 A 
ATOM     13  C   UNL     1      -1.857  48.693  27.189  0.00  0.00    +0.000 C 
ATOM     14  C   UNL     1      -4.418  50.368  27.241  0.00  0.00    +0.000 C 
ATOM     15  C   UNL     1      -8.597  48.470  27.740  0.00  0.00    +0.000 C 
BRANCH  10  16
ATOM     16  O   UNL     1      -2.040  46.111  26.215  0.00  0.00    +0.000 OA
ATOM     17  H   UNL     1      -2.264  45.158  26.295  0.00  0.00    +0.000 HD
ENDBRANCH  10  16
ENDBRANCH   1   2
BRANCH   1  18
ATOM     18  O   UNL     1      -9.662  50.508  24.873  0.00  0.00    +0.000 OA
BRANCH  18  19
ATOM     19  C   UNL     1     -11.009  50.242  24.843  0.00  0.00    +0.000 C 
ATOM     20  C   UNL     1     -11.633  49.238  25.587  0.00  0.00    +0.000 C 
ATOM     21  C   UNL     1     -13.010  49.050  25.496  0.00  0.00    +0.000 C 
ATOM     22  C   UNL     1     -13.766  49.865  24.658  0.00  0.00    +0.000 C 
ATOM     23  C   UNL     1     -13.149  50.869  23.913  0.00  0.00    +0.000 C 
ATOM     24  C   UNL     1     -11.772  51.057  24.008  0.00  0.00    +0.000 C 
ATOM     25  C   UNL     1     -15.174  49.676  24.564  0.00  0.00    +0.000 C 
ATOM     26  C   UNL     1     -16.570  49.487  24.460  0.00  0.00    +0.000 C 
ATOM     27  S   UNL     1     -17.615  49.111  25.777  0.00  0.00    +0.000 S 
ATOM     28  C   UNL     1     -19.027  49.090  24.739  0.00  0.00    +0.000 C 
ATOM     29  O   UNL     1     -20.162  48.870  25.127  0.00  0.00    +0.000 OA
ATOM     30  N   UNL     1     -18.662  49.357  23.459  0.00  0.00    +0.000 N 
ATOM     31  C   UNL     1     -17.344  49.596  23.205  0.00  0.00    +0.000 C 
ATOM     32  H   UNL     1     -19.349  49.390  22.723  0.00  0.00    +0.000 HD
ATOM     33  O   UNL     1     -16.881  49.861  22.109  0.00  0.00    +0.000 OA
ENDBRANCH  18  19
ENDBRANCH   1  18
TORSDOF 4
ENDMDL
MODEL 3
REMARK VINA RESULT:      -7.4      4.196     12.323
REMARK  Name = Troglitazone.pdbqt.pdb
REMARK  4 active torsions:
REMARK  status: ('A' for Active; 'I' for Inactive)
REMARK    1  A    between atoms: C_1  and  O_2
REMARK    2  A    between atoms: C_1  and  C_18
REMARK    3  A    between atoms: O_2  and  C_3
REMARK    4  A    between atoms: C_26  and  O_32
REMARK                            x       y       z     vdW  Elec       q    Type
REMARK                         _______ _______ _______ _____ _____    ______ ____
ROOT
ATOM      1  C   UNL     1     -10.784  49.771  24.191  0.00  0.00    +0.000 C 
ENDROOT
BRANCH   1   2
ATOM      2  C   UNL     1     -11.850  50.290  25.064  0.00  0.00    +0.000 C 
ATOM      3  O   UNL     1     -11.815  49.501  26.308  0.00  0.00    +0.000 OA
ATOM      4  C   UNL     1     -12.956  49.189  27.058  0.00  0.00    +0.000 A 
ATOM      5  C   UNL     1     -14.282  49.200  26.533  0.00  0.00    +0.000 A 
ATOM      6  C   UNL     1     -12.748  48.784  28.393  0.00  0.00    +0.000 A 
ATOM      7  C   UNL     1     -14.371  49.606  25.176  0.00  0.00    +0.000 C 
ATOM      8  C   UNL     1     -15.383  48.848  27.322  0.00  0.00    +0.000 A 
ATOM      9  C   UNL     1     -13.169  50.131  24.466  0.00  0.00    +0.000 C 
ATOM     10  C   UNL     1     -15.166  48.465  28.655  0.00  0.00    +0.000 A 
ATOM     11  C   UNL     1     -16.781  48.869  26.740  0.00  0.00    +0.000 C 
ATOM     12  C   UNL     1     -13.860  48.431  29.188  0.00  0.00    +0.000 A 
ATOM     13  C   UNL     1     -13.745  47.983  30.645  0.00  0.00    +0.000 C 
ATOM     14  C   UNL     1     -11.323  48.726  28.929  0.00  0.00    +0.000 C 
ATOM     15  C   UNL     1     -11.593  51.765  25.464  0.00  0.00    +0.000 C 
BRANCH  10  16
ATOM     16  O   UNL     1     -16.239  48.109  29.457  0.00  0.00    +0.000 OA
ATOM     17  H   UNL     1     -16.030  47.250  29.884  0.00  0.00    +0.000 HD
ENDBRANCH  10  16
ENDBRANCH   1   2
BRANCH   1  18
ATOM     18  O   UNL     1      -9.819  49.310  23.394  0.00  0.00    +0.000 OA
BRANCH  18  19
ATOM     19  C   UNL     1      -8.736  48.780  24.051  0.00  0.00    +0.000 C 
ATOM     20  C   UNL     1      -7.409  48.955  23.656  0.00  0.00    +0.000 C 
ATOM     21  C   UNL     1      -6.375  48.383  24.393  0.00  0.00    +0.000 C 
ATOM     22  C   UNL     1      -6.668  47.633  25.529  0.00  0.00    +0.000 C 
ATOM     23  C   UNL     1      -7.991  47.454  25.929  0.00  0.00    +0.000 C 
ATOM     24  C   UNL     1      -9.023  48.029  25.190  0.00  0.00    +0.000 C 
ATOM     25  C   UNL     1      -5.613  47.049  26.286  0.00  0.00    +0.000 C 
ATOM     26  C   UNL     1      -4.571  46.459  27.037  0.00  0.00    +0.000 C 
ATOM     27  S   UNL     1      -3.056  47.205  27.375  0.00  0.00    +0.000 S 
ATOM     28  C   UNL     1      -2.502  45.819  28.293  0.00  0.00    +0.000 C 
ATOM     29  O   UNL     1      -1.414  45.746  28.838  0.00  0.00    +0.000 OA
ATOM     30  N   UNL     1      -3.462  44.860  28.304  0.00  0.00    +0.000 N 
ATOM     31  C   UNL     1      -4.632  45.117  27.653  0.00  0.00    +0.000 C 
ATOM     32  H   UNL     1      -3.317  43.990  28.791  0.00  0.00    +0.000 HD
ATOM     33  O   UNL     1      -5.581  44.353  27.595  0.00  0.00    +0.000 OA
ENDBRANCH  18  19
ENDBRANCH   1  18
TORSDOF 4
ENDMDL
MODEL 4
REMARK VINA RESULT:      -7.4     26.334     29.178
REMARK  Name = Troglitazone.pdbqt.pdb
REMARK  4 active torsions:
REMARK  status: ('A' for Active; 'I' for Inactive)
REMARK    1  A    between atoms: C_1  and  O_2
REMARK    2  A    between atoms: C_1  and  C_18
REMARK    3  A    between atoms: O_2  and  C_3
REMARK    4  A    between atoms: C_26  and  O_32
REMARK                            x       y       z     vdW  Elec       q    Type
REMARK                         _______ _______ _______ _____ _____    ______ ____
ROOT
ATOM      1  C   UNL     1     -15.211  40.594   5.320  0.00  0.00    +0.000 C 
ENDROOT
BRANCH   1   2
ATOM      2  C   UNL     1     -15.852  41.866   4.945  0.00  0.00    +0.000 C 
ATOM      3  O   UNL     1     -17.075  41.531   4.195  0.00  0.00    +0.000 OA
ATOM      4  C   UNL     1     -17.578  42.313   3.148  0.00  0.00    +0.000 A 
ATOM      5  C   UNL     1     -16.796  43.243   2.401  0.00  0.00    +0.000 A 
ATOM      6  C   UNL     1     -18.927  42.106   2.791  0.00  0.00    +0.000 A 
ATOM      7  C   UNL     1     -15.450  43.357   2.835  0.00  0.00    +0.000 C 
ATOM      8  C   UNL     1     -17.346  43.975   1.341  0.00  0.00    +0.000 A 
ATOM      9  C   UNL     1     -14.998  42.671   4.080  0.00  0.00    +0.000 C 
ATOM     10  C   UNL     1     -18.694  43.774   1.008  0.00  0.00    +0.000 A 
ATOM     11  C   UNL     1     -16.493  44.956   0.565  0.00  0.00    +0.000 C 
ATOM     12  C   UNL     1     -19.480  42.847   1.724  0.00  0.00    +0.000 A 
ATOM     13  C   UNL     1     -20.929  42.701   1.260  0.00  0.00    +0.000 C 
ATOM     14  C   UNL     1     -19.740  41.073   3.562  0.00  0.00    +0.000 C 
ATOM     15  C   UNL     1     -16.297  42.669   6.192  0.00  0.00    +0.000 C 
BRANCH  10  16
ATOM     16  O   UNL     1     -19.261  44.484  -0.038  0.00  0.00    +0.000 OA
ATOM     17  H   UNL     1     -19.497  43.848  -0.748  0.00  0.00    +0.000 HD
ENDBRANCH  10  16
ENDBRANCH   1   2
BRANCH   1  18
ATOM     18  O   UNL     1     -14.621  39.446   5.658  0.00  0.00    +0.000 OA
BRANCH  18  19
ATOM     19  C   UNL     1     -15.486  38.432   5.986  0.00  0.00    +0.000 C 
ATOM     20  C   UNL     1     -15.253  37.080   5.730  0.00  0.00    +0.000 C 
ATOM     21  C   UNL     1     -16.190  36.121   6.108  0.00  0.00    +0.000 C 
ATOM     22  C   UNL     1     -17.364  36.515   6.743  0.00  0.00    +0.000 C 
ATOM     23  C   UNL     1     -17.604  37.863   7.001  0.00  0.00    +0.000 C 
ATOM     24  C   UNL     1     -16.665  38.820   6.624  0.00  0.00    +0.000 C 
ATOM     25  C   UNL     1     -18.323  35.536   7.132  0.00  0.00    +0.000 C 
ATOM     26  C   UNL     1     -19.283  34.571   7.513  0.00  0.00    +0.000 C 
ATOM     27  S   UNL     1     -18.916  33.025   8.175  0.00  0.00    +0.000 S 
ATOM     28  C   UNL     1     -20.612  32.608   8.318  0.00  0.00    +0.000 C 
ATOM     29  O   UNL     1     -21.024  31.552   8.766  0.00  0.00    +0.000 OA
ATOM     30  N   UNL     1     -21.377  33.631   7.862  0.00  0.00    +0.000 N 
ATOM     31  C   UNL     1     -20.746  34.751   7.409  0.00  0.00    +0.000 C 
ATOM     32  H   UNL     1     -22.383  33.568   7.873  0.00  0.00    +0.000 HD
ATOM     33  O   UNL     1     -21.309  35.747   6.987  0.00  0.00    +0.000 OA
ENDBRANCH  18  19
ENDBRANCH   1  18
TORSDOF 4
ENDMDL
MODEL 5
REMARK VINA RESULT:      -7.3      6.946      9.116
REMARK  Name = Troglitazone.pdbqt.pdb
REMARK  4 active torsions:
REMARK  status: ('A' for Active; 'I' for Inactive)
REMARK    1  A    between atoms: C_1  and  O_2
REMARK    2  A    between atoms: C_1  and  C_18
REMARK    3  A    between atoms: O_2  and  C_3
REMARK    4  A    between atoms: C_26  and  O_32
REMARK                            x       y       z     vdW  Elec       q    Type
REMARK                         _______ _______ _______ _____ _____    ______ ____
ROOT
ATOM      1  C   UNL     1      -0.020  53.947  27.756  0.00  0.00    +0.000 C 
ENDROOT
BRANCH   1   2
ATOM      2  C   UNL     1       0.355  54.999  26.796  0.00  0.00    +0.000 C 
ATOM      3  O   UNL     1      -0.884  55.699  26.414  0.00  0.00    +0.000 OA
ATOM      4  C   UNL     1      -1.104  56.242  25.142  0.00  0.00    +0.000 A 
ATOM      5  C   UNL     1      -0.400  55.836  23.970  0.00  0.00    +0.000 A 
ATOM      6  C   UNL     1      -2.130  57.204  25.030  0.00  0.00    +0.000 A 
ATOM      7  C   UNL     1       0.597  54.852  24.197  0.00  0.00    +0.000 C 
ATOM      8  C   UNL     1      -0.685  56.392  22.717  0.00  0.00    +0.000 A 
ATOM      9  C   UNL     1       0.952  54.445  25.587  0.00  0.00    +0.000 C 
ATOM     10  C   UNL     1      -1.695  57.361  22.620  0.00  0.00    +0.000 A 
ATOM     11  C   UNL     1       0.077  55.943  21.488  0.00  0.00    +0.000 C 
ATOM     12  C   UNL     1      -2.414  57.765  23.765  0.00  0.00    +0.000 A 
ATOM     13  C   UNL     1      -3.502  58.815  23.536  0.00  0.00    +0.000 C 
ATOM     14  C   UNL     1      -2.911  57.594  26.279  0.00  0.00    +0.000 C 
ATOM     15  C   UNL     1       1.284  56.056  27.443  0.00  0.00    +0.000 C 
BRANCH  10  16
ATOM     16  O   UNL     1      -1.999  57.925  21.392  0.00  0.00    +0.000 OA
ATOM     17  H   UNL     1      -2.548  58.724  21.548  0.00  0.00    +0.000 HD
ENDBRANCH  10  16
ENDBRANCH   1   2
BRANCH   1  18
ATOM     18  O   UNL     1      -0.350  52.990  28.625  0.00  0.00    +0.000 OA
BRANCH  18  19
ATOM     19  C   UNL     1      -1.353  52.154  28.202  0.00  0.00    +0.000 C 
ATOM     20  C   UNL     1      -2.681  52.234  28.627  0.00  0.00    +0.000 C 
ATOM     21  C   UNL     1      -3.631  51.343  28.134  0.00  0.00    +0.000 C 
ATOM     22  C   UNL     1      -3.254  50.367  27.216  0.00  0.00    +0.000 C 
ATOM     23  C   UNL     1      -1.931  50.281  26.788  0.00  0.00    +0.000 C 
ATOM     24  C   UNL     1      -0.982  51.175  27.281  0.00  0.00    +0.000 C 
ATOM     25  C   UNL     1      -4.224  49.455  26.710  0.00  0.00    +0.000 C 
ATOM     26  C   UNL     1      -5.180  48.542  26.210  0.00  0.00    +0.000 C 
ATOM     27  S   UNL     1      -6.801  48.944  25.791  0.00  0.00    +0.000 S 
ATOM     28  C   UNL     1      -7.155  47.298  25.306  0.00  0.00    +0.000 C 
ATOM     29  O   UNL     1      -8.232  46.925  24.873  0.00  0.00    +0.000 OA
ATOM     30  N   UNL     1      -6.057  46.520  25.480  0.00  0.00    +0.000 N 
ATOM     31  C   UNL     1      -4.925  47.108  25.962  0.00  0.00    +0.000 C 
ATOM     32  H   UNL     1      -6.076  45.540  25.247  0.00  0.00    +0.000 HD
ATOM     33  O   UNL     1      -3.867  46.533  26.152  0.00  0.00    +0.000 OA
ENDBRANCH  18  19
ENDBRANCH   1  18
TORSDOF 4
ENDMDL
MODEL 6
REMARK VINA RESULT:      -7.0      5.245     11.607
REMARK  Name = Troglitazone.pdbqt.pdb
REMARK  4 active torsions:
REMARK  status: ('A' for Active; 'I' for Inactive)
REMARK    1  A    between atoms: C_1  and  O_2
REMARK    2  A    between atoms: C_1  and  C_18
REMARK    3  A    between atoms: O_2  and  C_3
REMARK    4  A    between atoms: C_26  and  O_32
REMARK                            x       y       z     vdW  Elec       q    Type
REMARK                         _______ _______ _______ _____ _____    ______ ____
ROOT
ATOM      1  C   UNL     1      -2.204  45.604  28.843  0.00  0.00    +0.000 C 
ENDROOT
BRANCH   1   2
ATOM      2  C   UNL     1      -3.052  46.536  28.081  0.00  0.00    +0.000 C 
ATOM      3  O   UNL     1      -4.207  46.868  28.934  0.00  0.00    +0.000 OA
ATOM      4  C   UNL     1      -5.489  47.126  28.433  0.00  0.00    +0.000 A 
ATOM      5  C   UNL     1      -5.946  46.696  27.153  0.00  0.00    +0.000 A 
ATOM      6  C   UNL     1      -6.382  47.802  29.291  0.00  0.00    +0.000 A 
ATOM      7  C   UNL     1      -4.970  46.011  26.383  0.00  0.00    +0.000 C 
ATOM      8  C   UNL     1      -7.251  46.954  26.717  0.00  0.00    +0.000 A 
ATOM      9  C   UNL     1      -3.556  45.934  26.854  0.00  0.00    +0.000 C 
ATOM     10  C   UNL     1      -8.125  47.644  27.571  0.00  0.00    +0.000 A 
ATOM     11  C   UNL     1      -7.710  46.487  25.352  0.00  0.00    +0.000 C 
ATOM     12  C   UNL     1      -7.698  48.064  28.849  0.00  0.00    +0.000 A 
ATOM     13  C   UNL     1      -8.741  48.792  29.697  0.00  0.00    +0.000 C 
ATOM     14  C   UNL     1      -5.900  48.213  30.677  0.00  0.00    +0.000 C 
ATOM     15  C   UNL     1      -2.316  47.867  27.788  0.00  0.00    +0.000 C 
BRANCH  10  16
ATOM     16  O   UNL     1      -9.422  47.911  27.165  0.00  0.00    +0.000 OA
ATOM     17  H   UNL     1      -9.392  48.626  26.492  0.00  0.00    +0.000 HD
ENDBRANCH  10  16
ENDBRANCH   1   2
BRANCH   1  18
ATOM     18  O   UNL     1      -1.429  44.759  29.525  0.00  0.00    +0.000 OA
BRANCH  18  19
ATOM     19  C   UNL     1      -0.081  44.972  29.378  0.00  0.00    +0.000 C 
ATOM     20  C   UNL     1       0.527  45.407  28.198  0.00  0.00    +0.000 C 
ATOM     21  C   UNL     1       1.905  45.602  28.148  0.00  0.00    +0.000 C 
ATOM     22  C   UNL     1       2.679  45.361  29.280  0.00  0.00    +0.000 C 
ATOM     23  C   UNL     1       2.079  44.927  30.460  0.00  0.00    +0.000 C 
ATOM     24  C   UNL     1       0.700  44.734  30.508  0.00  0.00    +0.000 C 
ATOM     25  C   UNL     1       4.088  45.561  29.232  0.00  0.00    +0.000 C 
ATOM     26  C   UNL     1       5.488  45.750  29.189  0.00  0.00    +0.000 C 
ATOM     27  S   UNL     1       6.283  47.041  28.372  0.00  0.00    +0.000 S 
ATOM     28  C   UNL     1       7.865  46.467  28.864  0.00  0.00    +0.000 C 
ATOM     29  O   UNL     1       8.915  47.015  28.576  0.00  0.00    +0.000 OA
ATOM     30  N   UNL     1       7.735  45.340  29.608  0.00  0.00    +0.000 N 
ATOM     31  C   UNL     1       6.477  44.873  29.849  0.00  0.00    +0.000 C 
ATOM     32  H   UNL     1       8.545  44.873  29.983  0.00  0.00    +0.000 HD
ATOM     33  O   UNL     1       6.215  43.883  30.512  0.00  0.00    +0.000 OA
ENDBRANCH  18  19
ENDBRANCH   1  18
TORSDOF 4
ENDMDL
MODEL 7
REMARK VINA RESULT:      -7.0     23.119     25.613
REMARK  Name = Troglitazone.pdbqt.pdb
REMARK  4 active torsions:
REMARK  status: ('A' for Active; 'I' for Inactive)
REMARK    1  A    between atoms: C_1  and  O_2
REMARK    2  A    between atoms: C_1  and  C_18
REMARK    3  A    between atoms: O_2  and  C_3
REMARK    4  A    between atoms: C_26  and  O_32
REMARK                            x       y       z     vdW  Elec       q    Type
REMARK                         _______ _______ _______ _____ _____    ______ ____
ROOT
ATOM      1  C   UNL     1      -8.281  24.934  15.485  0.00  0.00    +0.000 C 
ENDROOT
BRANCH   1   2
ATOM      2  C   UNL     1      -8.317  24.975  14.014  0.00  0.00    +0.000 C 
ATOM      3  O   UNL     1      -6.996  25.444  13.561  0.00  0.00    +0.000 OA
ATOM      4  C   UNL     1      -6.804  26.229  12.417  0.00  0.00    +0.000 A 
ATOM      5  C   UNL     1      -7.827  27.016  11.810  0.00  0.00    +0.000 A 
ATOM      6  C   UNL     1      -5.497  26.273  11.888  0.00  0.00    +0.000 A 
ATOM      7  C   UNL     1      -9.096  26.909  12.435  0.00  0.00    +0.000 C 
ATOM      8  C   UNL     1      -7.569  27.807  10.685  0.00  0.00    +0.000 A 
ATOM      9  C   UNL     1      -9.321  25.909  13.519  0.00  0.00    +0.000 C 
ATOM     10  C   UNL     1      -6.269  27.829  10.155  0.00  0.00    +0.000 A 
ATOM     11  C   UNL     1      -8.673  28.633  10.059  0.00  0.00    +0.000 C 
ATOM     12  C   UNL     1      -5.239  27.070  10.751  0.00  0.00    +0.000 A 
ATOM     13  C   UNL     1      -3.862  27.185  10.098  0.00  0.00    +0.000 C 
ATOM     14  C   UNL     1      -4.399  25.468  12.574  0.00  0.00    +0.000 C 
ATOM     15  C   UNL     1      -8.522  23.564  13.408  0.00  0.00    +0.000 C 
BRANCH  10  16
ATOM     16  O   UNL     1      -5.987  28.605   9.043  0.00  0.00    +0.000 OA
ATOM     17  H   UNL     1      -5.606  28.023   8.351  0.00  0.00    +0.000 HD
ENDBRANCH  10  16
ENDBRANCH   1   2
BRANCH   1  18
ATOM     18  O   UNL     1      -8.260  24.894  16.818  0.00  0.00    +0.000 OA
BRANCH  18  19
ATOM     19  C   UNL     1      -7.135  25.435  17.390  0.00  0.00    +0.000 C 
ATOM     20  C   UNL     1      -7.042  25.841  18.722  0.00  0.00    +0.000 C 
ATOM     21  C   UNL     1      -5.852  26.373  19.213  0.00  0.00    +0.000 C 
ATOM     22  C   UNL     1      -4.751  26.500  18.371  0.00  0.00    +0.000 C 
ATOM     23  C   UNL     1      -4.837  26.097  17.040  0.00  0.00    +0.000 C 
ATOM     24  C   UNL     1      -6.028  25.564  16.551  0.00  0.00    +0.000 C 
ATOM     25  C   UNL     1      -3.533  27.042  18.870  0.00  0.00    +0.000 C 
ATOM     26  C   UNL     1      -2.324  27.587  19.358  0.00  0.00    +0.000 C 
ATOM     27  S   UNL     1      -1.658  27.272  20.915  0.00  0.00    +0.000 S 
ATOM     28  C   UNL     1      -0.271  28.297  20.604  0.00  0.00    +0.000 C 
ATOM     29  O   UNL     1       0.636  28.485  21.397  0.00  0.00    +0.000 OA
ATOM     30  N   UNL     1      -0.365  28.834  19.361  0.00  0.00    +0.000 N 
ATOM     31  C   UNL     1      -1.445  28.501  18.599  0.00  0.00    +0.000 C 
ATOM     32  H   UNL     1       0.352  29.449  19.009  0.00  0.00    +0.000 HD
ATOM     33  O   UNL     1      -1.647  28.897  17.463  0.00  0.00    +0.000 OA
ENDBRANCH  18  19
ENDBRANCH   1  18
TORSDOF 4
ENDMDL
MODEL 8
REMARK VINA RESULT:      -6.9     13.006     14.488
REMARK  Name = Troglitazone.pdbqt.pdb
REMARK  4 active torsions:
REMARK  status: ('A' for Active; 'I' for Inactive)
REMARK    1  A    between atoms: C_1  and  O_2
REMARK    2  A    between atoms: C_1  and  C_18
REMARK    3  A    between atoms: O_2  and  C_3
REMARK    4  A    between atoms: C_26  and  O_32
REMARK                            x       y       z     vdW  Elec       q    Type
REMARK                         _______ _______ _______ _____ _____    ______ ____
ROOT
ATOM      1  C   UNL     1       2.003  58.645  19.445  0.00  0.00    +0.000 C 
ENDROOT
BRANCH   1   2
ATOM      2  C   UNL     1       2.949  57.685  18.850  0.00  0.00    +0.000 C 
ATOM      3  O   UNL     1       2.785  57.765  17.388  0.00  0.00    +0.000 OA
ATOM      4  C   UNL     1       2.940  56.669  16.532  0.00  0.00    +0.000 A 
ATOM      5  C   UNL     1       2.844  55.309  16.952  0.00  0.00    +0.000 A 
ATOM      6  C   UNL     1       3.145  56.953  15.165  0.00  0.00    +0.000 A 
ATOM      7  C   UNL     1       2.620  55.141  18.343  0.00  0.00    +0.000 C 
ATOM      8  C   UNL     1       2.976  54.252  16.044  0.00  0.00    +0.000 A 
ATOM      9  C   UNL     1       2.666  56.316  19.261  0.00  0.00    +0.000 C 
ATOM     10  C   UNL     1       3.199  54.547  14.690  0.00  0.00    +0.000 A 
ATOM     11  C   UNL     1       2.869  52.818  16.517  0.00  0.00    +0.000 C 
ATOM     12  C   UNL     1       3.281  55.885  14.251  0.00  0.00    +0.000 A 
ATOM     13  C   UNL     1       3.509  56.084  12.752  0.00  0.00    +0.000 C 
ATOM     14  C   UNL     1       3.197  58.409  14.717  0.00  0.00    +0.000 C 
ATOM     15  C   UNL     1       4.418  58.068  19.157  0.00  0.00    +0.000 C 
BRANCH  10  16
ATOM     16  O   UNL     1       3.331  53.519  13.770  0.00  0.00    +0.000 OA
ATOM     17  H   UNL     1       3.618  52.712  14.252  0.00  0.00    +0.000 HD
ENDBRANCH  10  16
ENDBRANCH   1   2
BRANCH   1  18
ATOM     18  O   UNL     1       1.144  59.506  19.991  0.00  0.00    +0.000 OA
BRANCH  18  19
ATOM     19  C   UNL     1      -0.134  59.025  20.139  0.00  0.00    +0.000 C 
ATOM     20  C   UNL     1      -0.506  58.038  21.054  0.00  0.00    +0.000 C 
ATOM     21  C   UNL     1      -1.832  57.619  21.134  0.00  0.00    +0.000 C 
ATOM     22  C   UNL     1      -2.789  58.187  20.297  0.00  0.00    +0.000 C 
ATOM     23  C   UNL     1      -2.424  59.172  19.382  0.00  0.00    +0.000 C 
ATOM     24  C   UNL     1      -1.097  59.591  19.304  0.00  0.00    +0.000 C 
ATOM     25  C   UNL     1      -4.146  57.762  20.379  0.00  0.00    +0.000 C 
ATOM     26  C   UNL     1      -5.492  57.338  20.448  0.00  0.00    +0.000 C 
ATOM     27  S   UNL     1      -6.336  56.972  21.904  0.00  0.00    +0.000 S 
ATOM     28  C   UNL     1      -7.808  56.589  21.035  0.00  0.00    +0.000 C 
ATOM     29  O   UNL     1      -8.849  56.241  21.566  0.00  0.00    +0.000 OA
ATOM     30  N   UNL     1      -7.609  56.743  19.702  0.00  0.00    +0.000 N 
ATOM     31  C   UNL     1      -6.380  57.157  19.281  0.00  0.00    +0.000 C 
ATOM     32  H   UNL     1      -8.353  56.570  19.045  0.00  0.00    +0.000 HD
ATOM     33  O   UNL     1      -6.069  57.351  18.118  0.00  0.00    +0.000 OA
ENDBRANCH  18  19
ENDBRANCH   1  18
TORSDOF 4
ENDMDL
MODEL 9
REMARK VINA RESULT:      -6.9     18.282     20.571
REMARK  Name = Troglitazone.pdbqt.pdb
REMARK  4 active torsions:
REMARK  status: ('A' for Active; 'I' for Inactive)
REMARK    1  A    between atoms: C_1  and  O_2
REMARK    2  A    between atoms: C_1  and  C_18
REMARK    3  A    between atoms: O_2  and  C_3
REMARK    4  A    between atoms: C_26  and  O_32
REMARK                            x       y       z     vdW  Elec       q    Type
REMARK                         _______ _______ _______ _____ _____    ______ ____
ROOT
ATOM      1  C   UNL     1       6.033  55.935  11.930  0.00  0.00    +0.000 C 
ENDROOT
BRANCH   1   2
ATOM      2  C   UNL     1       4.819  55.998  12.762  0.00  0.00    +0.000 C 
ATOM      3  O   UNL     1       5.260  56.106  14.164  0.00  0.00    +0.000 OA
ATOM      4  C   UNL     1       4.561  55.545  15.240  0.00  0.00    +0.000 A 
ATOM      5  C   UNL     1       3.624  54.477  15.112  0.00  0.00    +0.000 A 
ATOM      6  C   UNL     1       4.863  56.045  16.524  0.00  0.00    +0.000 A 
ATOM      7  C   UNL     1       3.411  54.042  13.778  0.00  0.00    +0.000 C 
ATOM      8  C   UNL     1       2.978  53.934  16.229  0.00  0.00    +0.000 A 
ATOM      9  C   UNL     1       4.009  54.793  12.636  0.00  0.00    +0.000 C 
ATOM     10  C   UNL     1       3.272  54.452  17.500  0.00  0.00    +0.000 A 
ATOM     11  C   UNL     1       1.988  52.801  16.064  0.00  0.00    +0.000 C 
ATOM     12  C   UNL     1       4.207  55.498  17.649  0.00  0.00    +0.000 A 
ATOM     13  C   UNL     1       4.460  55.969  19.082  0.00  0.00    +0.000 C 
ATOM     14  C   UNL     1       5.902  57.152  16.656  0.00  0.00    +0.000 C 
ATOM     15  C   UNL     1       3.984  57.266  12.458  0.00  0.00    +0.000 C 
BRANCH  10  16
ATOM     16  O   UNL     1       2.647  53.931  18.621  0.00  0.00    +0.000 OA
ATOM     17  H   UNL     1       1.830  54.450  18.785  0.00  0.00    +0.000 HD
ENDBRANCH  10  16
ENDBRANCH   1   2
BRANCH   1  18
ATOM     18  O   UNL     1       7.126  55.872  11.168  0.00  0.00    +0.000 OA
BRANCH  18  19
ATOM     19  C   UNL     1       7.411  54.622  10.677  0.00  0.00    +0.000 C 
ATOM     20  C   UNL     1       8.330  53.740  11.248  0.00  0.00    +0.000 C 
ATOM     21  C   UNL     1       8.547  52.487  10.680  0.00  0.00    +0.000 C 
ATOM     22  C   UNL     1       7.844  52.114   9.537  0.00  0.00    +0.000 C 
ATOM     23  C   UNL     1       6.925  52.990   8.963  0.00  0.00    +0.000 C 
ATOM     24  C   UNL     1       6.709  54.243   9.534  0.00  0.00    +0.000 C 
ATOM     25  C   UNL     1       8.062  50.833   8.955  0.00  0.00    +0.000 C 
ATOM     26  C   UNL     1       8.280  49.567   8.368  0.00  0.00    +0.000 C 
ATOM     27  S   UNL     1       8.515  48.102   9.243  0.00  0.00    +0.000 S 
ATOM     28  C   UNL     1       8.675  47.168   7.769  0.00  0.00    +0.000 C 
ATOM     29  O   UNL     1       8.863  45.964   7.735  0.00  0.00    +0.000 OA
ATOM     30  N   UNL     1       8.554  47.983   6.691  0.00  0.00    +0.000 N 
ATOM     31  C   UNL     1       8.328  49.309   6.913  0.00  0.00    +0.000 C 
ATOM     32  H   UNL     1       8.615  47.615   5.755  0.00  0.00    +0.000 HD
ATOM     33  O   UNL     1       8.185  50.149   6.040  0.00  0.00    +0.000 OA
ENDBRANCH  18  19
ENDBRANCH   1  18
TORSDOF 4
ENDMDL
