MODEL 1
REMARK VINA RESULT:      -6.8      0.000      0.000
REMARK  Name = 
REMARK  19 active torsions:
REMARK  status: ('A' for Active; 'I' for Inactive)
REMARK    1  A    between atoms: O_1  and  C_20
REMARK    2  A    between atoms: O_1  and  C_36
REMARK    3  A    between atoms: O_2  and  C_18
REMARK    4  A    between atoms: O_3  and  C_28
REMARK    5  A    between atoms: O_3  and  C_42
REMARK    6  A    between atoms: O_5  and  C_34
REMARK    7  A    between atoms: O_5  and  C_50
REMARK    8  A    between atoms: O_7  and  C_40
REMARK    9  A    between atoms: O_7  and  C_56
REMARK   10  A    between atoms: O_9  and  C_46
REMARK   11  A    between atoms: N_11  and  C_30
REMARK   12  A    between atoms: C_17  and  C_23
REMARK   13  A    between atoms: C_18  and  C_28
REMARK   14  A    between atoms: C_23  and  C_32
REMARK   15  A    between atoms: C_33  and  C_35
REMARK   16  A    between atoms: C_35  and  C_40
REMARK   17  A    between atoms: C_36  and  C_41
REMARK   18  A    between atoms: C_46  and  C_53
REMARK   19  A    between atoms: C_53  and  C_57
REMARK                            x       y       z     vdW  Elec       q    Type
REMARK                         _______ _______ _______ _____ _____    ______ ____
ROOT
ATOM      1  N   UNL     1      -6.507  46.742  26.888  0.00  0.00    +0.000 NA
ATOM      2  N   UNL     1      -6.541  49.796  30.556  0.00  0.00    +0.000 N 
ATOM      3  C   UNL     1      -6.489  48.248  28.668  0.00  0.00    +0.000 C 
ATOM      4  C   UNL     1      -5.889  48.026  27.269  0.00  0.00    +0.000 C 
ATOM      5  C   UNL     1      -5.676  49.304  29.443  0.00  0.00    +0.000 C 
ATOM      6  C   UNL     1      -4.294  48.110  27.233  0.00  0.00    +0.000 C 
ATOM      7  C   UNL     1      -4.217  48.931  29.754  0.00  0.00    +0.000 C 
ATOM      8  C   UNL     1      -6.677  46.834  29.252  0.00  0.00    +0.000 C 
ATOM      9  C   UNL     1      -3.626  47.970  28.672  0.00  0.00    +0.000 C 
ATOM     10  C   UNL     1      -7.832  48.945  28.782  0.00  0.00    +0.000 A 
ATOM     11  C   UNL     1      -6.534  45.883  28.066  0.00  0.00    +0.000 C 
ATOM     12  C   UNL     1      -7.817  49.771  29.914  0.00  0.00    +0.000 A 
ATOM     13  C   UNL     1      -3.694  47.023  26.336  0.00  0.00    +0.000 C 
ATOM     14  C   UNL     1      -5.934  46.115  25.707  0.00  0.00    +0.000 C 
ATOM     15  C   UNL     1      -4.441  46.147  25.650  0.00  0.00    +0.000 C 
ATOM     16  C   UNL     1      -8.964  48.805  27.986  0.00  0.00    +0.000 A 
ATOM     17  C   UNL     1      -6.193  51.079  31.165  0.00  0.00    +0.000 C 
ATOM     18  C   UNL     1      -8.967  50.441  30.284  0.00  0.00    +0.000 A 
ATOM     19  C   UNL     1     -10.151  49.479  28.333  0.00  0.00    +0.000 A 
ATOM     20  C   UNL     1     -10.127  50.290  29.506  0.00  0.00    +0.000 A 
ENDROOT
BRANCH  19  23
ATOM     21  N   UNL     1     -15.407  48.965  25.749  0.00  0.00    +0.000 NA
ATOM     22  N   UNL     1     -11.130  51.796  26.965  0.00  0.00    +0.000 N 
ATOM     23  C   UNL     1     -11.474  49.337  27.480  0.00  0.00    +0.000 C 
ATOM     24  C   UNL     1     -12.761  49.219  28.419  0.00  0.00    +0.000 C 
ATOM     25  C   UNL     1     -11.687  50.592  26.567  0.00  0.00    +0.000 A 
ATOM     26  C   UNL     1     -14.130  49.424  27.750  0.00  0.00    +0.000 C 
ATOM     27  C   UNL     1     -15.317  49.457  28.713  0.00  0.00    +0.000 C 
ATOM     28  C   UNL     1     -14.469  48.383  26.693  0.00  0.00    +0.000 C 
ATOM     29  C   UNL     1     -12.426  50.871  25.404  0.00  0.00    +0.000 A 
ATOM     30  C   UNL     1     -16.659  49.705  27.961  0.00  0.00    +0.000 C 
ATOM     31  C   UNL     1     -16.669  49.349  26.418  0.00  0.00    +0.000 C 
ATOM     32  C   UNL     1     -13.322  49.989  24.549  0.00  0.00    +0.000 C 
ATOM     33  C   UNL     1     -14.832  50.062  24.927  0.00  0.00    +0.000 C 
ATOM     34  C   UNL     1     -12.235  52.272  25.110  0.00  0.00    +0.000 A 
ATOM     35  C   UNL     1     -11.426  52.811  26.099  0.00  0.00    +0.000 A 
ATOM     36  C   UNL     1     -12.700  53.134  24.091  0.00  0.00    +0.000 A 
ATOM     37  C   UNL     1     -11.043  54.158  26.128  0.00  0.00    +0.000 A 
ATOM     38  C   UNL     1     -12.330  54.484  24.100  0.00  0.00    +0.000 A 
ATOM     39  C   UNL     1     -11.512  54.987  25.106  0.00  0.00    +0.000 A 
ATOM     40  H   UNL     1     -10.553  51.917  27.787  0.00  0.00    +0.000 HD
BRANCH  23  42
ATOM     41  O   UNL     1     -11.680  46.901  26.930  0.00  0.00    +0.000 OA
ATOM     42  C   UNL     1     -11.283  48.025  26.648  0.00  0.00    +0.000 C 
BRANCH  42  43
ATOM     43  O   UNL     1     -10.605  48.303  25.485  0.00  0.00    +0.000 OA
ATOM     44  C   UNL     1      -9.958  47.170  24.906  0.00  0.00    +0.000 C 
ENDBRANCH  42  43
ENDBRANCH  23  42
BRANCH  30  45
ATOM     45  O   UNL     1     -17.624  48.838  28.608  0.00  0.00    +0.000 OA
ATOM     46  H   UNL     1     -17.155  48.356  29.312  0.00  0.00    +0.000 HD
ENDBRANCH  30  45
BRANCH  30  47
ATOM     47  C   UNL     1     -17.204  51.128  28.228  0.00  0.00    +0.000 C 
ATOM     48  C   UNL     1     -16.571  52.257  27.433  0.00  0.00    +0.000 C 
ENDBRANCH  30  47
ENDBRANCH  19  23
BRANCH   7  49
ATOM     49  O   UNL     1      -3.462  50.181  29.639  0.00  0.00    +0.000 OA
ATOM     50  H   UNL     1      -3.825  50.780  30.324  0.00  0.00    +0.000 HD
ENDBRANCH   7  49
BRANCH   7  52
ATOM     51  O   UNL     1      -4.864  47.760  31.846  0.00  0.00    +0.000 OA
ATOM     52  C   UNL     1      -4.040  48.385  31.193  0.00  0.00    +0.000 C 
BRANCH  52  53
ATOM     53  O   UNL     1      -2.760  48.636  31.627  0.00  0.00    +0.000 OA
ATOM     54  C   UNL     1      -2.245  47.643  32.517  0.00  0.00    +0.000 C 
ENDBRANCH  52  53
ENDBRANCH   7  52
BRANCH  20  55
ATOM     55  O   UNL     1     -11.273  50.977  29.818  0.00  0.00    +0.000 OA
ATOM     56  C   UNL     1     -11.084  52.145  30.611  0.00  0.00    +0.000 C 
ENDBRANCH  20  55
BRANCH   6  57
ATOM     57  C   UNL     1      -3.850  49.484  26.609  0.00  0.00    +0.000 C 
ATOM     58  C   UNL     1      -2.346  49.695  26.423  0.00  0.00    +0.000 C 
ENDBRANCH   6  57
BRANCH   9  59
ATOM     59  O   UNL     1      -3.707  46.581  29.074  0.00  0.00    +0.000 OA
BRANCH  59  61
ATOM     60  O   UNL     1      -2.449  44.692  29.385  0.00  0.00    +0.000 OA
ATOM     61  C   UNL     1      -2.538  45.893  29.173  0.00  0.00    +0.000 C 
ATOM     62  C   UNL     1      -1.377  46.812  28.948  0.00  0.00    +0.000 C 
ENDBRANCH  59  61
ENDBRANCH   9  59
TORSDOF 12
ENDMDL
MODEL 2
REMARK VINA RESULT:      -6.5      2.213      3.278
REMARK  Name = 
REMARK  19 active torsions:
REMARK  status: ('A' for Active; 'I' for Inactive)
REMARK    1  A    between atoms: O_1  and  C_20
REMARK    2  A    between atoms: O_1  and  C_36
REMARK    3  A    between atoms: O_2  and  C_18
REMARK    4  A    between atoms: O_3  and  C_28
REMARK    5  A    between atoms: O_3  and  C_42
REMARK    6  A    between atoms: O_5  and  C_34
REMARK    7  A    between atoms: O_5  and  C_50
REMARK    8  A    between atoms: O_7  and  C_40
REMARK    9  A    between atoms: O_7  and  C_56
REMARK   10  A    between atoms: O_9  and  C_46
REMARK   11  A    between atoms: N_11  and  C_30
REMARK   12  A    between atoms: C_17  and  C_23
REMARK   13  A    between atoms: C_18  and  C_28
REMARK   14  A    between atoms: C_23  and  C_32
REMARK   15  A    between atoms: C_33  and  C_35
REMARK   16  A    between atoms: C_35  and  C_40
REMARK   17  A    between atoms: C_36  and  C_41
REMARK   18  A    between atoms: C_46  and  C_53
REMARK   19  A    between atoms: C_53  and  C_57
REMARK                            x       y       z     vdW  Elec       q    Type
REMARK                         _______ _______ _______ _____ _____    ______ ____
ROOT
ATOM      1  N   UNL     1      -3.220  46.578  27.173  0.00  0.00    +0.000 NA
ATOM      2  N   UNL     1      -3.921  48.384  31.535  0.00  0.00    +0.000 N 
ATOM      3  C   UNL     1      -3.528  47.478  29.302  0.00  0.00    +0.000 C 
ATOM      4  C   UNL     1      -2.725  47.690  28.006  0.00  0.00    +0.000 C 
ATOM      5  C   UNL     1      -2.884  48.253  30.468  0.00  0.00    +0.000 C 
ATOM      6  C   UNL     1      -1.147  47.786  28.236  0.00  0.00    +0.000 C 
ATOM      7  C   UNL     1      -1.468  47.809  30.870  0.00  0.00    +0.000 C 
ATOM      8  C   UNL     1      -3.728  45.953  29.403  0.00  0.00    +0.000 C 
ATOM      9  C   UNL     1      -0.684  47.221  29.651  0.00  0.00    +0.000 C 
ATOM     10  C   UNL     1      -4.905  48.103  29.415  0.00  0.00    +0.000 A 
ATOM     11  C   UNL     1      -3.372  45.404  28.023  0.00  0.00    +0.000 C 
ATOM     12  C   UNL     1      -5.091  48.549  30.731  0.00  0.00    +0.000 A 
ATOM     13  C   UNL     1      -0.375  47.022  27.157  0.00  0.00    +0.000 C 
ATOM     14  C   UNL     1      -2.456  46.338  25.958  0.00  0.00    +0.000 C 
ATOM     15  C   UNL     1      -0.973  46.391  26.138  0.00  0.00    +0.000 C 
ATOM     16  C   UNL     1      -5.904  48.206  28.453  0.00  0.00    +0.000 A 
ATOM     17  C   UNL     1      -3.726  49.425  32.543  0.00  0.00    +0.000 C 
ATOM     18  C   UNL     1      -6.313  49.072  31.107  0.00  0.00    +0.000 A 
ATOM     19  C   UNL     1      -7.160  48.740  28.803  0.00  0.00    +0.000 A 
ATOM     20  C   UNL     1      -7.342  49.159  30.154  0.00  0.00    +0.000 A 
ENDROOT
BRANCH  19  23
ATOM     21  N   UNL     1     -11.963  48.987  25.420  0.00  0.00    +0.000 NA
ATOM     22  N   UNL     1      -8.108  51.355  28.125  0.00  0.00    +0.000 N 
ATOM     23  C   UNL     1      -8.341  48.856  27.758  0.00  0.00    +0.000 C 
ATOM     24  C   UNL     1      -9.732  48.405  28.400  0.00  0.00    +0.000 C 
ATOM     25  C   UNL     1      -8.516  50.338  27.279  0.00  0.00    +0.000 A 
ATOM     26  C   UNL     1     -11.008  48.787  27.633  0.00  0.00    +0.000 C 
ATOM     27  C   UNL     1     -12.314  48.473  28.361  0.00  0.00    +0.000 C 
ATOM     28  C   UNL     1     -11.123  48.147  26.257  0.00  0.00    +0.000 C 
ATOM     29  C   UNL     1      -9.108  50.968  26.170  0.00  0.00    +0.000 A 
ATOM     30  C   UNL     1     -13.555  48.925  27.535  0.00  0.00    +0.000 C 
ATOM     31  C   UNL     1     -13.329  49.098  25.977  0.00  0.00    +0.000 C 
ATOM     32  C   UNL     1      -9.813  50.398  24.949  0.00  0.00    +0.000 C 
ATOM     33  C   UNL     1     -11.362  50.306  25.095  0.00  0.00    +0.000 C 
ATOM     34  C   UNL     1      -8.980  52.392  26.378  0.00  0.00    +0.000 A 
ATOM     35  C   UNL     1      -8.354  52.592  27.599  0.00  0.00    +0.000 A 
ATOM     36  C   UNL     1      -9.363  53.531  25.634  0.00  0.00    +0.000 A 
ATOM     37  C   UNL     1      -8.078  53.863  28.121  0.00  0.00    +0.000 A 
ATOM     38  C   UNL     1      -9.095  54.810  26.135  0.00  0.00    +0.000 A 
ATOM     39  C   UNL     1      -8.461  54.971  27.362  0.00  0.00    +0.000 A 
ATOM     40  H   UNL     1      -7.659  51.211  29.020  0.00  0.00    +0.000 HD
BRANCH  23  42
ATOM     41  O   UNL     1      -8.230  46.714  26.465  0.00  0.00    +0.000 OA
ATOM     42  C   UNL     1      -7.943  47.898  26.587  0.00  0.00    +0.000 C 
BRANCH  42  43
ATOM     43  O   UNL     1      -7.219  48.588  25.643  0.00  0.00    +0.000 OA
ATOM     44  C   UNL     1      -6.287  47.780  24.924  0.00  0.00    +0.000 C 
ENDBRANCH  42  43
ENDBRANCH  23  42
BRANCH  30  45
ATOM     45  O   UNL     1     -14.535  47.870  27.710  0.00  0.00    +0.000 OA
ATOM     46  H   UNL     1     -14.397  47.224  26.995  0.00  0.00    +0.000 HD
ENDBRANCH  30  45
BRANCH  30  47
ATOM     47  C   UNL     1     -14.233  50.166  28.160  0.00  0.00    +0.000 C 
ATOM     48  C   UNL     1     -13.587  51.510  27.870  0.00  0.00    +0.000 C 
ENDBRANCH  30  47
ENDBRANCH  19  23
BRANCH   7  49
ATOM     49  O   UNL     1      -0.766  49.039  31.245  0.00  0.00    +0.000 OA
ATOM     50  H   UNL     1      -0.117  48.779  31.932  0.00  0.00    +0.000 HD
ENDBRANCH   7  49
BRANCH   7  52
ATOM     51  O   UNL     1      -2.246  45.933  32.297  0.00  0.00    +0.000 OA
ATOM     52  C   UNL     1      -1.470  46.855  32.090  0.00  0.00    +0.000 C 
BRANCH  52  53
ATOM     53  O   UNL     1      -0.399  47.142  32.901  0.00  0.00    +0.000 OA
ATOM     54  C   UNL     1       0.209  45.990  33.488  0.00  0.00    +0.000 C 
ENDBRANCH  52  53
ENDBRANCH   7  52
BRANCH  20  55
ATOM     55  O   UNL     1      -8.553  49.716  30.481  0.00  0.00    +0.000 OA
ATOM     56  C   UNL     1      -8.742  49.988  31.866  0.00  0.00    +0.000 C 
ENDBRANCH  20  55
BRANCH   6  57
ATOM     57  C   UNL     1      -0.685  49.285  28.123  0.00  0.00    +0.000 C 
ATOM     58  C   UNL     1      -1.571  50.211  27.285  0.00  0.00    +0.000 C 
ENDBRANCH   6  57
BRANCH   9  59
ATOM     59  O   UNL     1      -0.754  45.775  29.605  0.00  0.00    +0.000 OA
BRANCH  59  61
ATOM     60  O   UNL     1       0.539  43.884  29.581  0.00  0.00    +0.000 OA
ATOM     61  C   UNL     1       0.416  45.092  29.726  0.00  0.00    +0.000 C 
ATOM     62  C   UNL     1       1.537  46.037  30.028  0.00  0.00    +0.000 C 
ENDBRANCH  59  61
ENDBRANCH   9  59
TORSDOF 12
ENDMDL
MODEL 3
REMARK VINA RESULT:      -6.5      2.649     11.062
REMARK  Name = 
REMARK  19 active torsions:
REMARK  status: ('A' for Active; 'I' for Inactive)
REMARK    1  A    between atoms: O_1  and  C_20
REMARK    2  A    between atoms: O_1  and  C_36
REMARK    3  A    between atoms: O_2  and  C_18
REMARK    4  A    between atoms: O_3  and  C_28
REMARK    5  A    between atoms: O_3  and  C_42
REMARK    6  A    between atoms: O_5  and  C_34
REMARK    7  A    between atoms: O_5  and  C_50
REMARK    8  A    between atoms: O_7  and  C_40
REMARK    9  A    between atoms: O_7  and  C_56
REMARK   10  A    between atoms: O_9  and  C_46
REMARK   11  A    between atoms: N_11  and  C_30
REMARK   12  A    between atoms: C_17  and  C_23
REMARK   13  A    between atoms: C_18  and  C_28
REMARK   14  A    between atoms: C_23  and  C_32
REMARK   15  A    between atoms: C_33  and  C_35
REMARK   16  A    between atoms: C_35  and  C_40
REMARK   17  A    between atoms: C_36  and  C_41
REMARK   18  A    between atoms: C_46  and  C_53
REMARK   19  A    between atoms: C_53  and  C_57
REMARK                            x       y       z     vdW  Elec       q    Type
REMARK                         _______ _______ _______ _____ _____    ______ ____
ROOT
ATOM      1  N   UNL     1      -8.087  50.218  29.887  0.00  0.00    +0.000 NA
ATOM      2  N   UNL     1      -7.407  48.520  25.479  0.00  0.00    +0.000 N 
ATOM      3  C   UNL     1      -7.770  49.421  27.719  0.00  0.00    +0.000 C 
ATOM      4  C   UNL     1      -7.958  50.728  28.509  0.00  0.00    +0.000 C 
ATOM      5  C   UNL     1      -8.034  49.655  26.218  0.00  0.00    +0.000 C 
ATOM      6  C   UNL     1      -9.141  51.649  27.956  0.00  0.00    +0.000 C 
ATOM      7  C   UNL     1      -9.466  50.074  25.846  0.00  0.00    +0.000 C 
ATOM      8  C   UNL     1      -8.584  48.365  28.492  0.00  0.00    +0.000 C 
ATOM      9  C   UNL     1     -10.152  50.868  27.006  0.00  0.00    +0.000 C 
ATOM     10  C   UNL     1      -6.370  48.859  27.564  0.00  0.00    +0.000 A 
ATOM     11  C   UNL     1      -8.887  48.999  29.848  0.00  0.00    +0.000 C 
ATOM     12  C   UNL     1      -6.245  48.306  26.282  0.00  0.00    +0.000 A 
ATOM     13  C   UNL     1      -9.957  52.262  29.097  0.00  0.00    +0.000 C 
ATOM     14  C   UNL     1      -8.544  51.197  30.861  0.00  0.00    +0.000 C 
ATOM     15  C   UNL     1      -9.670  52.061  30.391  0.00  0.00    +0.000 C 
ATOM     16  C   UNL     1      -5.339  48.800  28.496  0.00  0.00    +0.000 A 
ATOM     17  C   UNL     1      -7.134  48.709  24.055  0.00  0.00    +0.000 C 
ATOM     18  C   UNL     1      -5.082  47.645  25.936  0.00  0.00    +0.000 A 
ATOM     19  C   UNL     1      -4.139  48.137  28.172  0.00  0.00    +0.000 A 
ATOM     20  C   UNL     1      -4.042  47.553  26.875  0.00  0.00    +0.000 A 
ENDROOT
BRANCH  19  23
ATOM     21  N   UNL     1       0.437  47.091  31.712  0.00  0.00    +0.000 NA
ATOM     22  N   UNL     1      -1.767  49.659  27.670  0.00  0.00    +0.000 N 
ATOM     23  C   UNL     1      -2.946  48.016  29.202  0.00  0.00    +0.000 C 
ATOM     24  C   UNL     1      -2.199  46.611  29.063  0.00  0.00    +0.000 C 
ATOM     25  C   UNL     1      -1.875  49.131  28.946  0.00  0.00    +0.000 A 
ATOM     26  C   UNL     1      -0.824  46.485  29.740  0.00  0.00    +0.000 C 
ATOM     27  C   UNL     1      -0.082  45.181  29.449  0.00  0.00    +0.000 C 
ATOM     28  C   UNL     1      -0.860  46.626  31.255  0.00  0.00    +0.000 C 
ATOM     29  C   UNL     1      -0.849  49.726  29.702  0.00  0.00    +0.000 A 
ATOM     30  C   UNL     1       1.314  45.149  30.140  0.00  0.00    +0.000 C 
ATOM     31  C   UNL     1       1.501  46.118  31.379  0.00  0.00    +0.000 C 
ATOM     32  C   UNL     1      -0.399  49.501  31.136  0.00  0.00    +0.000 C 
ATOM     33  C   UNL     1       0.766  48.475  31.283  0.00  0.00    +0.000 C 
ATOM     34  C   UNL     1      -0.173  50.660  28.831  0.00  0.00    +0.000 A 
ATOM     35  C   UNL     1      -0.771  50.591  27.582  0.00  0.00    +0.000 A 
ATOM     36  C   UNL     1       0.914  51.548  28.998  0.00  0.00    +0.000 A 
ATOM     37  C   UNL     1      -0.356  51.362  26.489  0.00  0.00    +0.000 A 
ATOM     38  C   UNL     1       1.344  52.330  27.920  0.00  0.00    +0.000 A 
ATOM     39  C   UNL     1       0.716  52.237  26.683  0.00  0.00    +0.000 A 
ATOM     40  H   UNL     1      -2.364  49.408  26.893  0.00  0.00    +0.000 HD
BRANCH  23  42
ATOM     41  O   UNL     1      -3.980  47.236  31.346  0.00  0.00    +0.000 OA
ATOM     42  C   UNL     1      -3.610  48.145  30.612  0.00  0.00    +0.000 C 
BRANCH  42  43
ATOM     43  O   UNL     1      -3.709  49.471  30.964  0.00  0.00    +0.000 OA
ATOM     44  C   UNL     1      -3.987  49.684  32.348  0.00  0.00    +0.000 C 
ENDBRANCH  42  43
ENDBRANCH  23  42
BRANCH  30  45
ATOM     45  O   UNL     1       1.466  43.793  30.630  0.00  0.00    +0.000 OA
ATOM     46  H   UNL     1       2.381  43.702  30.952  0.00  0.00    +0.000 HD
ENDBRANCH  30  45
BRANCH  30  47
ATOM     47  C   UNL     1       2.460  45.301  29.112  0.00  0.00    +0.000 C 
ATOM     48  C   UNL     1       2.121  44.984  27.666  0.00  0.00    +0.000 C 
ENDBRANCH  30  47
ENDBRANCH  19  23
BRANCH   7  49
ATOM     49  O   UNL     1      -9.319  51.023  24.739  0.00  0.00    +0.000 OA
ATOM     50  H   UNL     1      -8.842  50.540  24.033  0.00  0.00    +0.000 HD
ENDBRANCH   7  49
BRANCH   7  52
ATOM     51  O   UNL     1     -10.532  47.834  25.954  0.00  0.00    +0.000 OA
ATOM     52  C   UNL     1     -10.324  48.881  25.356  0.00  0.00    +0.000 C 
BRANCH  52  53
ATOM     53  O   UNL     1     -10.905  49.195  24.151  0.00  0.00    +0.000 OA
ATOM     54  C   UNL     1     -12.301  49.486  24.240  0.00  0.00    +0.000 C 
ENDBRANCH  52  53
ENDBRANCH   7  52
BRANCH  20  55
ATOM     55  O   UNL     1      -2.856  46.944  26.549  0.00  0.00    +0.000 OA
ATOM     56  C   UNL     1      -2.976  45.780  25.735  0.00  0.00    +0.000 C 
ENDBRANCH  20  55
BRANCH   6  57
ATOM     57  C   UNL     1      -8.537  52.860  27.154  0.00  0.00    +0.000 C 
ATOM     58  C   UNL     1      -9.517  53.956  26.731  0.00  0.00    +0.000 C 
ENDBRANCH   6  57
BRANCH   9  59
ATOM     59  O   UNL     1     -10.982  50.017  27.831  0.00  0.00    +0.000 OA
BRANCH  59  61
ATOM     60  O   UNL     1     -12.856  51.210  27.268  0.00  0.00    +0.000 OA
ATOM     61  C   UNL     1     -12.318  50.274  27.843  0.00  0.00    +0.000 C 
ATOM     62  C   UNL     1     -13.038  49.225  28.632  0.00  0.00    +0.000 C 
ENDBRANCH  59  61
ENDBRANCH   9  59
TORSDOF 12
ENDMDL
MODEL 4
REMARK VINA RESULT:      -6.4     25.347     28.816
REMARK  Name = 
REMARK  19 active torsions:
REMARK  status: ('A' for Active; 'I' for Inactive)
REMARK    1  A    between atoms: O_1  and  C_20
REMARK    2  A    between atoms: O_1  and  C_36
REMARK    3  A    between atoms: O_2  and  C_18
REMARK    4  A    between atoms: O_3  and  C_28
REMARK    5  A    between atoms: O_3  and  C_42
REMARK    6  A    between atoms: O_5  and  C_34
REMARK    7  A    between atoms: O_5  and  C_50
REMARK    8  A    between atoms: O_7  and  C_40
REMARK    9  A    between atoms: O_7  and  C_56
REMARK   10  A    between atoms: O_9  and  C_46
REMARK   11  A    between atoms: N_11  and  C_30
REMARK   12  A    between atoms: C_17  and  C_23
REMARK   13  A    between atoms: C_18  and  C_28
REMARK   14  A    between atoms: C_23  and  C_32
REMARK   15  A    between atoms: C_33  and  C_35
REMARK   16  A    between atoms: C_35  and  C_40
REMARK   17  A    between atoms: C_36  and  C_41
REMARK   18  A    between atoms: C_46  and  C_53
REMARK   19  A    between atoms: C_53  and  C_57
REMARK                            x       y       z     vdW  Elec       q    Type
REMARK                         _______ _______ _______ _____ _____    ______ ____
ROOT
ATOM      1  N   UNL     1     -11.965  33.639   5.483  0.00  0.00    +0.000 NA
ATOM      2  N   UNL     1     -12.582  34.726   0.877  0.00  0.00    +0.000 N 
ATOM      3  C   UNL     1     -12.262  34.133   3.224  0.00  0.00    +0.000 C 
ATOM      4  C   UNL     1     -12.349  32.969   4.226  0.00  0.00    +0.000 C 
ATOM      5  C   UNL     1     -12.207  33.597   1.779  0.00  0.00    +0.000 C 
ATOM      6  C   UNL     1     -11.503  31.683   3.795  0.00  0.00    +0.000 C 
ATOM      7  C   UNL     1     -10.975  32.749   1.423  0.00  0.00    +0.000 C 
ATOM      8  C   UNL     1     -11.133  35.036   3.757  0.00  0.00    +0.000 C 
ATOM      9  C   UNL     1     -10.415  31.995   2.674  0.00  0.00    +0.000 C 
ATOM     10  C   UNL     1     -13.475  35.022   3.034  0.00  0.00    +0.000 A 
ATOM     11  C   UNL     1     -10.882  34.570   5.189  0.00  0.00    +0.000 C 
ATOM     12  C   UNL     1     -13.570  35.375   1.681  0.00  0.00    +0.000 A 
ATOM     13  C   UNL     1     -10.774  31.063   4.989  0.00  0.00    +0.000 C 
ATOM     14  C   UNL     1     -11.691  32.741   6.595  0.00  0.00    +0.000 C 
ATOM     15  C   UNL     1     -10.878  31.540   6.237  0.00  0.00    +0.000 C 
ATOM     16  C   UNL     1     -14.364  35.509   3.987  0.00  0.00    +0.000 A 
ATOM     17  C   UNL     1     -13.025  34.392  -0.476  0.00  0.00    +0.000 C 
ATOM     18  C   UNL     1     -14.546  36.264   1.275  0.00  0.00    +0.000 A 
ATOM     19  C   UNL     1     -15.374  36.413   3.604  0.00  0.00    +0.000 A 
ATOM     20  C   UNL     1     -15.436  36.785   2.228  0.00  0.00    +0.000 A 
ENDROOT
BRANCH  19  23
ATOM     21  N   UNL     1     -19.546  38.852   6.955  0.00  0.00    +0.000 NA
ATOM     22  N   UNL     1     -17.100  34.608   5.005  0.00  0.00    +0.000 N 
ATOM     23  C   UNL     1     -16.395  37.018   4.648  0.00  0.00    +0.000 C 
ATOM     24  C   UNL     1     -17.601  37.767   3.915  0.00  0.00    +0.000 C 
ATOM     25  C   UNL     1     -17.026  35.887   5.530  0.00  0.00    +0.000 A 
ATOM     26  C   UNL     1     -18.836  38.098   4.769  0.00  0.00    +0.000 C 
ATOM     27  C   UNL     1     -20.021  38.670   3.992  0.00  0.00    +0.000 C 
ATOM     28  C   UNL     1     -18.564  39.071   5.907  0.00  0.00    +0.000 C 
ATOM     29  C   UNL     1     -17.674  35.834   6.777  0.00  0.00    +0.000 A 
ATOM     30  C   UNL     1     -21.240  38.942   4.923  0.00  0.00    +0.000 C 
ATOM     31  C   UNL     1     -20.917  39.111   6.464  0.00  0.00    +0.000 C 
ATOM     32  C   UNL     1     -17.992  36.922   7.791  0.00  0.00    +0.000 C 
ATOM     33  C   UNL     1     -19.415  37.538   7.637  0.00  0.00    +0.000 C 
ATOM     34  C   UNL     1     -18.080  34.463   6.982  0.00  0.00    +0.000 A 
ATOM     35  C   UNL     1     -17.706  33.734   5.863  0.00  0.00    +0.000 A 
ATOM     36  C   UNL     1     -18.753  33.783   8.022  0.00  0.00    +0.000 A 
ATOM     37  C   UNL     1     -17.954  32.362   5.722  0.00  0.00    +0.000 A 
ATOM     38  C   UNL     1     -19.011  32.412   7.904  0.00  0.00    +0.000 A 
ATOM     39  C   UNL     1     -18.615  31.714   6.768  0.00  0.00    +0.000 A 
ATOM     40  H   UNL     1     -16.732  34.336   4.102  0.00  0.00    +0.000 HD
BRANCH  23  42
ATOM     41  O   UNL     1     -15.086  37.858   6.612  0.00  0.00    +0.000 OA
ATOM     42  C   UNL     1     -15.558  38.033   5.495  0.00  0.00    +0.000 C 
BRANCH  42  43
ATOM     43  O   UNL     1     -15.378  39.198   4.787  0.00  0.00    +0.000 OA
ATOM     44  C   UNL     1     -15.166  40.347   5.606  0.00  0.00    +0.000 C 
ENDBRANCH  42  43
ENDBRANCH  23  42
BRANCH  30  45
ATOM     45  O   UNL     1     -21.799  40.198   4.462  0.00  0.00    +0.000 OA
ATOM     46  H   UNL     1     -22.408  40.515   5.152  0.00  0.00    +0.000 HD
ENDBRANCH  30  45
BRANCH  30  47
ATOM     47  C   UNL     1     -22.377  37.921   4.682  0.00  0.00    +0.000 C 
ATOM     48  C   UNL     1     -22.227  36.567   5.352  0.00  0.00    +0.000 C 
ENDBRANCH  30  47
ENDBRANCH  19  23
BRANCH   7  49
ATOM     49  O   UNL     1     -11.465  31.712   0.513  0.00  0.00    +0.000 OA
ATOM     50  H   UNL     1     -11.117  31.944  -0.373  0.00  0.00    +0.000 HD
ENDBRANCH   7  49
BRANCH   7  52
ATOM     51  O   UNL     1      -9.507  34.699   0.965  0.00  0.00    +0.000 OA
ATOM     52  C   UNL     1      -9.885  33.569   0.688  0.00  0.00    +0.000 C 
BRANCH  52  53
ATOM     53  O   UNL     1      -9.322  32.802  -0.303  0.00  0.00    +0.000 OA
ATOM     54  C   UNL     1      -7.942  33.088  -0.544  0.00  0.00    +0.000 C 
ENDBRANCH  52  53
ENDBRANCH   7  52
BRANCH  20  55
ATOM     55  O   UNL     1     -16.446  37.634   1.852  0.00  0.00    +0.000 OA
ATOM     56  C   UNL     1     -16.374  38.106   0.510  0.00  0.00    +0.000 C 
ENDBRANCH  20  55
BRANCH   6  57
ATOM     57  C   UNL     1     -12.473  30.570   3.251  0.00  0.00    +0.000 C 
ATOM     58  C   UNL     1     -13.941  30.680   3.669  0.00  0.00    +0.000 C 
ENDBRANCH   6  57
BRANCH   9  59
ATOM     59  O   UNL     1      -9.320  32.709   3.295  0.00  0.00    +0.000 OA
BRANCH  59  61
ATOM     60  O   UNL     1      -7.037  32.893   3.237  0.00  0.00    +0.000 OA
ATOM     61  C   UNL     1      -8.062  32.253   3.050  0.00  0.00    +0.000 C 
ATOM     62  C   UNL     1      -8.113  30.842   2.552  0.00  0.00    +0.000 C 
ENDBRANCH  59  61
ENDBRANCH   9  59
TORSDOF 12
ENDMDL
MODEL 5
REMARK VINA RESULT:      -6.3     26.576     29.417
REMARK  Name = 
REMARK  19 active torsions:
REMARK  status: ('A' for Active; 'I' for Inactive)
REMARK    1  A    between atoms: O_1  and  C_20
REMARK    2  A    between atoms: O_1  and  C_36
REMARK    3  A    between atoms: O_2  and  C_18
REMARK    4  A    between atoms: O_3  and  C_28
REMARK    5  A    between atoms: O_3  and  C_42
REMARK    6  A    between atoms: O_5  and  C_34
REMARK    7  A    between atoms: O_5  and  C_50
REMARK    8  A    between atoms: O_7  and  C_40
REMARK    9  A    between atoms: O_7  and  C_56
REMARK   10  A    between atoms: O_9  and  C_46
REMARK   11  A    between atoms: N_11  and  C_30
REMARK   12  A    between atoms: C_17  and  C_23
REMARK   13  A    between atoms: C_18  and  C_28
REMARK   14  A    between atoms: C_23  and  C_32
REMARK   15  A    between atoms: C_33  and  C_35
REMARK   16  A    between atoms: C_35  and  C_40
REMARK   17  A    between atoms: C_36  and  C_41
REMARK   18  A    between atoms: C_46  and  C_53
REMARK   19  A    between atoms: C_53  and  C_57
REMARK                            x       y       z     vdW  Elec       q    Type
REMARK                         _______ _______ _______ _____ _____    ______ ____
ROOT
ATOM      1  N   UNL     1      -6.439  34.864   3.309  0.00  0.00    +0.000 NA
ATOM      2  N   UNL     1      -8.718  38.196   0.762  0.00  0.00    +0.000 N 
ATOM      3  C   UNL     1      -7.523  36.492   2.039  0.00  0.00    +0.000 C 
ATOM      4  C   UNL     1      -6.447  35.398   1.934  0.00  0.00    +0.000 C 
ATOM      5  C   UNL     1      -7.416  37.470   0.852  0.00  0.00    +0.000 C 
ATOM      6  C   UNL     1      -5.056  35.918   1.343  0.00  0.00    +0.000 C 
ATOM      7  C   UNL     1      -6.113  38.283   0.766  0.00  0.00    +0.000 C 
ATOM      8  C   UNL     1      -7.420  37.016   3.485  0.00  0.00    +0.000 C 
ATOM      9  C   UNL     1      -4.909  37.504   1.390  0.00  0.00    +0.000 C 
ATOM     10  C   UNL     1      -8.974  36.109   1.820  0.00  0.00    +0.000 A 
ATOM     11  C   UNL     1      -6.579  35.984   4.232  0.00  0.00    +0.000 C 
ATOM     12  C   UNL     1      -9.617  37.150   1.136  0.00  0.00    +0.000 A 
ATOM     13  C   UNL     1      -3.866  35.321   2.098  0.00  0.00    +0.000 C 
ATOM     14  C   UNL     1      -5.327  33.977   3.614  0.00  0.00    +0.000 C 
ATOM     15  C   UNL     1      -4.003  34.444   3.103  0.00  0.00    +0.000 C 
ATOM     16  C   UNL     1      -9.655  34.973   2.242  0.00  0.00    +0.000 A 
ATOM     17  C   UNL     1      -9.040  38.849  -0.506  0.00  0.00    +0.000 C 
ATOM     18  C   UNL     1     -10.977  37.075   0.903  0.00  0.00    +0.000 A 
ATOM     19  C   UNL     1     -11.041  34.863   2.015  0.00  0.00    +0.000 A 
ATOM     20  C   UNL     1     -11.685  35.946   1.346  0.00  0.00    +0.000 A 
ENDROOT
BRANCH  19  23
ATOM     21  N   UNL     1     -13.591  30.030   4.186  0.00  0.00    +0.000 NA
ATOM     22  N   UNL     1     -13.114  35.275   3.947  0.00  0.00    +0.000 N 
ATOM     23  C   UNL     1     -11.871  33.606   2.496  0.00  0.00    +0.000 C 
ATOM     24  C   UNL     1     -11.008  32.677   3.466  0.00  0.00    +0.000 C 
ATOM     25  C   UNL     1     -13.141  34.052   3.299  0.00  0.00    +0.000 A 
ATOM     26  C   UNL     1     -11.773  31.622   4.282  0.00  0.00    +0.000 C 
ATOM     27  C   UNL     1     -10.930  30.866   5.307  0.00  0.00    +0.000 C 
ATOM     28  C   UNL     1     -12.467  30.564   3.437  0.00  0.00    +0.000 C 
ATOM     29  C   UNL     1     -14.368  33.457   3.641  0.00  0.00    +0.000 A 
ATOM     30  C   UNL     1     -11.787  29.846   6.115  0.00  0.00    +0.000 C 
ATOM     31  C   UNL     1     -13.139  29.379   5.435  0.00  0.00    +0.000 C 
ATOM     32  C   UNL     1     -14.947  32.089   3.315  0.00  0.00    +0.000 C 
ATOM     33  C   UNL     1     -14.685  31.010   4.409  0.00  0.00    +0.000 C 
ATOM     34  C   UNL     1     -15.077  34.403   4.472  0.00  0.00    +0.000 A 
ATOM     35  C   UNL     1     -14.268  35.517   4.638  0.00  0.00    +0.000 A 
ATOM     36  C   UNL     1     -16.336  34.396   5.113  0.00  0.00    +0.000 A 
ATOM     37  C   UNL     1     -14.644  36.632   5.398  0.00  0.00    +0.000 A 
ATOM     38  C   UNL     1     -16.733  35.500   5.876  0.00  0.00    +0.000 A 
ATOM     39  C   UNL     1     -15.896  36.602   6.016  0.00  0.00    +0.000 A 
ATOM     40  H   UNL     1     -12.343  35.930   3.905  0.00  0.00    +0.000 HD
BRANCH  23  42
ATOM     41  O   UNL     1     -13.331  32.783   0.634  0.00  0.00    +0.000 OA
ATOM     42  C   UNL     1     -12.239  32.835   1.185  0.00  0.00    +0.000 C 
BRANCH  42  43
ATOM     43  O   UNL     1     -11.121  32.213   0.679  0.00  0.00    +0.000 OA
ATOM     44  C   UNL     1     -10.871  32.499  -0.696  0.00  0.00    +0.000 C 
ENDBRANCH  42  43
ENDBRANCH  23  42
BRANCH  30  45
ATOM     45  O   UNL     1     -10.949  28.671   6.255  0.00  0.00    +0.000 OA
ATOM     46  H   UNL     1     -11.076  28.329   7.158  0.00  0.00    +0.000 HD
ENDBRANCH  30  45
BRANCH  30  47
ATOM     47  C   UNL     1     -12.007  30.318   7.572  0.00  0.00    +0.000 C 
ATOM     48  C   UNL     1     -11.253  31.563   8.003  0.00  0.00    +0.000 C 
ENDBRANCH  30  47
ENDBRANCH  19  23
BRANCH   7  49
ATOM     49  O   UNL     1      -5.821  38.400  -0.664  0.00  0.00    +0.000 OA
ATOM     50  H   UNL     1      -4.859  38.235  -0.756  0.00  0.00    +0.000 HD
ENDBRANCH   7  49
BRANCH   7  52
ATOM     51  O   UNL     1      -6.873  40.023   2.366  0.00  0.00    +0.000 OA
ATOM     52  C   UNL     1      -6.265  39.708   1.353  0.00  0.00    +0.000 C 
BRANCH  52  53
ATOM     53  O   UNL     1      -5.534  40.596   0.601  0.00  0.00    +0.000 OA
ATOM     54  C   UNL     1      -6.180  41.854   0.398  0.00  0.00    +0.000 C 
ENDBRANCH  52  53
ENDBRANCH   7  52
BRANCH  20  55
ATOM     55  O   UNL     1     -13.027  35.817   1.091  0.00  0.00    +0.000 OA
ATOM     56  C   UNL     1     -13.432  36.183  -0.225  0.00  0.00    +0.000 C 
ENDBRANCH  20  55
BRANCH   6  57
ATOM     57  C   UNL     1      -4.905  35.447  -0.150  0.00  0.00    +0.000 C 
ATOM     58  C   UNL     1      -5.889  34.380  -0.632  0.00  0.00    +0.000 C 
ENDBRANCH   6  57
BRANCH   9  59
ATOM     59  O   UNL     1      -4.659  37.894   2.762  0.00  0.00    +0.000 OA
BRANCH  59  61
ATOM     60  O   UNL     1      -3.521  39.460   3.987  0.00  0.00    +0.000 OA
ATOM     61  C   UNL     1      -3.644  38.771   2.983  0.00  0.00    +0.000 C 
ATOM     62  C   UNL     1      -2.680  38.746   1.838  0.00  0.00    +0.000 C 
ENDBRANCH  59  61
ENDBRANCH   9  59
TORSDOF 12
ENDMDL
MODEL 6
REMARK VINA RESULT:      -6.3      3.959      7.476
REMARK  Name = 
REMARK  19 active torsions:
REMARK  status: ('A' for Active; 'I' for Inactive)
REMARK    1  A    between atoms: O_1  and  C_20
REMARK    2  A    between atoms: O_1  and  C_36
REMARK    3  A    between atoms: O_2  and  C_18
REMARK    4  A    between atoms: O_3  and  C_28
REMARK    5  A    between atoms: O_3  and  C_42
REMARK    6  A    between atoms: O_5  and  C_34
REMARK    7  A    between atoms: O_5  and  C_50
REMARK    8  A    between atoms: O_7  and  C_40
REMARK    9  A    between atoms: O_7  and  C_56
REMARK   10  A    between atoms: O_9  and  C_46
REMARK   11  A    between atoms: N_11  and  C_30
REMARK   12  A    between atoms: C_17  and  C_23
REMARK   13  A    between atoms: C_18  and  C_28
REMARK   14  A    between atoms: C_23  and  C_32
REMARK   15  A    between atoms: C_33  and  C_35
REMARK   16  A    between atoms: C_35  and  C_40
REMARK   17  A    between atoms: C_36  and  C_41
REMARK   18  A    between atoms: C_46  and  C_53
REMARK   19  A    between atoms: C_53  and  C_57
REMARK                            x       y       z     vdW  Elec       q    Type
REMARK                         _______ _______ _______ _____ _____    ______ ____
ROOT
ATOM      1  N   UNL     1      -1.280  45.486  31.163  0.00  0.00    +0.000 NA
ATOM      2  N   UNL     1      -0.799  50.115  32.219  0.00  0.00    +0.000 N 
ATOM      3  C   UNL     1      -1.009  47.746  31.666  0.00  0.00    +0.000 C 
ATOM      4  C   UNL     1      -0.432  46.629  30.779  0.00  0.00    +0.000 C 
ATOM      5  C   UNL     1      -0.022  48.927  31.756  0.00  0.00    +0.000 C 
ATOM      6  C   UNL     1       1.150  46.447  30.921  0.00  0.00    +0.000 C 
ATOM      7  C   UNL     1       1.328  48.625  32.427  0.00  0.00    +0.000 C 
ATOM      8  C   UNL     1      -1.483  47.034  32.947  0.00  0.00    +0.000 C 
ATOM      9  C   UNL     1       1.744  47.129  32.232  0.00  0.00    +0.000 C 
ATOM     10  C   UNL     1      -2.191  48.545  31.152  0.00  0.00    +0.000 A 
ATOM     11  C   UNL     1      -1.502  45.547  32.603  0.00  0.00    +0.000 C 
ATOM     12  C   UNL     1      -2.041  49.880  31.551  0.00  0.00    +0.000 A 
ATOM     13  C   UNL     1       1.545  44.969  30.949  0.00  0.00    +0.000 C 
ATOM     14  C   UNL     1      -0.814  44.192  30.688  0.00  0.00    +0.000 C 
ATOM     15  C   UNL     1       0.657  43.972  30.830  0.00  0.00    +0.000 C 
ATOM     16  C   UNL     1      -3.309  48.107  30.451  0.00  0.00    +0.000 A 
ATOM     17  C   UNL     1      -0.221  51.436  31.978  0.00  0.00    +0.000 C 
ATOM     18  C   UNL     1      -3.046  50.790  31.282  0.00  0.00    +0.000 A 
ATOM     19  C   UNL     1      -4.349  49.010  30.156  0.00  0.00    +0.000 A 
ATOM     20  C   UNL     1      -4.194  50.357  30.598  0.00  0.00    +0.000 A 
ENDROOT
BRANCH  19  23
ATOM     21  N   UNL     1      -9.235  47.973  27.054  0.00  0.00    +0.000 NA
ATOM     22  N   UNL     1      -4.041  47.443  27.780  0.00  0.00    +0.000 N 
ATOM     23  C   UNL     1      -5.655  48.560  29.386  0.00  0.00    +0.000 C 
ATOM     24  C   UNL     1      -6.326  49.788  28.615  0.00  0.00    +0.000 C 
ATOM     25  C   UNL     1      -5.319  47.472  28.310  0.00  0.00    +0.000 A 
ATOM     26  C   UNL     1      -7.385  49.447  27.553  0.00  0.00    +0.000 C 
ATOM     27  C   UNL     1      -7.882  50.638  26.736  0.00  0.00    +0.000 C 
ATOM     28  C   UNL     1      -8.626  48.763  28.109  0.00  0.00    +0.000 C 
ATOM     29  C   UNL     1      -6.051  46.493  27.615  0.00  0.00    +0.000 A 
ATOM     30  C   UNL     1      -8.922  50.202  25.661  0.00  0.00    +0.000 C 
ATOM     31  C   UNL     1      -9.664  48.828  25.926  0.00  0.00    +0.000 C 
ATOM     32  C   UNL     1      -7.519  46.101  27.680  0.00  0.00    +0.000 C 
ATOM     33  C   UNL     1      -8.414  46.812  26.620  0.00  0.00    +0.000 C 
ATOM     34  C   UNL     1      -5.136  45.857  26.696  0.00  0.00    +0.000 A 
ATOM     35  C   UNL     1      -3.900  46.472  26.828  0.00  0.00    +0.000 A 
ATOM     36  C   UNL     1      -5.261  44.817  25.747  0.00  0.00    +0.000 A 
ATOM     37  C   UNL     1      -2.776  46.106  26.076  0.00  0.00    +0.000 A 
ATOM     38  C   UNL     1      -4.151  44.434  24.985  0.00  0.00    +0.000 A 
ATOM     39  C   UNL     1      -2.926  45.072  25.150  0.00  0.00    +0.000 A 
ATOM     40  H   UNL     1      -3.285  48.051  28.070  0.00  0.00    +0.000 HD
BRANCH  23  42
ATOM     41  O   UNL     1      -6.758  46.860  30.857  0.00  0.00    +0.000 OA
ATOM     42  C   UNL     1      -6.617  48.021  30.495  0.00  0.00    +0.000 C 
BRANCH  42  43
ATOM     43  O   UNL     1      -7.301  49.067  31.070  0.00  0.00    +0.000 OA
ATOM     44  C   UNL     1      -8.402  48.661  31.883  0.00  0.00    +0.000 C 
ENDBRANCH  42  43
ENDBRANCH  23  42
BRANCH  30  45
ATOM     45  O   UNL     1      -9.933  51.241  25.664  0.00  0.00    +0.000 OA
ATOM     46  H   UNL     1      -9.561  52.006  26.139  0.00  0.00    +0.000 HD
ENDBRANCH  30  45
BRANCH  30  47
ATOM     47  C   UNL     1      -8.327  50.270  24.235  0.00  0.00    +0.000 C 
ATOM     48  C   UNL     1      -7.455  49.102  23.807  0.00  0.00    +0.000 C 
ENDBRANCH  30  47
ENDBRANCH  19  23
BRANCH   7  49
ATOM     49  O   UNL     1       2.316  49.417  31.691  0.00  0.00    +0.000 OA
ATOM     50  H   UNL     1       2.224  49.156  30.751  0.00  0.00    +0.000 HD
ENDBRANCH   7  49
BRANCH   7  52
ATOM     51  O   UNL     1       0.514  48.828  34.764  0.00  0.00    +0.000 OA
ATOM     52  C   UNL     1       1.361  49.061  33.913  0.00  0.00    +0.000 C 
BRANCH  52  53
ATOM     53  O   UNL     1       2.549  49.698  34.180  0.00  0.00    +0.000 OA
ATOM     54  C   UNL     1       2.963  49.606  35.544  0.00  0.00    +0.000 C 
ENDBRANCH  52  53
ENDBRANCH   7  52
BRANCH  20  55
ATOM     55  O   UNL     1      -5.190  51.243  30.273  0.00  0.00    +0.000 OA
ATOM     56  C   UNL     1      -4.937  52.599  30.630  0.00  0.00    +0.000 C 
ENDBRANCH  20  55
BRANCH   6  57
ATOM     57  C   UNL     1       1.869  47.067  29.667  0.00  0.00    +0.000 C 
ATOM     58  C   UNL     1       1.059  47.115  28.370  0.00  0.00    +0.000 C 
ENDBRANCH   6  57
BRANCH   9  59
ATOM     59  O   UNL     1       1.383  46.311  33.371  0.00  0.00    +0.000 OA
BRANCH  59  61
ATOM     60  O   UNL     1       3.473  46.281  34.309  0.00  0.00    +0.000 OA
ATOM     61  C   UNL     1       2.399  45.744  34.076  0.00  0.00    +0.000 C 
ATOM     62  C   UNL     1       1.998  44.384  34.555  0.00  0.00    +0.000 C 
ENDBRANCH  59  61
ENDBRANCH   9  59
TORSDOF 12
ENDMDL
MODEL 7
REMARK VINA RESULT:      -6.2      2.318      5.162
REMARK  Name = 
REMARK  19 active torsions:
REMARK  status: ('A' for Active; 'I' for Inactive)
REMARK    1  A    between atoms: O_1  and  C_20
REMARK    2  A    between atoms: O_1  and  C_36
REMARK    3  A    between atoms: O_2  and  C_18
REMARK    4  A    between atoms: O_3  and  C_28
REMARK    5  A    between atoms: O_3  and  C_42
REMARK    6  A    between atoms: O_5  and  C_34
REMARK    7  A    between atoms: O_5  and  C_50
REMARK    8  A    between atoms: O_7  and  C_40
REMARK    9  A    between atoms: O_7  and  C_56
REMARK   10  A    between atoms: O_9  and  C_46
REMARK   11  A    between atoms: N_11  and  C_30
REMARK   12  A    between atoms: C_17  and  C_23
REMARK   13  A    between atoms: C_18  and  C_28
REMARK   14  A    between atoms: C_23  and  C_32
REMARK   15  A    between atoms: C_33  and  C_35
REMARK   16  A    between atoms: C_35  and  C_40
REMARK   17  A    between atoms: C_36  and  C_41
REMARK   18  A    between atoms: C_46  and  C_53
REMARK   19  A    between atoms: C_53  and  C_57
REMARK                            x       y       z     vdW  Elec       q    Type
REMARK                         _______ _______ _______ _____ _____    ______ ____
ROOT
ATOM      1  N   UNL     1      -5.493  51.270  29.351  0.00  0.00    +0.000 NA
ATOM      2  N   UNL     1      -5.375  47.423  26.530  0.00  0.00    +0.000 N 
ATOM      3  C   UNL     1      -5.423  49.369  28.003  0.00  0.00    +0.000 C 
ATOM      4  C   UNL     1      -5.522  49.801  29.477  0.00  0.00    +0.000 C 
ATOM      5  C   UNL     1      -5.011  47.887  27.901  0.00  0.00    +0.000 C 
ATOM      6  C   UNL     1      -4.422  49.125  30.420  0.00  0.00    +0.000 C 
ATOM      7  C   UNL     1      -3.618  47.538  28.451  0.00  0.00    +0.000 C 
ATOM      8  C   UNL     1      -4.570  50.458  27.324  0.00  0.00    +0.000 C 
ATOM      9  C   UNL     1      -3.200  48.501  29.611  0.00  0.00    +0.000 C 
ATOM     10  C   UNL     1      -6.699  49.251  27.193  0.00  0.00    +0.000 A 
ATOM     11  C   UNL     1      -4.530  51.619  28.314  0.00  0.00    +0.000 C 
ATOM     12  C   UNL     1      -6.585  48.154  26.328  0.00  0.00    +0.000 A 
ATOM     13  C   UNL     1      -3.849  50.129  31.423  0.00  0.00    +0.000 C 
ATOM     14  C   UNL     1      -5.304  51.986  30.603  0.00  0.00    +0.000 C 
ATOM     15  C   UNL     1      -4.262  51.402  31.502  0.00  0.00    +0.000 C 
ATOM     16  C   UNL     1      -7.818  50.078  27.192  0.00  0.00    +0.000 A 
ATOM     17  C   UNL     1      -5.493  45.981  26.314  0.00  0.00    +0.000 C 
ATOM     18  C   UNL     1      -7.590  47.899  25.415  0.00  0.00    +0.000 A 
ATOM     19  C   UNL     1      -8.863  49.840  26.277  0.00  0.00    +0.000 A 
ATOM     20  C   UNL     1      -8.716  48.739  25.383  0.00  0.00    +0.000 A 
ENDROOT
BRANCH  19  23
ATOM     21  N   UNL     1     -13.683  53.089  25.391  0.00  0.00    +0.000 NA
ATOM     22  N   UNL     1     -11.296  48.846  27.413  0.00  0.00    +0.000 N 
ATOM     23  C   UNL     1     -10.146  50.762  26.214  0.00  0.00    +0.000 C 
ATOM     24  C   UNL     1     -10.741  50.828  24.733  0.00  0.00    +0.000 C 
ATOM     25  C   UNL     1     -11.279  50.203  27.139  0.00  0.00    +0.000 A 
ATOM     26  C   UNL     1     -12.164  51.391  24.581  0.00  0.00    +0.000 C 
ATOM     27  C   UNL     1     -12.749  51.289  23.173  0.00  0.00    +0.000 C 
ATOM     28  C   UNL     1     -12.306  52.848  24.997  0.00  0.00    +0.000 C 
ATOM     29  C   UNL     1     -12.432  50.736  27.745  0.00  0.00    +0.000 A 
ATOM     30  C   UNL     1     -14.203  51.845  23.113  0.00  0.00    +0.000 C 
ATOM     31  C   UNL     1     -14.611  52.854  24.263  0.00  0.00    +0.000 C 
ATOM     32  C   UNL     1     -13.013  52.141  27.734  0.00  0.00    +0.000 C 
ATOM     33  C   UNL     1     -14.088  52.376  26.630  0.00  0.00    +0.000 C 
ATOM     34  C   UNL     1     -13.091  49.646  28.425  0.00  0.00    +0.000 A 
ATOM     35  C   UNL     1     -12.357  48.492  28.198  0.00  0.00    +0.000 A 
ATOM     36  C   UNL     1     -14.266  49.542  29.204  0.00  0.00    +0.000 A 
ATOM     37  C   UNL     1     -12.719  47.238  28.708  0.00  0.00    +0.000 A 
ATOM     38  C   UNL     1     -14.646  48.300  29.726  0.00  0.00    +0.000 A 
ATOM     39  C   UNL     1     -13.881  47.165  29.480  0.00  0.00    +0.000 A 
ATOM     40  H   UNL     1     -10.597  48.188  27.092  0.00  0.00    +0.000 HD
BRANCH  23  42
ATOM     41  O   UNL     1      -9.745  52.673  27.783  0.00  0.00    +0.000 OA
ATOM     42  C   UNL     1      -9.653  52.176  26.668  0.00  0.00    +0.000 C 
BRANCH  42  43
ATOM     43  O   UNL     1      -9.044  52.820  25.616  0.00  0.00    +0.000 OA
ATOM     44  C   UNL     1      -9.002  54.240  25.751  0.00  0.00    +0.000 C 
ENDBRANCH  42  43
ENDBRANCH  23  42
BRANCH  30  45
ATOM     45  O   UNL     1     -14.283  52.569  21.859  0.00  0.00    +0.000 OA
ATOM     46  H   UNL     1     -14.990  52.158  21.331  0.00  0.00    +0.000 HD
ENDBRANCH  30  45
BRANCH  30  47
ATOM     47  C   UNL     1     -15.239  50.708  22.950  0.00  0.00    +0.000 C 
ATOM     48  C   UNL     1     -15.497  49.844  24.172  0.00  0.00    +0.000 C 
ENDBRANCH  30  47
ENDBRANCH  19  23
BRANCH   7  49
ATOM     49  O   UNL     1      -3.760  46.213  29.059  0.00  0.00    +0.000 OA
ATOM     50  H   UNL     1      -4.608  45.853  28.726  0.00  0.00    +0.000 HD
ENDBRANCH   7  49
BRANCH   7  52
ATOM     51  O   UNL     1      -2.297  48.302  26.492  0.00  0.00    +0.000 OA
ATOM     52  C   UNL     1      -2.546  47.452  27.336  0.00  0.00    +0.000 C 
BRANCH  52  53
ATOM     53  O   UNL     1      -1.831  46.287  27.473  0.00  0.00    +0.000 OA
ATOM     54  C   UNL     1      -0.430  46.485  27.669  0.00  0.00    +0.000 C 
ENDBRANCH  52  53
ENDBRANCH   7  52
BRANCH  20  55
ATOM     55  O   UNL     1      -9.753  48.487  24.521  0.00  0.00    +0.000 OA
ATOM     56  C   UNL     1      -9.988  47.110  24.240  0.00  0.00    +0.000 C 
ENDBRANCH  20  55
BRANCH   6  57
ATOM     57  C   UNL     1      -5.088  47.985  31.276  0.00  0.00    +0.000 C 
ATOM     58  C   UNL     1      -6.617  47.970  31.320  0.00  0.00    +0.000 C 
ENDBRANCH   6  57
BRANCH   9  59
ATOM     59  O   UNL     1      -2.367  49.588  29.142  0.00  0.00    +0.000 OA
BRANCH  59  61
ATOM     60  O   UNL     1      -0.613  48.916  30.455  0.00  0.00    +0.000 OA
ATOM     61  C   UNL     1      -1.066  49.589  29.539  0.00  0.00    +0.000 C 
ATOM     62  C   UNL     1      -0.262  50.507  28.671  0.00  0.00    +0.000 C 
ENDBRANCH  59  61
ENDBRANCH   9  59
TORSDOF 12
ENDMDL
MODEL 8
REMARK VINA RESULT:      -6.2      1.977      2.741
REMARK  Name = 
REMARK  19 active torsions:
REMARK  status: ('A' for Active; 'I' for Inactive)
REMARK    1  A    between atoms: O_1  and  C_20
REMARK    2  A    between atoms: O_1  and  C_36
REMARK    3  A    between atoms: O_2  and  C_18
REMARK    4  A    between atoms: O_3  and  C_28
REMARK    5  A    between atoms: O_3  and  C_42
REMARK    6  A    between atoms: O_5  and  C_34
REMARK    7  A    between atoms: O_5  and  C_50
REMARK    8  A    between atoms: O_7  and  C_40
REMARK    9  A    between atoms: O_7  and  C_56
REMARK   10  A    between atoms: O_9  and  C_46
REMARK   11  A    between atoms: N_11  and  C_30
REMARK   12  A    between atoms: C_17  and  C_23
REMARK   13  A    between atoms: C_18  and  C_28
REMARK   14  A    between atoms: C_23  and  C_32
REMARK   15  A    between atoms: C_33  and  C_35
REMARK   16  A    between atoms: C_35  and  C_40
REMARK   17  A    between atoms: C_36  and  C_41
REMARK   18  A    between atoms: C_46  and  C_53
REMARK   19  A    between atoms: C_53  and  C_57
REMARK                            x       y       z     vdW  Elec       q    Type
REMARK                         _______ _______ _______ _____ _____    ______ ____
ROOT
ATOM      1  N   UNL     1      -6.816  48.634  26.296  0.00  0.00    +0.000 NA
ATOM      2  N   UNL     1      -8.965  49.330  30.501  0.00  0.00    +0.000 N 
ATOM      3  C   UNL     1      -7.834  48.994  28.362  0.00  0.00    +0.000 C 
ATOM      4  C   UNL     1      -6.736  49.557  27.444  0.00  0.00    +0.000 C 
ATOM      5  C   UNL     1      -7.661  49.525  29.799  0.00  0.00    +0.000 C 
ATOM      6  C   UNL     1      -5.316  49.712  28.160  0.00  0.00    +0.000 C 
ATOM      7  C   UNL     1      -6.368  49.105  30.519  0.00  0.00    +0.000 C 
ATOM      8  C   UNL     1      -7.841  47.476  28.094  0.00  0.00    +0.000 C 
ATOM      9  C   UNL     1      -5.198  48.872  29.508  0.00  0.00    +0.000 C 
ATOM     10  C   UNL     1      -9.260  49.474  28.170  0.00  0.00    +0.000 A 
ATOM     11  C   UNL     1      -7.037  47.288  26.810  0.00  0.00    +0.000 C 
ATOM     12  C   UNL     1      -9.870  49.590  29.426  0.00  0.00    +0.000 A 
ATOM     13  C   UNL     1      -4.172  49.276  27.242  0.00  0.00    +0.000 C 
ATOM     14  C   UNL     1      -5.714  48.736  25.352  0.00  0.00    +0.000 C 
ATOM     15  C   UNL     1      -4.364  48.855  25.984  0.00  0.00    +0.000 C 
ATOM     16  C   UNL     1      -9.951  49.722  26.989  0.00  0.00    +0.000 A 
ATOM     17  C   UNL     1      -9.208  50.122  31.705  0.00  0.00    +0.000 C 
ATOM     18  C   UNL     1     -11.209  49.922  29.506  0.00  0.00    +0.000 A 
ATOM     19  C   UNL     1     -11.316  50.068  27.036  0.00  0.00    +0.000 A 
ATOM     20  C   UNL     1     -11.929  50.151  28.321  0.00  0.00    +0.000 A 
ENDROOT
BRANCH  19  23
ATOM     21  N   UNL     1     -14.939  50.704  22.449  0.00  0.00    +0.000 NA
ATOM     22  N   UNL     1     -12.505  52.651  26.700  0.00  0.00    +0.000 N 
ATOM     23  C   UNL     1     -12.157  50.336  25.724  0.00  0.00    +0.000 C 
ATOM     24  C   UNL     1     -13.563  49.580  25.771  0.00  0.00    +0.000 C 
ATOM     25  C   UNL     1     -12.464  51.864  25.562  0.00  0.00    +0.000 A 
ATOM     26  C   UNL     1     -14.621  50.016  24.745  0.00  0.00    +0.000 C 
ATOM     27  C   UNL     1     -15.997  49.377  24.929  0.00  0.00    +0.000 C 
ATOM     28  C   UNL     1     -14.226  49.765  23.297  0.00  0.00    +0.000 C 
ATOM     29  C   UNL     1     -12.827  52.704  24.494  0.00  0.00    +0.000 A 
ATOM     30  C   UNL     1     -17.019  49.899  23.875  0.00  0.00    +0.000 C 
ATOM     31  C   UNL     1     -16.402  50.512  22.551  0.00  0.00    +0.000 C 
ATOM     32  C   UNL     1     -13.044  52.414  23.017  0.00  0.00    +0.000 C 
ATOM     33  C   UNL     1     -14.527  52.119  22.638  0.00  0.00    +0.000 C 
ATOM     34  C   UNL     1     -13.030  54.023  25.047  0.00  0.00    +0.000 A 
ATOM     35  C   UNL     1     -12.820  53.951  26.416  0.00  0.00    +0.000 A 
ATOM     36  C   UNL     1     -13.394  55.273  24.497  0.00  0.00    +0.000 A 
ATOM     37  C   UNL     1     -12.942  55.054  27.271  0.00  0.00    +0.000 A 
ATOM     38  C   UNL     1     -13.520  56.389  25.332  0.00  0.00    +0.000 A 
ATOM     39  C   UNL     1     -13.296  56.278  26.700  0.00  0.00    +0.000 A 
ATOM     40  H   UNL     1     -12.306  52.319  27.635  0.00  0.00    +0.000 HD
BRANCH  23  42
ATOM     41  O   UNL     1     -10.505  50.409  23.842  0.00  0.00    +0.000 OA
ATOM     42  C   UNL     1     -11.277  49.781  24.556  0.00  0.00    +0.000 C 
BRANCH  42  43
ATOM     43  O   UNL     1     -11.460  48.423  24.437  0.00  0.00    +0.000 OA
ATOM     44  C   UNL     1     -10.251  47.691  24.237  0.00  0.00    +0.000 C 
ENDBRANCH  42  43
ENDBRANCH  23  42
BRANCH  30  45
ATOM     45  O   UNL     1     -17.794  48.737  23.487  0.00  0.00    +0.000 OA
ATOM     46  H   UNL     1     -17.782  48.116  24.237  0.00  0.00    +0.000 HD
ENDBRANCH  30  45
BRANCH  30  47
ATOM     47  C   UNL     1     -18.063  50.843  24.515  0.00  0.00    +0.000 C 
ATOM     48  C   UNL     1     -17.614  52.270  24.782  0.00  0.00    +0.000 C 
ENDBRANCH  30  47
ENDBRANCH  19  23
BRANCH   7  49
ATOM     49  O   UNL     1      -5.979  50.262  31.327  0.00  0.00    +0.000 OA
ATOM     50  H   UNL     1      -5.291  50.731  30.812  0.00  0.00    +0.000 HD
ENDBRANCH   7  49
BRANCH   7  52
ATOM     51  O   UNL     1      -7.181  46.862  31.208  0.00  0.00    +0.000 OA
ATOM     52  C   UNL     1      -6.584  47.898  31.466  0.00  0.00    +0.000 C 
BRANCH  52  53
ATOM     53  O   UNL     1      -5.925  48.118  32.651  0.00  0.00    +0.000 OA
ATOM     54  C   UNL     1      -6.753  47.987  33.808  0.00  0.00    +0.000 C 
ENDBRANCH  52  53
ENDBRANCH   7  52
BRANCH  20  55
ATOM     55  O   UNL     1     -13.247  50.528  28.365  0.00  0.00    +0.000 OA
ATOM     56  C   UNL     1     -13.974  50.064  29.499  0.00  0.00    +0.000 C 
ENDBRANCH  20  55
BRANCH   6  57
ATOM     57  C   UNL     1      -5.054  51.227  28.493  0.00  0.00    +0.000 C 
ATOM     58  C   UNL     1      -3.592  51.680  28.506  0.00  0.00    +0.000 C 
ENDBRANCH   6  57
BRANCH   9  59
ATOM     59  O   UNL     1      -5.051  47.474  29.158  0.00  0.00    +0.000 OA
BRANCH  59  61
ATOM     60  O   UNL     1      -3.378  46.003  28.627  0.00  0.00    +0.000 OA
ATOM     61  C   UNL     1      -3.816  46.924  29.302  0.00  0.00    +0.000 C 
ATOM     62  C   UNL     1      -3.058  47.631  30.382  0.00  0.00    +0.000 C 
ENDBRANCH  59  61
ENDBRANCH   9  59
TORSDOF 12
ENDMDL
MODEL 9
REMARK VINA RESULT:      -6.2      4.264     12.019
REMARK  Name = 
REMARK  19 active torsions:
REMARK  status: ('A' for Active; 'I' for Inactive)
REMARK    1  A    between atoms: O_1  and  C_20
REMARK    2  A    between atoms: O_1  and  C_36
REMARK    3  A    between atoms: O_2  and  C_18
REMARK    4  A    between atoms: O_3  and  C_28
REMARK    5  A    between atoms: O_3  and  C_42
REMARK    6  A    between atoms: O_5  and  C_34
REMARK    7  A    between atoms: O_5  and  C_50
REMARK    8  A    between atoms: O_7  and  C_40
REMARK    9  A    between atoms: O_7  and  C_56
REMARK   10  A    between atoms: O_9  and  C_46
REMARK   11  A    between atoms: N_11  and  C_30
REMARK   12  A    between atoms: C_17  and  C_23
REMARK   13  A    between atoms: C_18  and  C_28
REMARK   14  A    between atoms: C_23  and  C_32
REMARK   15  A    between atoms: C_33  and  C_35
REMARK   16  A    between atoms: C_35  and  C_40
REMARK   17  A    between atoms: C_36  and  C_41
REMARK   18  A    between atoms: C_46  and  C_53
REMARK   19  A    between atoms: C_53  and  C_57
REMARK                            x       y       z     vdW  Elec       q    Type
REMARK                         _______ _______ _______ _____ _____    ______ ____
ROOT
ATOM      1  N   UNL     1      -3.295  46.953  26.848  0.00  0.00    +0.000 NA
ATOM      2  N   UNL     1      -5.781  49.613  29.934  0.00  0.00    +0.000 N 
ATOM      3  C   UNL     1      -4.541  48.232  28.348  0.00  0.00    +0.000 C 
ATOM      4  C   UNL     1      -4.527  46.859  27.653  0.00  0.00    +0.000 C 
ATOM      5  C   UNL     1      -5.943  48.536  28.912  0.00  0.00    +0.000 C 
ATOM      6  C   UNL     1      -5.883  46.516  26.879  0.00  0.00    +0.000 C 
ATOM      7  C   UNL     1      -7.071  48.669  27.875  0.00  0.00    +0.000 C 
ATOM      8  C   UNL     1      -3.886  49.196  27.340  0.00  0.00    +0.000 C 
ATOM      9  C   UNL     1      -6.791  47.795  26.608  0.00  0.00    +0.000 C 
ATOM     10  C   UNL     1      -3.788  48.394  29.654  0.00  0.00    +0.000 A 
ATOM     11  C   UNL     1      -3.210  48.303  26.303  0.00  0.00    +0.000 C 
ATOM     12  C   UNL     1      -4.521  49.242  30.495  0.00  0.00    +0.000 A 
ATOM     13  C   UNL     1      -5.606  45.851  25.528  0.00  0.00    +0.000 C 
ATOM     14  C   UNL     1      -3.130  45.901  25.857  0.00  0.00    +0.000 C 
ATOM     15  C   UNL     1      -4.370  45.570  25.091  0.00  0.00    +0.000 C 
ATOM     16  C   UNL     1      -2.549  47.881  30.022  0.00  0.00    +0.000 A 
ATOM     17  C   UNL     1      -6.855  49.784  30.911  0.00  0.00    +0.000 C 
ATOM     18  C   UNL     1      -3.990  49.619  31.713  0.00  0.00    +0.000 A 
ATOM     19  C   UNL     1      -1.982  48.242  31.260  0.00  0.00    +0.000 A 
ATOM     20  C   UNL     1      -2.727  49.131  32.090  0.00  0.00    +0.000 A 
ENDROOT
BRANCH  19  23
ATOM     21  N   UNL     1       3.341  45.992  32.346  0.00  0.00    +0.000 NA
ATOM     22  N   UNL     1       0.193  50.102  31.348  0.00  0.00    +0.000 N 
ATOM     23  C   UNL     1      -0.565  47.710  31.719  0.00  0.00    +0.000 C 
ATOM     24  C   UNL     1       0.112  46.811  30.586  0.00  0.00    +0.000 C 
ATOM     25  C   UNL     1       0.411  48.901  32.003  0.00  0.00    +0.000 A 
ATOM     26  C   UNL     1       1.613  46.516  30.738  0.00  0.00    +0.000 C 
ATOM     27  C   UNL     1       2.248  45.787  29.554  0.00  0.00    +0.000 C 
ATOM     28  C   UNL     1       1.967  45.704  31.976  0.00  0.00    +0.000 C 
ATOM     29  C   UNL     1       1.600  49.068  32.736  0.00  0.00    +0.000 A 
ATOM     30  C   UNL     1       3.775  45.561  29.770  0.00  0.00    +0.000 C 
ATOM     31  C   UNL     1       4.278  45.598  31.272  0.00  0.00    +0.000 C 
ATOM     32  C   UNL     1       2.401  48.094  33.586  0.00  0.00    +0.000 C 
ATOM     33  C   UNL     1       3.558  47.384  32.820  0.00  0.00    +0.000 C 
ATOM     34  C   UNL     1       2.037  50.429  32.523  0.00  0.00    +0.000 A 
ATOM     35  C   UNL     1       1.140  51.037  31.659  0.00  0.00    +0.000 A 
ATOM     36  C   UNL     1       3.136  51.190  32.982  0.00  0.00    +0.000 A 
ATOM     37  C   UNL     1       1.266  52.365  31.231  0.00  0.00    +0.000 A 
ATOM     38  C   UNL     1       3.282  52.519  32.569  0.00  0.00    +0.000 A 
ATOM     39  C   UNL     1       2.357  53.097  31.705  0.00  0.00    +0.000 A 
ATOM     40  H   UNL     1      -0.584  50.283  30.726  0.00  0.00    +0.000 HD
BRANCH  23  42
ATOM     41  O   UNL     1      -0.522  47.112  34.151  0.00  0.00    +0.000 OA
ATOM     42  C   UNL     1      -0.846  46.855  32.999  0.00  0.00    +0.000 C 
BRANCH  42  43
ATOM     43  O   UNL     1      -1.567  45.732  32.663  0.00  0.00    +0.000 OA
ATOM     44  C   UNL     1      -1.245  44.582  33.444  0.00  0.00    +0.000 C 
ENDBRANCH  42  43
ENDBRANCH  23  42
BRANCH  30  45
ATOM     45  O   UNL     1       4.038  44.228  29.263  0.00  0.00    +0.000 OA
ATOM     46  H   UNL     1       3.365  44.037  28.586  0.00  0.00    +0.000 HD
ENDBRANCH  30  45
BRANCH  30  47
ATOM     47  C   UNL     1       4.620  46.478  28.857  0.00  0.00    +0.000 C 
ATOM     48  C   UNL     1       4.751  47.929  29.286  0.00  0.00    +0.000 C 
ENDBRANCH  30  47
ENDBRANCH  19  23
BRANCH   7  49
ATOM     49  O   UNL     1      -8.256  48.089  28.511  0.00  0.00    +0.000 OA
ATOM     50  H   UNL     1      -9.019  48.603  28.177  0.00  0.00    +0.000 HD
ENDBRANCH   7  49
BRANCH   7  52
ATOM     51  O   UNL     1      -6.596  51.085  27.554  0.00  0.00    +0.000 OA
ATOM     52  C   UNL     1      -7.379  50.145  27.522  0.00  0.00    +0.000 C 
BRANCH  52  53
ATOM     53  O   UNL     1      -8.674  50.252  27.075  0.00  0.00    +0.000 OA
ATOM     54  C   UNL     1      -8.875  51.299  26.125  0.00  0.00    +0.000 C 
ENDBRANCH  52  53
ENDBRANCH   7  52
BRANCH  20  55
ATOM     55  O   UNL     1      -2.190  49.448  33.312  0.00  0.00    +0.000 OA
ATOM     56  C   UNL     1      -2.438  50.778  33.757  0.00  0.00    +0.000 C 
ENDBRANCH  20  55
BRANCH   6  57
ATOM     57  C   UNL     1      -6.720  45.477  27.712  0.00  0.00    +0.000 C 
ATOM     58  C   UNL     1      -5.950  44.650  28.743  0.00  0.00    +0.000 C 
ENDBRANCH   6  57
BRANCH   9  59
ATOM     59  O   UNL     1      -6.185  48.563  25.541  0.00  0.00    +0.000 OA
BRANCH  59  61
ATOM     60  O   UNL     1      -6.414  49.108  23.328  0.00  0.00    +0.000 OA
ATOM     61  C   UNL     1      -6.859  48.630  24.362  0.00  0.00    +0.000 C 
ATOM     62  C   UNL     1      -8.211  48.003  24.504  0.00  0.00    +0.000 C 
ENDBRANCH  59  61
ENDBRANCH   9  59
TORSDOF 12
ENDMDL
