MODEL 1
REMARK VINA RESULT:      -5.2      0.000      0.000
REMARK  Name = Vorinostat.pdbqt.pdb
REMARK  6 active torsions:
REMARK  status: ('A' for Active; 'I' for Inactive)
REMARK    1  A    between atoms: C_1  and  C_2
REMARK    2  A    between atoms: C_3  and  C_4
REMARK    3  A    between atoms: C_5  and  C_8
REMARK    4  A    between atoms: N_7  and  O_10
REMARK    5  A    between atoms: C_12  and  C_15
REMARK    6  A    between atoms: N_14  and  C_17
REMARK                            x       y       z     vdW  Elec       q    Type
REMARK                         _______ _______ _______ _____ _____    ______ ____
ROOT
ATOM      1  C   UNL     1      -4.282  46.309  27.987  0.00  0.00    +0.000 C 
ATOM      2  C   UNL     1      -2.874  45.946  28.469  0.00  0.00    +0.000 C 
ENDROOT
BRANCH   2   5
ATOM      3  O   UNL     1      -1.434  44.889  29.905  0.00  0.00    +0.000 OA
ATOM      4  N   UNL     1      -0.537  46.146  28.160  0.00  0.00    +0.000 N 
ATOM      5  C   UNL     1      -1.546  45.604  28.922  0.00  0.00    +0.000 C 
ATOM      6  H   UNL     1      -0.808  46.721  27.371  0.00  0.00    +0.000 HD
BRANCH   4   7
ATOM      7  C   UNL     1       0.840  45.971  28.381  0.00  0.00    +0.000 A 
ATOM      8  C   UNL     1       1.507  46.943  29.128  0.00  0.00    +0.000 A 
ATOM      9  C   UNL     1       1.552  44.879  27.888  0.00  0.00    +0.000 A 
ATOM     10  C   UNL     1       2.872  46.824  29.379  0.00  0.00    +0.000 A 
ATOM     11  C   UNL     1       2.918  44.757  28.139  0.00  0.00    +0.000 A 
ATOM     12  C   UNL     1       3.577  45.730  28.885  0.00  0.00    +0.000 A 
ENDBRANCH   4   7
ENDBRANCH   2   5
BRANCH   1  13
ATOM     13  C   UNL     1      -5.689  46.675  27.505  0.00  0.00    +0.000 C 
ATOM     14  C   UNL     1      -7.096  47.041  27.022  0.00  0.00    +0.000 C 
BRANCH  14  15
ATOM     15  C   UNL     1      -8.502  47.408  26.540  0.00  0.00    +0.000 C 
ATOM     16  C   UNL     1      -9.909  47.775  26.057  0.00  0.00    +0.000 C 
BRANCH  16  19
ATOM     17  O   UNL     1     -12.209  47.881  26.296  0.00  0.00    +0.000 OA
ATOM     18  N   UNL     1     -11.299  48.723  24.377  0.00  0.00    +0.000 N 
ATOM     19  C   UNL     1     -11.228  48.121  25.602  0.00  0.00    +0.000 C 
ATOM     20  H   UNL     1     -10.498  48.965  23.807  0.00  0.00    +0.000 HD
BRANCH  18  21
ATOM     21  O   UNL     1     -12.575  49.108  23.909  0.00  0.00    +0.000 OA
ATOM     22  H   UNL     1     -12.365  49.582  23.075  0.00  0.00    +0.000 HD
ENDBRANCH  18  21
ENDBRANCH  16  19
ENDBRANCH  14  15
ENDBRANCH   1  13
TORSDOF 6
ENDMDL
MODEL 2
REMARK VINA RESULT:      -5.0     13.663     19.519
REMARK  Name = Vorinostat.pdbqt.pdb
REMARK  6 active torsions:
REMARK  status: ('A' for Active; 'I' for Inactive)
REMARK    1  A    between atoms: C_1  and  C_2
REMARK    2  A    between atoms: C_3  and  C_4
REMARK    3  A    between atoms: C_5  and  C_8
REMARK    4  A    between atoms: N_7  and  O_10
REMARK    5  A    between atoms: C_12  and  C_15
REMARK    6  A    between atoms: N_14  and  C_17
REMARK                            x       y       z     vdW  Elec       q    Type
REMARK                         _______ _______ _______ _____ _____    ______ ____
ROOT
ATOM      1  C   UNL     1     -18.813  48.679  21.419  0.00  0.00    +0.000 C 
ATOM      2  C   UNL     1     -20.019  47.743  21.304  0.00  0.00    +0.000 C 
ENDROOT
BRANCH   2   5
ATOM      3  O   UNL     1     -21.701  46.482  22.220  0.00  0.00    +0.000 OA
ATOM      4  N   UNL     1     -21.499  46.545  19.899  0.00  0.00    +0.000 N 
ATOM      5  C   UNL     1     -21.158  46.860  21.194  0.00  0.00    +0.000 C 
ATOM      6  H   UNL     1     -20.937  46.948  19.159  0.00  0.00    +0.000 HD
BRANCH   4   7
ATOM      7  C   UNL     1     -22.561  45.709  19.513  0.00  0.00    +0.000 A 
ATOM      8  C   UNL     1     -23.837  46.271  19.439  0.00  0.00    +0.000 A 
ATOM      9  C   UNL     1     -22.389  44.360  19.205  0.00  0.00    +0.000 A 
ATOM     10  C   UNL     1     -24.929  45.491  19.062  0.00  0.00    +0.000 A 
ATOM     11  C   UNL     1     -23.479  43.579  18.828  0.00  0.00    +0.000 A 
ATOM     12  C   UNL     1     -24.749  44.145  18.756  0.00  0.00    +0.000 A 
ENDBRANCH   4   7
ENDBRANCH   2   5
BRANCH   1  13
ATOM     13  C   UNL     1     -17.605  49.613  21.532  0.00  0.00    +0.000 C 
ATOM     14  C   UNL     1     -16.397  50.548  21.647  0.00  0.00    +0.000 C 
BRANCH  14  15
ATOM     15  C   UNL     1     -15.190  51.483  21.762  0.00  0.00    +0.000 C 
ATOM     16  C   UNL     1     -13.982  52.418  21.879  0.00  0.00    +0.000 C 
BRANCH  16  19
ATOM     17  O   UNL     1     -12.409  53.608  23.090  0.00  0.00    +0.000 OA
ATOM     18  N   UNL     1     -12.312  53.732  20.810  0.00  0.00    +0.000 N 
ATOM     19  C   UNL     1     -12.847  53.295  21.990  0.00  0.00    +0.000 C 
ATOM     20  H   UNL     1     -12.636  53.452  19.893  0.00  0.00    +0.000 HD
BRANCH  18  21
ATOM     21  O   UNL     1     -11.177  54.568  20.877  0.00  0.00    +0.000 OA
ATOM     22  H   UNL     1     -11.566  55.467  20.802  0.00  0.00    +0.000 HD
ENDBRANCH  18  21
ENDBRANCH  16  19
ENDBRANCH  14  15
ENDBRANCH   1  13
TORSDOF 6
ENDMDL
MODEL 3
REMARK VINA RESULT:      -4.8      5.801     11.629
REMARK  Name = Vorinostat.pdbqt.pdb
REMARK  6 active torsions:
REMARK  status: ('A' for Active; 'I' for Inactive)
REMARK    1  A    between atoms: C_1  and  C_2
REMARK    2  A    between atoms: C_3  and  C_4
REMARK    3  A    between atoms: C_5  and  C_8
REMARK    4  A    between atoms: N_7  and  O_10
REMARK    5  A    between atoms: C_12  and  C_15
REMARK    6  A    between atoms: N_14  and  C_17
REMARK                            x       y       z     vdW  Elec       q    Type
REMARK                         _______ _______ _______ _____ _____    ______ ____
ROOT
ATOM      1  C   UNL     1      -2.879  49.734  26.761  0.00  0.00    +0.000 C 
ATOM      2  C   UNL     1      -4.165  48.906  26.694  0.00  0.00    +0.000 C 
ENDROOT
BRANCH   2   5
ATOM      3  O   UNL     1      -5.372  47.000  27.102  0.00  0.00    +0.000 OA
ATOM      4  N   UNL     1      -6.432  48.776  26.027  0.00  0.00    +0.000 N 
ATOM      5  C   UNL     1      -5.380  48.127  26.631  0.00  0.00    +0.000 C 
ATOM      6  H   UNL     1      -6.265  49.716  25.689  0.00  0.00    +0.000 HD
BRANCH   4   7
ATOM      7  C   UNL     1      -7.720  48.247  25.838  0.00  0.00    +0.000 A 
ATOM      8  C   UNL     1      -8.022  47.701  24.589  0.00  0.00    +0.000 A 
ATOM      9  C   UNL     1      -8.692  48.247  26.837  0.00  0.00    +0.000 A 
ATOM     10  C   UNL     1      -9.283  47.162  24.342  0.00  0.00    +0.000 A 
ATOM     11  C   UNL     1      -9.954  47.708  26.593  0.00  0.00    +0.000 A 
ATOM     12  C   UNL     1     -10.249  47.165  25.345  0.00  0.00    +0.000 A 
ENDBRANCH   4   7
ENDBRANCH   2   5
BRANCH   1  13
ATOM     13  C   UNL     1      -1.593  50.563  26.827  0.00  0.00    +0.000 C 
ATOM     14  C   UNL     1      -0.307  51.393  26.892  0.00  0.00    +0.000 C 
BRANCH  14  15
ATOM     15  C   UNL     1       0.979  52.222  26.956  0.00  0.00    +0.000 C 
ATOM     16  C   UNL     1       2.266  53.050  27.020  0.00  0.00    +0.000 C 
BRANCH  16  19
ATOM     17  O   UNL     1       3.740  54.492  28.072  0.00  0.00    +0.000 OA
ATOM     18  N   UNL     1       4.280  53.763  25.974  0.00  0.00    +0.000 N 
ATOM     19  C   UNL     1       3.475  53.828  27.077  0.00  0.00    +0.000 C 
ATOM     20  H   UNL     1       4.097  53.189  25.161  0.00  0.00    +0.000 HD
BRANCH  18  21
ATOM     21  O   UNL     1       5.492  54.487  26.006  0.00  0.00    +0.000 OA
ATOM     22  H   UNL     1       5.193  55.401  26.204  0.00  0.00    +0.000 HD
ENDBRANCH  18  21
ENDBRANCH  16  19
ENDBRANCH  14  15
ENDBRANCH   1  13
TORSDOF 6
ENDMDL
MODEL 4
REMARK VINA RESULT:      -4.8     25.917     29.065
REMARK  Name = Vorinostat.pdbqt.pdb
REMARK  6 active torsions:
REMARK  status: ('A' for Active; 'I' for Inactive)
REMARK    1  A    between atoms: C_1  and  C_2
REMARK    2  A    between atoms: C_3  and  C_4
REMARK    3  A    between atoms: C_5  and  C_8
REMARK    4  A    between atoms: N_7  and  O_10
REMARK    5  A    between atoms: C_12  and  C_15
REMARK    6  A    between atoms: N_14  and  C_17
REMARK                            x       y       z     vdW  Elec       q    Type
REMARK                         _______ _______ _______ _____ _____    ______ ____
ROOT
ATOM      1  C   UNL     1     -18.439  34.496   7.648  0.00  0.00    +0.000 C 
ATOM      2  C   UNL     1     -19.028  33.141   8.053  0.00  0.00    +0.000 C 
ENDROOT
BRANCH   2   5
ATOM      3  O   UNL     1     -18.840  30.897   8.480  0.00  0.00    +0.000 OA
ATOM      4  N   UNL     1     -20.933  31.898   8.703  0.00  0.00    +0.000 N 
ATOM      5  C   UNL     1     -19.584  31.863   8.432  0.00  0.00    +0.000 C 
ATOM      6  H   UNL     1     -21.402  32.790   8.614  0.00  0.00    +0.000 HD
BRANCH   4   7
ATOM      7  C   UNL     1     -21.718  30.799   9.092  0.00  0.00    +0.000 A 
ATOM      8  C   UNL     1     -22.448  30.137   8.104  0.00  0.00    +0.000 A 
ATOM      9  C   UNL     1     -21.791  30.352  10.411  0.00  0.00    +0.000 A 
ATOM     10  C   UNL     1     -23.244  29.042   8.430  0.00  0.00    +0.000 A 
ATOM     11  C   UNL     1     -22.587  29.255  10.740  0.00  0.00    +0.000 A 
ATOM     12  C   UNL     1     -23.313  28.600   9.749  0.00  0.00    +0.000 A 
ENDBRANCH   4   7
ENDBRANCH   2   5
BRANCH   1  13
ATOM     13  C   UNL     1     -17.848  35.849   7.243  0.00  0.00    +0.000 C 
ATOM     14  C   UNL     1     -17.257  37.203   6.839  0.00  0.00    +0.000 C 
BRANCH  14  15
ATOM     15  C   UNL     1     -16.667  38.557   6.435  0.00  0.00    +0.000 C 
ATOM     16  C   UNL     1     -16.075  39.911   6.030  0.00  0.00    +0.000 C 
BRANCH  16  19
ATOM     17  O   UNL     1     -14.419  41.244   5.115  0.00  0.00    +0.000 OA
ATOM     18  N   UNL     1     -16.295  42.276   5.912  0.00  0.00    +0.000 N 
ATOM     19  C   UNL     1     -15.520  41.182   5.648  0.00  0.00    +0.000 C 
ATOM     20  H   UNL     1     -17.223  42.241   6.315  0.00  0.00    +0.000 HD
BRANCH  18  21
ATOM     21  O   UNL     1     -15.799  43.539   5.522  0.00  0.00    +0.000 OA
ATOM     22  H   UNL     1     -14.999  43.640   6.083  0.00  0.00    +0.000 HD
ENDBRANCH  18  21
ENDBRANCH  16  19
ENDBRANCH  14  15
ENDBRANCH   1  13
TORSDOF 6
ENDMDL
MODEL 5
REMARK VINA RESULT:      -4.8      5.372     14.598
REMARK  Name = Vorinostat.pdbqt.pdb
REMARK  6 active torsions:
REMARK  status: ('A' for Active; 'I' for Inactive)
REMARK    1  A    between atoms: C_1  and  C_2
REMARK    2  A    between atoms: C_3  and  C_4
REMARK    3  A    between atoms: C_5  and  C_8
REMARK    4  A    between atoms: N_7  and  O_10
REMARK    5  A    between atoms: C_12  and  C_15
REMARK    6  A    between atoms: N_14  and  C_17
REMARK                            x       y       z     vdW  Elec       q    Type
REMARK                         _______ _______ _______ _____ _____    ______ ____
ROOT
ATOM      1  C   UNL     1     -11.757  49.244  24.324  0.00  0.00    +0.000 C 
ATOM      2  C   UNL     1     -13.012  50.022  23.917  0.00  0.00    +0.000 C 
ENDROOT
BRANCH   2   5
ATOM      3  O   UNL     1     -14.624  51.608  24.291  0.00  0.00    +0.000 OA
ATOM      4  N   UNL     1     -14.711  50.383  22.310  0.00  0.00    +0.000 N 
ATOM      5  C   UNL     1     -14.196  50.754  23.531  0.00  0.00    +0.000 C 
ATOM      6  H   UNL     1     -14.228  49.650  21.805  0.00  0.00    +0.000 HD
BRANCH   4   7
ATOM      7  C   UNL     1     -15.852  50.934  21.701  0.00  0.00    +0.000 A 
ATOM      8  C   UNL     1     -17.082  50.324  21.953  0.00  0.00    +0.000 A 
ATOM      9  C   UNL     1     -15.800  52.051  20.869  0.00  0.00    +0.000 A 
ATOM     10  C   UNL     1     -18.248  50.826  21.377  0.00  0.00    +0.000 A 
ATOM     11  C   UNL     1     -16.965  52.555  20.292  0.00  0.00    +0.000 A 
ATOM     12  C   UNL     1     -18.188  51.942  20.547  0.00  0.00    +0.000 A 
ENDBRANCH   4   7
ENDBRANCH   2   5
BRANCH   1  13
ATOM     13  C   UNL     1     -10.504  48.465  24.732  0.00  0.00    +0.000 C 
ATOM     14  C   UNL     1      -9.250  47.685  25.140  0.00  0.00    +0.000 C 
BRANCH  14  15
ATOM     15  C   UNL     1      -7.997  46.907  25.549  0.00  0.00    +0.000 C 
ATOM     16  C   UNL     1      -6.742  46.127  25.957  0.00  0.00    +0.000 C 
BRANCH  16  19
ATOM     17  O   UNL     1      -4.674  45.182  25.525  0.00  0.00    +0.000 OA
ATOM     18  N   UNL     1      -5.513  44.982  27.640  0.00  0.00    +0.000 N 
ATOM     19  C   UNL     1      -5.563  45.397  26.339  0.00  0.00    +0.000 C 
ATOM     20  H   UNL     1      -6.219  45.185  28.337  0.00  0.00    +0.000 HD
BRANCH  18  21
ATOM     21  O   UNL     1      -4.357  44.291  28.063  0.00  0.00    +0.000 OA
ATOM     22  H   UNL     1      -4.679  43.789  28.844  0.00  0.00    +0.000 HD
ENDBRANCH  18  21
ENDBRANCH  16  19
ENDBRANCH  14  15
ENDBRANCH   1  13
TORSDOF 6
ENDMDL
MODEL 6
REMARK VINA RESULT:      -4.7      2.989      4.357
REMARK  Name = Vorinostat.pdbqt.pdb
REMARK  6 active torsions:
REMARK  status: ('A' for Active; 'I' for Inactive)
REMARK    1  A    between atoms: C_1  and  C_2
REMARK    2  A    between atoms: C_3  and  C_4
REMARK    3  A    between atoms: C_5  and  C_8
REMARK    4  A    between atoms: N_7  and  O_10
REMARK    5  A    between atoms: C_12  and  C_15
REMARK    6  A    between atoms: N_14  and  C_17
REMARK                            x       y       z     vdW  Elec       q    Type
REMARK                         _______ _______ _______ _____ _____    ______ ____
ROOT
ATOM      1  C   UNL     1      -8.012  46.788  26.721  0.00  0.00    +0.000 C 
ATOM      2  C   UNL     1      -6.561  46.299  26.698  0.00  0.00    +0.000 C 
ENDROOT
BRANCH   2   5
ATOM      3  O   UNL     1      -4.947  44.770  26.139  0.00  0.00    +0.000 OA
ATOM      4  N   UNL     1      -4.303  46.693  27.288  0.00  0.00    +0.000 N 
ATOM      5  C   UNL     1      -5.192  45.838  26.677  0.00  0.00    +0.000 C 
ATOM      6  H   UNL     1      -4.678  47.544  27.688  0.00  0.00    +0.000 HD
BRANCH   4   7
ATOM      7  C   UNL     1      -2.918  46.485  27.408  0.00  0.00    +0.000 A 
ATOM      8  C   UNL     1      -2.434  46.015  28.630  0.00  0.00    +0.000 A 
ATOM      9  C   UNL     1      -2.025  46.727  26.366  0.00  0.00    +0.000 A 
ATOM     10  C   UNL     1      -1.070  45.791  28.807  0.00  0.00    +0.000 A 
ATOM     11  C   UNL     1      -0.660  46.503  26.541  0.00  0.00    +0.000 A 
ATOM     12  C   UNL     1      -0.184  46.035  27.762  0.00  0.00    +0.000 A 
ENDBRANCH   4   7
ENDBRANCH   2   5
BRANCH   1  13
ATOM     13  C   UNL     1      -9.464  47.274  26.745  0.00  0.00    +0.000 C 
ATOM     14  C   UNL     1     -10.916  47.760  26.769  0.00  0.00    +0.000 C 
BRANCH  14  15
ATOM     15  C   UNL     1     -12.368  48.246  26.793  0.00  0.00    +0.000 C 
ATOM     16  C   UNL     1     -13.821  48.731  26.817  0.00  0.00    +0.000 C 
BRANCH  16  19
ATOM     17  O   UNL     1     -15.492  50.256  26.326  0.00  0.00    +0.000 OA
ATOM     18  N   UNL     1     -16.080  48.362  27.461  0.00  0.00    +0.000 N 
ATOM     19  C   UNL     1     -15.185  49.189  26.842  0.00  0.00    +0.000 C 
ATOM     20  H   UNL     1     -15.852  47.459  27.857  0.00  0.00    +0.000 HD
BRANCH  18  21
ATOM     21  O   UNL     1     -17.435  48.761  27.477  0.00  0.00    +0.000 OA
ATOM     22  H   UNL     1     -17.460  49.409  28.215  0.00  0.00    +0.000 HD
ENDBRANCH  18  21
ENDBRANCH  16  19
ENDBRANCH  14  15
ENDBRANCH   1  13
TORSDOF 6
ENDMDL
MODEL 7
REMARK VINA RESULT:      -4.6     26.349     29.042
REMARK  Name = Vorinostat.pdbqt.pdb
REMARK  6 active torsions:
REMARK  status: ('A' for Active; 'I' for Inactive)
REMARK    1  A    between atoms: C_1  and  C_2
REMARK    2  A    between atoms: C_3  and  C_4
REMARK    3  A    between atoms: C_5  and  C_8
REMARK    4  A    between atoms: N_7  and  O_10
REMARK    5  A    between atoms: C_12  and  C_15
REMARK    6  A    between atoms: N_14  and  C_17
REMARK                            x       y       z     vdW  Elec       q    Type
REMARK                         _______ _______ _______ _____ _____    ______ ____
ROOT
ATOM      1  C   UNL     1     -15.351  43.942   2.525  0.00  0.00    +0.000 C 
ATOM      2  C   UNL     1     -15.737  42.989   3.659  0.00  0.00    +0.000 C 
ENDROOT
BRANCH   2   5
ATOM      3  O   UNL     1     -16.283  42.557   5.844  0.00  0.00    +0.000 OA
ATOM      4  N   UNL     1     -16.201  40.772   4.347  0.00  0.00    +0.000 N 
ATOM      5  C   UNL     1     -16.101  42.090   4.730  0.00  0.00    +0.000 C 
ATOM      6  H   UNL     1     -16.015  40.556   3.375  0.00  0.00    +0.000 HD
BRANCH   4   7
ATOM      7  C   UNL     1     -16.538  39.698   5.188  0.00  0.00    +0.000 A 
ATOM      8  C   UNL     1     -15.506  38.871   5.633  0.00  0.00    +0.000 A 
ATOM      9  C   UNL     1     -17.847  39.433   5.588  0.00  0.00    +0.000 A 
ATOM     10  C   UNL     1     -15.779  37.790   6.469  0.00  0.00    +0.000 A 
ATOM     11  C   UNL     1     -18.123  38.353   6.424  0.00  0.00    +0.000 A 
ATOM     12  C   UNL     1     -17.089  37.532   6.865  0.00  0.00    +0.000 A 
ENDBRANCH   4   7
ENDBRANCH   2   5
BRANCH   1  13
ATOM     13  C   UNL     1     -14.965  44.897   1.392  0.00  0.00    +0.000 C 
ATOM     14  C   UNL     1     -14.578  45.851   0.257  0.00  0.00    +0.000 C 
BRANCH  14  15
ATOM     15  C   UNL     1     -14.192  46.805  -0.876  0.00  0.00    +0.000 C 
ATOM     16  C   UNL     1     -13.805  47.761  -2.009  0.00  0.00    +0.000 C 
BRANCH  16  19
ATOM     17  O   UNL     1     -14.306  49.170  -3.776  0.00  0.00    +0.000 OA
ATOM     18  N   UNL     1     -12.106  48.895  -3.226  0.00  0.00    +0.000 N 
ATOM     19  C   UNL     1     -13.443  48.660  -3.072  0.00  0.00    +0.000 C 
ATOM     20  H   UNL     1     -11.382  48.514  -2.629  0.00  0.00    +0.000 HD
BRANCH  18  21
ATOM     21  O   UNL     1     -11.712  49.798  -4.238  0.00  0.00    +0.000 OA
ATOM     22  H   UNL     1     -11.367  49.201  -4.937  0.00  0.00    +0.000 HD
ENDBRANCH  18  21
ENDBRANCH  16  19
ENDBRANCH  14  15
ENDBRANCH   1  13
TORSDOF 6
ENDMDL
MODEL 8
REMARK VINA RESULT:      -4.6     21.966     23.484
REMARK  Name = Vorinostat.pdbqt.pdb
REMARK  6 active torsions:
REMARK  status: ('A' for Active; 'I' for Inactive)
REMARK    1  A    between atoms: C_1  and  C_2
REMARK    2  A    between atoms: C_3  and  C_4
REMARK    3  A    between atoms: C_5  and  C_8
REMARK    4  A    between atoms: N_7  and  O_10
REMARK    5  A    between atoms: C_12  and  C_15
REMARK    6  A    between atoms: N_14  and  C_17
REMARK                            x       y       z     vdW  Elec       q    Type
REMARK                         _______ _______ _______ _____ _____    ______ ____
ROOT
ATOM      1  C   UNL     1      -1.238  27.836  16.455  0.00  0.00    +0.000 C 
ATOM      2  C   UNL     1      -0.428  28.189  15.205  0.00  0.00    +0.000 C 
ENDROOT
BRANCH   2   5
ATOM      3  O   UNL     1       0.071  29.559  13.435  0.00  0.00    +0.000 OA
ATOM      4  N   UNL     1       1.305  27.599  13.705  0.00  0.00    +0.000 N 
ATOM      5  C   UNL     1       0.337  28.523  14.026  0.00  0.00    +0.000 C 
ATOM      6  H   UNL     1       1.392  26.789  14.306  0.00  0.00    +0.000 HD
BRANCH   4   7
ATOM      7  C   UNL     1       2.184  27.682  12.611  0.00  0.00    +0.000 A 
ATOM      8  C   UNL     1       3.441  28.248  12.828  0.00  0.00    +0.000 A 
ATOM      9  C   UNL     1       1.851  27.224  11.337  0.00  0.00    +0.000 A 
ATOM     10  C   UNL     1       4.355  28.356  11.783  0.00  0.00    +0.000 A 
ATOM     11  C   UNL     1       2.764  27.331  10.289  0.00  0.00    +0.000 A 
ATOM     12  C   UNL     1       4.016  27.897  10.513  0.00  0.00    +0.000 A 
ENDBRANCH   4   7
ENDBRANCH   2   5
BRANCH   1  13
ATOM     13  C   UNL     1      -2.047  27.483  17.706  0.00  0.00    +0.000 C 
ATOM     14  C   UNL     1      -2.857  27.129  18.958  0.00  0.00    +0.000 C 
BRANCH  14  15
ATOM     15  C   UNL     1      -3.666  26.776  20.209  0.00  0.00    +0.000 C 
ATOM     16  C   UNL     1      -4.475  26.421  21.461  0.00  0.00    +0.000 C 
BRANCH  16  19
ATOM     17  O   UNL     1      -6.457  26.095  22.611  0.00  0.00    +0.000 OA
ATOM     18  N   UNL     1      -4.502  25.767  23.747  0.00  0.00    +0.000 N 
ATOM     19  C   UNL     1      -5.232  26.088  22.637  0.00  0.00    +0.000 C 
ATOM     20  H   UNL     1      -3.491  25.717  23.776  0.00  0.00    +0.000 HD
BRANCH  18  21
ATOM     21  O   UNL     1      -5.209  25.402  24.913  0.00  0.00    +0.000 OA
ATOM     22  H   UNL     1      -4.883  24.491  25.087  0.00  0.00    +0.000 HD
ENDBRANCH  18  21
ENDBRANCH  16  19
ENDBRANCH  14  15
ENDBRANCH   1  13
TORSDOF 6
ENDMDL
MODEL 9
REMARK VINA RESULT:      -4.5      4.897      7.530
REMARK  Name = Vorinostat.pdbqt.pdb
REMARK  6 active torsions:
REMARK  status: ('A' for Active; 'I' for Inactive)
REMARK    1  A    between atoms: C_1  and  C_2
REMARK    2  A    between atoms: C_3  and  C_4
REMARK    3  A    between atoms: C_5  and  C_8
REMARK    4  A    between atoms: N_7  and  O_10
REMARK    5  A    between atoms: C_12  and  C_15
REMARK    6  A    between atoms: N_14  and  C_17
REMARK                            x       y       z     vdW  Elec       q    Type
REMARK                         _______ _______ _______ _____ _____    ______ ____
ROOT
ATOM      1  C   UNL     1     -10.818  47.699  27.012  0.00  0.00    +0.000 C 
ATOM      2  C   UNL     1      -9.437  47.460  26.395  0.00  0.00    +0.000 C 
ENDROOT
BRANCH   2   5
ATOM      3  O   UNL     1      -7.968  47.517  24.636  0.00  0.00    +0.000 OA
ATOM      4  N   UNL     1      -7.213  46.708  26.687  0.00  0.00    +0.000 N 
ATOM      5  C   UNL     1      -8.135  47.233  25.812  0.00  0.00    +0.000 C 
ATOM      6  H   UNL     1      -7.521  46.531  27.635  0.00  0.00    +0.000 HD
BRANCH   4   7
ATOM      7  C   UNL     1      -5.878  46.393  26.379  0.00  0.00    +0.000 A 
ATOM      8  C   UNL     1      -4.891  47.305  26.755  0.00  0.00    +0.000 A 
ATOM      9  C   UNL     1      -5.511  45.221  25.720  0.00  0.00    +0.000 A 
ATOM     10  C   UNL     1      -3.551  47.048  26.476  0.00  0.00    +0.000 A 
ATOM     11  C   UNL     1      -4.170  44.960  25.440  0.00  0.00    +0.000 A 
ATOM     12  C   UNL     1      -3.190  45.874  25.819  0.00  0.00    +0.000 A 
ENDBRANCH   4   7
ENDBRANCH   2   5
BRANCH   1  13
ATOM     13  C   UNL     1     -12.200  47.939  27.628  0.00  0.00    +0.000 C 
ATOM     14  C   UNL     1     -13.582  48.178  28.244  0.00  0.00    +0.000 C 
BRANCH  14  15
ATOM     15  C   UNL     1     -14.963  48.416  28.860  0.00  0.00    +0.000 C 
ATOM     16  C   UNL     1     -16.346  48.653  29.475  0.00  0.00    +0.000 C 
BRANCH  16  19
ATOM     17  O   UNL     1     -17.909  49.938  30.600  0.00  0.00    +0.000 OA
ATOM     18  N   UNL     1     -18.531  47.840  29.943  0.00  0.00    +0.000 N 
ATOM     19  C   UNL     1     -17.644  48.874  30.054  0.00  0.00    +0.000 C 
ATOM     20  H   UNL     1     -18.343  46.970  29.460  0.00  0.00    +0.000 HD
BRANCH  18  21
ATOM     21  O   UNL     1     -19.827  48.030  30.469  0.00  0.00    +0.000 OA
ATOM     22  H   UNL     1     -19.799  48.961  30.780  0.00  0.00    +0.000 HD
ENDBRANCH  18  21
ENDBRANCH  16  19
ENDBRANCH  14  15
ENDBRANCH   1  13
TORSDOF 6
ENDMDL
