MODEL 1
REMARK VINA RESULT:      -6.6      0.000      0.000
REMARK  Name = 10074640_Masitinib.pdbqt.pdb
REMARK  6 active torsions:
REMARK  status: ('A' for Active; 'I' for Inactive)
REMARK    1  A    between atoms: C_1  and  N_22
REMARK    2  A    between atoms: C_2  and  N_9
REMARK    3  A    between atoms: C_12  and  C_16
REMARK    4  A    between atoms: C_23  and  C_30
REMARK    5  A    between atoms: C_25  and  C_31
REMARK    6  A    between atoms: C_31  and  N_32
REMARK                            x       y       z     vdW  Elec       q    Type
REMARK                         _______ _______ _______ _____ _____    ______ ____
ROOT
ATOM      1  C   UNL     1      17.627  26.477   2.228  0.00  0.00    +0.000 A 
ATOM      2  C   UNL     1      18.251  28.558   3.360  0.00  0.00    +0.000 A 
ATOM      3  C   UNL     1      17.887  27.205   3.390  0.00  0.00    +0.000 A 
ATOM      4  C   UNL     1      18.346  29.169   2.094  0.00  0.00    +0.000 A 
ATOM      5  C   UNL     1      17.753  27.106   0.991  0.00  0.00    +0.000 A 
ATOM      6  C   UNL     1      18.102  28.452   0.923  0.00  0.00    +0.000 A 
ATOM      7  C   UNL     1      18.722  30.632   1.970  0.00  0.00    +0.000 C 
ENDROOT
BRANCH   2   9
ATOM      8  S   UNL     1      19.807  30.087   6.755  0.00  0.00    +0.000 S 
ATOM      9  N   UNL     1      18.556  29.279   4.539  0.00  0.00    +0.000 N 
ATOM     10  N   UNL     1      20.790  28.565   4.938  0.00  0.00    +0.000 NA
ATOM     11  C   UNL     1      19.696  29.218   5.263  0.00  0.00    +0.000 A 
ATOM     12  C   UNL     1      21.764  28.709   5.907  0.00  0.00    +0.000 A 
ATOM     13  C   UNL     1      21.387  29.504   6.962  0.00  0.00    +0.000 A 
ATOM     14  H   UNL     1      17.817  29.916   4.830  0.00  0.00    +0.000 HD
BRANCH  12  16
ATOM     15  N   UNL     1      25.318  27.826   6.636  0.00  0.00    +0.000 NA
ATOM     16  C   UNL     1      23.060  28.081   5.787  0.00  0.00    +0.000 A 
ATOM     17  C   UNL     1      23.330  27.133   4.805  0.00  0.00    +0.000 A 
ATOM     18  C   UNL     1      24.086  28.394   6.668  0.00  0.00    +0.000 A 
ATOM     19  C   UNL     1      24.584  26.536   4.729  0.00  0.00    +0.000 A 
ATOM     20  C   UNL     1      25.533  26.916   5.663  0.00  0.00    +0.000 A 
ENDBRANCH  12  16
ENDBRANCH   2   9
BRANCH   1  22
ATOM     21  O   UNL     1      19.375  24.158   2.302  0.00  0.00    +0.000 OA
ATOM     22  N   UNL     1      17.262  25.116   2.243  0.00  0.00    +0.000 N 
ATOM     23  C   UNL     1      18.156  24.056   2.231  0.00  0.00    +0.000 C 
ATOM     24  H   UNL     1      16.269  24.921   2.296  0.00  0.00    +0.000 HD
BRANCH  23  30
ATOM     25  C   UNL     1      16.368  20.186   1.994  0.00  0.00    +0.000 A 
ATOM     26  C   UNL     1      17.643  20.313   2.542  0.00  0.00    +0.000 A 
ATOM     27  C   UNL     1      15.689  21.307   1.526  0.00  0.00    +0.000 A 
ATOM     28  C   UNL     1      18.240  21.570   2.623  0.00  0.00    +0.000 A 
ATOM     29  C   UNL     1      16.288  22.562   1.606  0.00  0.00    +0.000 A 
ATOM     30  C   UNL     1      17.566  22.698   2.154  0.00  0.00    +0.000 A 
BRANCH  25  31
ATOM     31  C   UNL     1      15.756  18.900   1.913  0.00  0.00    +0.000 C 
BRANCH  31  32
ATOM     32  N   UNL     1      15.132  17.586   1.828  0.00  0.00    +0.000 N 
ATOM     33  N   UNL     1      16.997  15.122   0.081  0.00  0.00    +0.000 N 
ATOM     34  C   UNL     1      15.160  17.187   0.394  0.00  0.00    +0.000 C 
ATOM     35  C   UNL     1      16.148  16.595   2.281  0.00  0.00    +0.000 C 
ATOM     36  C   UNL     1      15.970  16.101  -0.370  0.00  0.00    +0.000 C 
ATOM     37  C   UNL     1      16.959  15.510   1.517  0.00  0.00    +0.000 C 
ATOM     38  C   UNL     1      16.397  13.799  -0.019  0.00  0.00    +0.000 C 
ENDBRANCH  31  32
ENDBRANCH  25  31
ENDBRANCH  23  30
ENDBRANCH   1  22
TORSDOF 6
ENDMDL
MODEL 2
REMARK VINA RESULT:      -6.6     29.725     33.817
REMARK  Name = 10074640_Masitinib.pdbqt.pdb
REMARK  6 active torsions:
REMARK  status: ('A' for Active; 'I' for Inactive)
REMARK    1  A    between atoms: C_1  and  N_22
REMARK    2  A    between atoms: C_2  and  N_9
REMARK    3  A    between atoms: C_12  and  C_16
REMARK    4  A    between atoms: C_23  and  C_30
REMARK    5  A    between atoms: C_25  and  C_31
REMARK    6  A    between atoms: C_31  and  N_32
REMARK                            x       y       z     vdW  Elec       q    Type
REMARK                         _______ _______ _______ _____ _____    ______ ____
ROOT
ATOM      1  C   UNL     1      14.386  -0.002  27.887  0.00  0.00    +0.000 A 
ATOM      2  C   UNL     1      16.195   1.060  29.152  0.00  0.00    +0.000 A 
ATOM      3  C   UNL     1      15.739   0.288  28.075  0.00  0.00    +0.000 A 
ATOM      4  C   UNL     1      15.226   1.541  30.054  0.00  0.00    +0.000 A 
ATOM      5  C   UNL     1      13.451   0.509  28.784  0.00  0.00    +0.000 A 
ATOM      6  C   UNL     1      13.869   1.271  29.872  0.00  0.00    +0.000 A 
ATOM      7  C   UNL     1      15.633   2.374  31.253  0.00  0.00    +0.000 C 
ENDROOT
BRANCH   2   9
ATOM      8  S   UNL     1      20.119   1.916  28.751  0.00  0.00    +0.000 S 
ATOM      9  N   UNL     1      17.563   1.386  29.314  0.00  0.00    +0.000 N 
ATOM     10  N   UNL     1      18.188   1.834  27.063  0.00  0.00    +0.000 NA
ATOM     11  C   UNL     1      18.455   1.678  28.341  0.00  0.00    +0.000 A 
ATOM     12  C   UNL     1      19.334   2.119  26.345  0.00  0.00    +0.000 A 
ATOM     13  C   UNL     1      20.469   2.196  27.114  0.00  0.00    +0.000 A 
ATOM     14  H   UNL     1      17.864   1.412  30.286  0.00  0.00    +0.000 HD
BRANCH  12  16
ATOM     15  N   UNL     1      19.444   3.875  23.052  0.00  0.00    +0.000 NA
ATOM     16  C   UNL     1      19.308   2.328  24.915  0.00  0.00    +0.000 A 
ATOM     17  C   UNL     1      19.175   1.271  24.019  0.00  0.00    +0.000 A 
ATOM     18  C   UNL     1      19.431   3.603  24.381  0.00  0.00    +0.000 A 
ATOM     19  C   UNL     1      19.171   1.508  22.648  0.00  0.00    +0.000 A 
ATOM     20  C   UNL     1      19.308   2.818  22.222  0.00  0.00    +0.000 A 
ENDBRANCH  12  16
ENDBRANCH   2   9
BRANCH   1  22
ATOM     21  O   UNL     1      13.355  -2.717  27.951  0.00  0.00    +0.000 OA
ATOM     22  N   UNL     1      13.913  -0.775  26.808  0.00  0.00    +0.000 N 
ATOM     23  C   UNL     1      13.477  -2.088  26.906  0.00  0.00    +0.000 C 
ATOM     24  H   UNL     1      13.870  -0.308  25.909  0.00  0.00    +0.000 HD
BRANCH  23  30
ATOM     25  C   UNL     1      12.388  -4.092  23.297  0.00  0.00    +0.000 A 
ATOM     26  C   UNL     1      13.220  -2.977  23.230  0.00  0.00    +0.000 A 
ATOM     27  C   UNL     1      11.915  -4.544  24.525  0.00  0.00    +0.000 A 
ATOM     28  C   UNL     1      13.581  -2.311  24.400  0.00  0.00    +0.000 A 
ATOM     29  C   UNL     1      12.275  -3.876  25.693  0.00  0.00    +0.000 A 
ATOM     30  C   UNL     1      13.109  -2.757  25.635  0.00  0.00    +0.000 A 
BRANCH  25  31
ATOM     31  C   UNL     1      12.020  -4.775  22.100  0.00  0.00    +0.000 C 
BRANCH  31  32
ATOM     32  N   UNL     1      11.644  -5.475  20.878  0.00  0.00    +0.000 N 
ATOM     33  N   UNL     1       9.649  -3.615  18.606  0.00  0.00    +0.000 N 
ATOM     34  C   UNL     1      10.169  -5.330  20.733  0.00  0.00    +0.000 C 
ATOM     35  C   UNL     1      11.997  -4.580  19.741  0.00  0.00    +0.000 C 
ATOM     36  C   UNL     1       9.294  -4.522  19.732  0.00  0.00    +0.000 C 
ATOM     37  C   UNL     1      11.123  -3.771  18.741  0.00  0.00    +0.000 C 
ATOM     38  C   UNL     1       9.259  -4.291  17.376  0.00  0.00    +0.000 C 
ENDBRANCH  31  32
ENDBRANCH  25  31
ENDBRANCH  23  30
ENDBRANCH   1  22
TORSDOF 6
ENDMDL
MODEL 3
REMARK VINA RESULT:      -6.3     29.623     32.014
REMARK  Name = 10074640_Masitinib.pdbqt.pdb
REMARK  6 active torsions:
REMARK  status: ('A' for Active; 'I' for Inactive)
REMARK    1  A    between atoms: C_1  and  N_22
REMARK    2  A    between atoms: C_2  and  N_9
REMARK    3  A    between atoms: C_12  and  C_16
REMARK    4  A    between atoms: C_23  and  C_30
REMARK    5  A    between atoms: C_25  and  C_31
REMARK    6  A    between atoms: C_31  and  N_32
REMARK                            x       y       z     vdW  Elec       q    Type
REMARK                         _______ _______ _______ _____ _____    ______ ____
ROOT
ATOM      1  C   UNL     1      10.436  18.097  29.794  0.00  0.00    +0.000 A 
ATOM      2  C   UNL     1      11.235  15.800  30.084  0.00  0.00    +0.000 A 
ATOM      3  C   UNL     1      10.211  16.756  30.110  0.00  0.00    +0.000 A 
ATOM      4  C   UNL     1      12.521  16.246  29.724  0.00  0.00    +0.000 A 
ATOM      5  C   UNL     1      11.716  18.500  29.419  0.00  0.00    +0.000 A 
ATOM      6  C   UNL     1      12.760  17.580  29.393  0.00  0.00    +0.000 A 
ATOM      7  C   UNL     1      13.689  15.280  29.682  0.00  0.00    +0.000 C 
ENDROOT
BRANCH   2   9
ATOM      8  S   UNL     1       9.721  12.166  30.975  0.00  0.00    +0.000 S 
ATOM      9  N   UNL     1      10.992  14.434  30.364  0.00  0.00    +0.000 N 
ATOM     10  N   UNL     1       8.616  14.370  30.265  0.00  0.00    +0.000 NA
ATOM     11  C   UNL     1       9.791  13.827  30.494  0.00  0.00    +0.000 A 
ATOM     12  C   UNL     1       7.594  13.471  30.504  0.00  0.00    +0.000 A 
ATOM     13  C   UNL     1       8.027  12.228  30.899  0.00  0.00    +0.000 A 
ATOM     14  H   UNL     1      11.839  13.878  30.450  0.00  0.00    +0.000 HD
BRANCH  12  16
ATOM     15  N   UNL     1       3.943  13.130  29.801  0.00  0.00    +0.000 NA
ATOM     16  C   UNL     1       6.204  13.829  30.329  0.00  0.00    +0.000 A 
ATOM     17  C   UNL     1       5.746  15.126  30.542  0.00  0.00    +0.000 A 
ATOM     18  C   UNL     1       5.267  12.876  29.955  0.00  0.00    +0.000 A 
ATOM     19  C   UNL     1       4.399  15.431  30.382  0.00  0.00    +0.000 A 
ATOM     20  C   UNL     1       3.548  14.403  30.013  0.00  0.00    +0.000 A 
ENDBRANCH  12  16
ENDBRANCH   2   9
BRANCH   1  22
ATOM     21  O   UNL     1       9.649  19.818  31.998  0.00  0.00    +0.000 OA
ATOM     22  N   UNL     1       9.416  19.069  29.814  0.00  0.00    +0.000 N 
ATOM     23  C   UNL     1       9.064  19.825  30.922  0.00  0.00    +0.000 C 
ATOM     24  H   UNL     1       8.938  19.232  28.935  0.00  0.00    +0.000 HD
BRANCH  23  30
ATOM     25  C   UNL     1       5.768  22.498  30.447  0.00  0.00    +0.000 A 
ATOM     26  C   UNL     1       5.545  21.234  30.989  0.00  0.00    +0.000 A 
ATOM     27  C   UNL     1       7.049  22.881  30.061  0.00  0.00    +0.000 A 
ATOM     28  C   UNL     1       6.611  20.350  31.147  0.00  0.00    +0.000 A 
ATOM     29  C   UNL     1       8.113  21.996  30.218  0.00  0.00    +0.000 A 
ATOM     30  C   UNL     1       7.897  20.726  30.761  0.00  0.00    +0.000 A 
BRANCH  25  31
ATOM     31  C   UNL     1       4.678  23.404  30.287  0.00  0.00    +0.000 C 
BRANCH  31  32
ATOM     32  N   UNL     1       3.564  24.329  30.121  0.00  0.00    +0.000 N 
ATOM     33  N   UNL     1       0.352  22.994  30.829  0.00  0.00    +0.000 N 
ATOM     34  C   UNL     1       2.557  23.644  29.264  0.00  0.00    +0.000 C 
ATOM     35  C   UNL     1       2.762  24.269  31.375  0.00  0.00    +0.000 C 
ATOM     36  C   UNL     1       1.146  23.066  29.572  0.00  0.00    +0.000 C 
ATOM     37  C   UNL     1       1.352  23.691  31.683  0.00  0.00    +0.000 C 
ATOM     38  C   UNL     1      -0.779  23.897  30.671  0.00  0.00    +0.000 C 
ENDBRANCH  31  32
ENDBRANCH  25  31
ENDBRANCH  23  30
ENDBRANCH   1  22
TORSDOF 6
ENDMDL
MODEL 4
REMARK VINA RESULT:      -6.2     28.727     30.158
REMARK  Name = 10074640_Masitinib.pdbqt.pdb
REMARK  6 active torsions:
REMARK  status: ('A' for Active; 'I' for Inactive)
REMARK    1  A    between atoms: C_1  and  N_22
REMARK    2  A    between atoms: C_2  and  N_9
REMARK    3  A    between atoms: C_12  and  C_16
REMARK    4  A    between atoms: C_23  and  C_30
REMARK    5  A    between atoms: C_25  and  C_31
REMARK    6  A    between atoms: C_31  and  N_32
REMARK                            x       y       z     vdW  Elec       q    Type
REMARK                         _______ _______ _______ _____ _____    ______ ____
ROOT
ATOM      1  C   UNL     1      12.997  18.499  31.236  0.00  0.00    +0.000 A 
ATOM      2  C   UNL     1      13.047  20.924  30.899  0.00  0.00    +0.000 A 
ATOM      3  C   UNL     1      12.374  19.695  30.877  0.00  0.00    +0.000 A 
ATOM      4  C   UNL     1      14.397  20.910  31.301  0.00  0.00    +0.000 A 
ATOM      5  C   UNL     1      14.326  18.523  31.652  0.00  0.00    +0.000 A 
ATOM      6  C   UNL     1      15.029  19.725  31.676  0.00  0.00    +0.000 A 
ATOM      7  C   UNL     1      15.203  22.193  31.343  0.00  0.00    +0.000 C 
ENDROOT
BRANCH   2   9
ATOM      8  S   UNL     1      10.489  23.895  29.939  0.00  0.00    +0.000 S 
ATOM      9  N   UNL     1      12.399  22.140  30.575  0.00  0.00    +0.000 N 
ATOM     10  N   UNL     1      10.117  21.508  30.805  0.00  0.00    +0.000 NA
ATOM     11  C   UNL     1      11.068  22.358  30.486  0.00  0.00    +0.000 A 
ATOM     12  C   UNL     1       8.866  22.052  30.586  0.00  0.00    +0.000 A 
ATOM     13  C   UNL     1       8.894  23.342  30.113  0.00  0.00    +0.000 A 
ATOM     14  H   UNL     1      13.039  22.915  30.417  0.00  0.00    +0.000 HD
BRANCH  12  16
ATOM     15  N   UNL     1       5.231  21.292  30.975  0.00  0.00    +0.000 NA
ATOM     16  C   UNL     1       7.653  21.313  30.854  0.00  0.00    +0.000 A 
ATOM     17  C   UNL     1       7.674  19.963  31.192  0.00  0.00    +0.000 A 
ATOM     18  C   UNL     1       6.412  21.927  30.766  0.00  0.00    +0.000 A 
ATOM     19  C   UNL     1       6.487  19.278  31.427  0.00  0.00    +0.000 A 
ATOM     20  C   UNL     1       5.303  19.985  31.305  0.00  0.00    +0.000 A 
ENDBRANCH  12  16
ENDBRANCH   2   9
BRANCH   1  22
ATOM     21  O   UNL     1      12.196  16.929  28.927  0.00  0.00    +0.000 OA
ATOM     22  N   UNL     1      12.332  17.256  31.220  0.00  0.00    +0.000 N 
ATOM     23  C   UNL     1      11.938  16.584  30.073  0.00  0.00    +0.000 C 
ATOM     24  H   UNL     1      12.166  16.827  32.123  0.00  0.00    +0.000 HD
BRANCH  23  30
ATOM     25  C   UNL     1       9.798  12.935  30.658  0.00  0.00    +0.000 A 
ATOM     26  C   UNL     1       9.119  14.052  30.177  0.00  0.00    +0.000 A 
ATOM     27  C   UNL     1      11.158  13.011  30.948  0.00  0.00    +0.000 A 
ATOM     28  C   UNL     1       9.803  15.250  29.985  0.00  0.00    +0.000 A 
ATOM     29  C   UNL     1      11.840  14.209  30.757  0.00  0.00    +0.000 A 
ATOM     30  C   UNL     1      11.165  15.334  30.275  0.00  0.00    +0.000 A 
BRANCH  25  31
ATOM     31  C   UNL     1       9.099  11.708  30.854  0.00  0.00    +0.000 C 
BRANCH  31  32
ATOM     32  N   UNL     1       8.383  10.454  31.057  0.00  0.00    +0.000 N 
ATOM     33  N   UNL     1       8.713   8.071  28.446  0.00  0.00    +0.000 N 
ATOM     34  C   UNL     1       7.585  10.208  29.823  0.00  0.00    +0.000 C 
ATOM     35  C   UNL     1       9.362   9.356  30.826  0.00  0.00    +0.000 C 
ATOM     36  C   UNL     1       7.725   9.158  28.684  0.00  0.00    +0.000 C 
ATOM     37  C   UNL     1       9.502   8.306  29.686  0.00  0.00    +0.000 C 
ATOM     38  C   UNL     1       8.008   6.809  28.623  0.00  0.00    +0.000 C 
ENDBRANCH  31  32
ENDBRANCH  25  31
ENDBRANCH  23  30
ENDBRANCH   1  22
TORSDOF 6
ENDMDL
MODEL 5
REMARK VINA RESULT:      -6.2     28.423     34.249
REMARK  Name = 10074640_Masitinib.pdbqt.pdb
REMARK  6 active torsions:
REMARK  status: ('A' for Active; 'I' for Inactive)
REMARK    1  A    between atoms: C_1  and  N_22
REMARK    2  A    between atoms: C_2  and  N_9
REMARK    3  A    between atoms: C_12  and  C_16
REMARK    4  A    between atoms: C_23  and  C_30
REMARK    5  A    between atoms: C_25  and  C_31
REMARK    6  A    between atoms: C_31  and  N_32
REMARK                            x       y       z     vdW  Elec       q    Type
REMARK                         _______ _______ _______ _____ _____    ______ ____
ROOT
ATOM      1  C   UNL     1      13.498  -3.608  20.359  0.00  0.00    +0.000 A 
ATOM      2  C   UNL     1      14.459  -4.672  18.373  0.00  0.00    +0.000 A 
ATOM      3  C   UNL     1      14.534  -4.290  19.719  0.00  0.00    +0.000 A 
ATOM      4  C   UNL     1      13.282  -4.337  17.675  0.00  0.00    +0.000 A 
ATOM      5  C   UNL     1      12.338  -3.313  19.647  0.00  0.00    +0.000 A 
ATOM      6  C   UNL     1      12.232  -3.667  18.304  0.00  0.00    +0.000 A 
ATOM      7  C   UNL     1      13.121  -4.702  16.213  0.00  0.00    +0.000 C 
ENDROOT
BRANCH   2   9
ATOM      8  S   UNL     1      17.665  -5.971  16.293  0.00  0.00    +0.000 S 
ATOM      9  N   UNL     1      15.494  -5.401  17.741  0.00  0.00    +0.000 N 
ATOM     10  N   UNL     1      16.960  -3.640  17.102  0.00  0.00    +0.000 NA
ATOM     11  C   UNL     1      16.588  -4.900  17.124  0.00  0.00    +0.000 A 
ATOM     12  C   UNL     1      18.123  -3.475  16.375  0.00  0.00    +0.000 A 
ATOM     13  C   UNL     1      18.633  -4.644  15.866  0.00  0.00    +0.000 A 
ATOM     14  H   UNL     1      15.374  -6.410  17.795  0.00  0.00    +0.000 HD
BRANCH  12  16
ATOM     15  N   UNL     1      19.313  -0.355  14.703  0.00  0.00    +0.000 NA
ATOM     16  C   UNL     1      18.735  -2.177  16.196  0.00  0.00    +0.000 A 
ATOM     17  C   UNL     1      19.283  -1.469  17.261  0.00  0.00    +0.000 A 
ATOM     18  C   UNL     1      18.783  -1.580  14.944  0.00  0.00    +0.000 A 
ATOM     19  C   UNL     1      19.849  -0.215  17.056  0.00  0.00    +0.000 A 
ATOM     20  C   UNL     1      19.836   0.291  15.767  0.00  0.00    +0.000 A 
ENDBRANCH  12  16
ENDBRANCH   2   9
BRANCH   1  22
ATOM     21  O   UNL     1      12.404  -4.991  22.667  0.00  0.00    +0.000 OA
ATOM     22  N   UNL     1      13.560  -3.219  21.712  0.00  0.00    +0.000 N 
ATOM     23  C   UNL     1      12.971  -3.909  22.762  0.00  0.00    +0.000 C 
ATOM     24  H   UNL     1      14.103  -2.388  21.913  0.00  0.00    +0.000 HD
BRANCH  23  30
ATOM     25  C   UNL     1      13.187  -2.158  26.650  0.00  0.00    +0.000 A 
ATOM     26  C   UNL     1      13.778  -1.500  25.574  0.00  0.00    +0.000 A 
ATOM     27  C   UNL     1      12.537  -3.374  26.458  0.00  0.00    +0.000 A 
ATOM     28  C   UNL     1      13.718  -2.061  24.301  0.00  0.00    +0.000 A 
ATOM     29  C   UNL     1      12.480  -3.934  25.185  0.00  0.00    +0.000 A 
ATOM     30  C   UNL     1      13.071  -3.280  24.101  0.00  0.00    +0.000 A 
BRANCH  25  31
ATOM     31  C   UNL     1      13.246  -1.583  27.954  0.00  0.00    +0.000 C 
BRANCH  31  32
ATOM     32  N   UNL     1      13.307  -0.998  29.287  0.00  0.00    +0.000 N 
ATOM     33  N   UNL     1      11.017   1.644  29.901  0.00  0.00    +0.000 N 
ATOM     34  C   UNL     1      13.413   0.477  29.107  0.00  0.00    +0.000 C 
ATOM     35  C   UNL     1      11.915  -0.986  29.819  0.00  0.00    +0.000 C 
ATOM     36  C   UNL     1      12.412   1.635  29.384  0.00  0.00    +0.000 C 
ATOM     37  C   UNL     1      10.915   0.172  30.095  0.00  0.00    +0.000 C 
ATOM     38  C   UNL     1      11.056   2.247  31.225  0.00  0.00    +0.000 C 
ENDBRANCH  31  32
ENDBRANCH  25  31
ENDBRANCH  23  30
ENDBRANCH   1  22
TORSDOF 6
ENDMDL
MODEL 6
REMARK VINA RESULT:      -6.1      1.602      2.118
REMARK  Name = 10074640_Masitinib.pdbqt.pdb
REMARK  6 active torsions:
REMARK  status: ('A' for Active; 'I' for Inactive)
REMARK    1  A    between atoms: C_1  and  N_22
REMARK    2  A    between atoms: C_2  and  N_9
REMARK    3  A    between atoms: C_12  and  C_16
REMARK    4  A    between atoms: C_23  and  C_30
REMARK    5  A    between atoms: C_25  and  C_31
REMARK    6  A    between atoms: C_31  and  N_32
REMARK                            x       y       z     vdW  Elec       q    Type
REMARK                         _______ _______ _______ _____ _____    ______ ____
ROOT
ATOM      1  C   UNL     1      18.088  25.410   1.179  0.00  0.00    +0.000 A 
ATOM      2  C   UNL     1      18.353  27.628   2.184  0.00  0.00    +0.000 A 
ATOM      3  C   UNL     1      18.259  26.234   2.293  0.00  0.00    +0.000 A 
ATOM      4  C   UNL     1      18.267  28.178   0.890  0.00  0.00    +0.000 A 
ATOM      5  C   UNL     1      18.031  25.985  -0.089  0.00  0.00    +0.000 A 
ATOM      6  C   UNL     1      18.110  27.367  -0.234  0.00  0.00    +0.000 A 
ATOM      7  C   UNL     1      18.348  29.677   0.683  0.00  0.00    +0.000 C 
ENDROOT
BRANCH   2   9
ATOM      8  S   UNL     1      19.660  29.477   5.525  0.00  0.00    +0.000 S 
ATOM      9  N   UNL     1      18.570  28.455   3.312  0.00  0.00    +0.000 N 
ATOM     10  N   UNL     1      20.781  27.820   3.918  0.00  0.00    +0.000 NA
ATOM     11  C   UNL     1      19.659  28.478   4.111  0.00  0.00    +0.000 A 
ATOM     12  C   UNL     1      21.686  28.066   4.932  0.00  0.00    +0.000 A 
ATOM     13  C   UNL     1      21.230  28.943   5.886  0.00  0.00    +0.000 A 
ATOM     14  H   UNL     1      17.805  29.101   3.497  0.00  0.00    +0.000 HD
BRANCH  12  16
ATOM     15  N   UNL     1      25.182  27.290   5.989  0.00  0.00    +0.000 NA
ATOM     16  C   UNL     1      22.996  27.454   4.953  0.00  0.00    +0.000 A 
ATOM     17  C   UNL     1      23.353  26.451   4.056  0.00  0.00    +0.000 A 
ATOM     18  C   UNL     1      23.945  27.838   5.889  0.00  0.00    +0.000 A 
ATOM     19  C   UNL     1      24.616  25.872   4.116  0.00  0.00    +0.000 A 
ATOM     20  C   UNL     1      25.484  26.325   5.095  0.00  0.00    +0.000 A 
ENDBRANCH  12  16
ENDBRANCH   2   9
BRANCH   1  22
ATOM     21  O   UNL     1      15.850  23.830   2.145  0.00  0.00    +0.000 OA
ATOM     22  N   UNL     1      17.993  24.007   1.273  0.00  0.00    +0.000 N 
ATOM     23  C   UNL     1      16.906  23.320   1.791  0.00  0.00    +0.000 C 
ATOM     24  H   UNL     1      18.777  23.481   0.903  0.00  0.00    +0.000 HD
BRANCH  23  30
ATOM     25  C   UNL     1      17.400  19.087   2.052  0.00  0.00    +0.000 A 
ATOM     26  C   UNL     1      16.116  19.615   1.933  0.00  0.00    +0.000 A 
ATOM     27  C   UNL     1      18.506  19.930   2.090  0.00  0.00    +0.000 A 
ATOM     28  C   UNL     1      15.940  20.994   1.850  0.00  0.00    +0.000 A 
ATOM     29  C   UNL     1      18.328  21.309   2.009  0.00  0.00    +0.000 A 
ATOM     30  C   UNL     1      17.044  21.846   1.890  0.00  0.00    +0.000 A 
BRANCH  25  31
ATOM     31  C   UNL     1      17.581  17.674   2.135  0.00  0.00    +0.000 C 
BRANCH  31  32
ATOM     32  N   UNL     1      17.767  16.231   2.223  0.00  0.00    +0.000 N 
ATOM     33  N   UNL     1      14.882  14.375   3.137  0.00  0.00    +0.000 N 
ATOM     34  C   UNL     1      17.231  15.807   3.546  0.00  0.00    +0.000 C 
ATOM     35  C   UNL     1      16.683  15.607   1.413  0.00  0.00    +0.000 C 
ATOM     36  C   UNL     1      15.972  14.986   3.946  0.00  0.00    +0.000 C 
ATOM     37  C   UNL     1      15.423  14.787   1.813  0.00  0.00    +0.000 C 
ATOM     38  C   UNL     1      15.039  12.930   3.232  0.00  0.00    +0.000 C 
ENDBRANCH  31  32
ENDBRANCH  25  31
ENDBRANCH  23  30
ENDBRANCH   1  22
TORSDOF 6
ENDMDL
MODEL 7
REMARK VINA RESULT:      -5.9     12.293     17.455
REMARK  Name = 10074640_Masitinib.pdbqt.pdb
REMARK  6 active torsions:
REMARK  status: ('A' for Active; 'I' for Inactive)
REMARK    1  A    between atoms: C_1  and  N_22
REMARK    2  A    between atoms: C_2  and  N_9
REMARK    3  A    between atoms: C_12  and  C_16
REMARK    4  A    between atoms: C_23  and  C_30
REMARK    5  A    between atoms: C_25  and  C_31
REMARK    6  A    between atoms: C_31  and  N_32
REMARK                            x       y       z     vdW  Elec       q    Type
REMARK                         _______ _______ _______ _____ _____    ______ ____
ROOT
ATOM      1  C   UNL     1       6.742  14.265   2.699  0.00  0.00    +0.000 A 
ATOM      2  C   UNL     1       8.781  14.963   1.535  0.00  0.00    +0.000 A 
ATOM      3  C   UNL     1       7.892  15.052   2.615  0.00  0.00    +0.000 A 
ATOM      4  C   UNL     1       8.469  14.037   0.521  0.00  0.00    +0.000 A 
ATOM      5  C   UNL     1       6.475  13.342   1.690  0.00  0.00    +0.000 A 
ATOM      6  C   UNL     1       7.331  13.234   0.597  0.00  0.00    +0.000 A 
ATOM      7  C   UNL     1       9.370  13.885  -0.688  0.00  0.00    +0.000 C 
ENDROOT
BRANCH   2   9
ATOM      8  S   UNL     1      11.636  17.779   1.073  0.00  0.00    +0.000 S 
ATOM      9  N   UNL     1       9.967  15.733   1.476  0.00  0.00    +0.000 N 
ATOM     10  N   UNL     1       9.074  17.912   1.142  0.00  0.00    +0.000 NA
ATOM     11  C   UNL     1      10.070  17.060   1.240  0.00  0.00    +0.000 A 
ATOM     12  C   UNL     1       9.533  19.190   0.889  0.00  0.00    +0.000 A 
ATOM     13  C   UNL     1      10.902  19.288   0.820  0.00  0.00    +0.000 A 
ATOM     14  H   UNL     1      10.813  15.194   1.654  0.00  0.00    +0.000 HD
BRANCH  12  16
ATOM     15  N   UNL     1       8.281  22.590  -0.013  0.00  0.00    +0.000 NA
ATOM     16  C   UNL     1       8.632  20.309   0.732  0.00  0.00    +0.000 A 
ATOM     17  C   UNL     1       7.291  20.231   1.098  0.00  0.00    +0.000 A 
ATOM     18  C   UNL     1       9.074  21.508   0.192  0.00  0.00    +0.000 A 
ATOM     19  C   UNL     1       6.448  21.321   0.918  0.00  0.00    +0.000 A 
ATOM     20  C   UNL     1       6.990  22.467   0.362  0.00  0.00    +0.000 A 
ENDBRANCH  12  16
ENDBRANCH   2   9
BRANCH   1  22
ATOM     21  O   UNL     1       6.469  12.432   4.936  0.00  0.00    +0.000 OA
ATOM     22  N   UNL     1       5.840  14.343   3.779  0.00  0.00    +0.000 N 
ATOM     23  C   UNL     1       5.734  13.401   4.792  0.00  0.00    +0.000 C 
ATOM     24  H   UNL     1       5.256  15.170   3.814  0.00  0.00    +0.000 HD
BRANCH  23  30
ATOM     25  C   UNL     1       2.637  14.130   7.639  0.00  0.00    +0.000 A 
ATOM     26  C   UNL     1       3.226  12.869   7.584  0.00  0.00    +0.000 A 
ATOM     27  C   UNL     1       3.052  15.138   6.774  0.00  0.00    +0.000 A 
ATOM     28  C   UNL     1       4.235  12.616   6.657  0.00  0.00    +0.000 A 
ATOM     29  C   UNL     1       4.060  14.883   5.848  0.00  0.00    +0.000 A 
ATOM     30  C   UNL     1       4.655  13.620   5.785  0.00  0.00    +0.000 A 
BRANCH  25  31
ATOM     31  C   UNL     1       1.605  14.390   8.589  0.00  0.00    +0.000 C 
BRANCH  31  32
ATOM     32  N   UNL     1       0.550  14.654   9.559  0.00  0.00    +0.000 N 
ATOM     33  N   UNL     1      -1.151  17.744   9.162  0.00  0.00    +0.000 N 
ATOM     34  C   UNL     1       0.805  16.012  10.115  0.00  0.00    +0.000 C 
ATOM     35  C   UNL     1      -0.665  15.032   8.785  0.00  0.00    +0.000 C 
ATOM     36  C   UNL     1       0.054  17.364   9.948  0.00  0.00    +0.000 C 
ATOM     37  C   UNL     1      -1.415  16.384   8.617  0.00  0.00    +0.000 C 
ATOM     38  C   UNL     1      -2.211  18.033  10.118  0.00  0.00    +0.000 C 
ENDBRANCH  31  32
ENDBRANCH  25  31
ENDBRANCH  23  30
ENDBRANCH   1  22
TORSDOF 6
ENDMDL
MODEL 8
REMARK VINA RESULT:      -5.6     28.889     34.417
REMARK  Name = 10074640_Masitinib.pdbqt.pdb
REMARK  6 active torsions:
REMARK  status: ('A' for Active; 'I' for Inactive)
REMARK    1  A    between atoms: C_1  and  N_22
REMARK    2  A    between atoms: C_2  and  N_9
REMARK    3  A    between atoms: C_12  and  C_16
REMARK    4  A    between atoms: C_23  and  C_30
REMARK    5  A    between atoms: C_25  and  C_31
REMARK    6  A    between atoms: C_31  and  N_32
REMARK                            x       y       z     vdW  Elec       q    Type
REMARK                         _______ _______ _______ _____ _____    ______ ____
ROOT
ATOM      1  C   UNL     1      13.937  -2.909  21.247  0.00  0.00    +0.000 A 
ATOM      2  C   UNL     1      14.953  -4.267  19.480  0.00  0.00    +0.000 A 
ATOM      3  C   UNL     1      15.007  -3.643  20.734  0.00  0.00    +0.000 A 
ATOM      4  C   UNL     1      13.761  -4.125  18.743  0.00  0.00    +0.000 A 
ATOM      5  C   UNL     1      12.763  -2.809  20.503  0.00  0.00    +0.000 A 
ATOM      6  C   UNL     1      12.677  -3.407  19.249  0.00  0.00    +0.000 A 
ATOM      7  C   UNL     1      13.621  -4.758  17.373  0.00  0.00    +0.000 C 
ENDROOT
BRANCH   2   9
ATOM      8  S   UNL     1      18.264  -5.740  17.703  0.00  0.00    +0.000 S 
ATOM      9  N   UNL     1      16.026  -5.045  18.983  0.00  0.00    +0.000 N 
ATOM     10  N   UNL     1      17.489  -3.344  18.196  0.00  0.00    +0.000 NA
ATOM     11  C   UNL     1      17.137  -4.600  18.355  0.00  0.00    +0.000 A 
ATOM     12  C   UNL     1      18.679  -3.243  17.501  0.00  0.00    +0.000 A 
ATOM     13  C   UNL     1      19.229  -4.454  17.158  0.00  0.00    +0.000 A 
ATOM     14  H   UNL     1      15.919  -6.043  19.153  0.00  0.00    +0.000 HD
BRANCH  12  16
ATOM     15  N   UNL     1      20.789  -0.181  17.838  0.00  0.00    +0.000 NA
ATOM     16  C   UNL     1      19.278  -1.964  17.191  0.00  0.00    +0.000 A 
ATOM     17  C   UNL     1      19.006  -1.293  16.002  0.00  0.00    +0.000 A 
ATOM     18  C   UNL     1      20.166  -1.363  18.072  0.00  0.00    +0.000 A 
ATOM     19  C   UNL     1      19.613  -0.072  15.730  0.00  0.00    +0.000 A 
ATOM     20  C   UNL     1      20.490   0.434  16.674  0.00  0.00    +0.000 A 
ENDBRANCH  12  16
ENDBRANCH   2   9
BRANCH   1  22
ATOM     21  O   UNL     1      13.285  -4.048  23.839  0.00  0.00    +0.000 OA
ATOM     22  N   UNL     1      13.977  -2.278  22.507  0.00  0.00    +0.000 N 
ATOM     23  C   UNL     1      13.605  -2.873  23.703  0.00  0.00    +0.000 C 
ATOM     24  H   UNL     1      14.334  -1.330  22.519  0.00  0.00    +0.000 HD
BRANCH  23  30
ATOM     25  C   UNL     1      13.620  -0.442  27.213  0.00  0.00    +0.000 A 
ATOM     26  C   UNL     1      13.983   0.123  25.993  0.00  0.00    +0.000 A 
ATOM     27  C   UNL     1      13.260  -1.785  27.286  0.00  0.00    +0.000 A 
ATOM     28  C   UNL     1      13.986  -0.659  24.840  0.00  0.00    +0.000 A 
ATOM     29  C   UNL     1      13.265  -2.566  26.133  0.00  0.00    +0.000 A 
ATOM     30  C   UNL     1      13.629  -2.006  24.906  0.00  0.00    +0.000 A 
BRANCH  25  31
ATOM     31  C   UNL     1      13.615   0.358  28.394  0.00  0.00    +0.000 C 
BRANCH  31  32
ATOM     32  N   UNL     1      13.611   1.178  29.599  0.00  0.00    +0.000 N 
ATOM     33  N   UNL     1      13.391  -0.608  32.659  0.00  0.00    +0.000 N 
ATOM     34  C   UNL     1      12.446   0.739  30.416  0.00  0.00    +0.000 C 
ATOM     35  C   UNL     1      14.653   0.618  30.505  0.00  0.00    +0.000 C 
ATOM     36  C   UNL     1      12.350  -0.036  31.762  0.00  0.00    +0.000 C 
ATOM     37  C   UNL     1      14.556  -0.158  31.850  0.00  0.00    +0.000 C 
ATOM     38  C   UNL     1      13.386   0.186  33.879  0.00  0.00    +0.000 C 
ENDBRANCH  31  32
ENDBRANCH  25  31
ENDBRANCH  23  30
ENDBRANCH   1  22
TORSDOF 6
ENDMDL
MODEL 9
REMARK VINA RESULT:      -5.6     32.753     34.774
REMARK  Name = 10074640_Masitinib.pdbqt.pdb
REMARK  6 active torsions:
REMARK  status: ('A' for Active; 'I' for Inactive)
REMARK    1  A    between atoms: C_1  and  N_22
REMARK    2  A    between atoms: C_2  and  N_9
REMARK    3  A    between atoms: C_12  and  C_16
REMARK    4  A    between atoms: C_23  and  C_30
REMARK    5  A    between atoms: C_25  and  C_31
REMARK    6  A    between atoms: C_31  and  N_32
REMARK                            x       y       z     vdW  Elec       q    Type
REMARK                         _______ _______ _______ _____ _____    ______ ____
ROOT
ATOM      1  C   UNL     1       7.787  -2.484  18.795  0.00  0.00    +0.000 A 
ATOM      2  C   UNL     1       8.994  -4.547  18.259  0.00  0.00    +0.000 A 
ATOM      3  C   UNL     1       8.604  -3.553  19.167  0.00  0.00    +0.000 A 
ATOM      4  C   UNL     1       8.528  -4.426  16.935  0.00  0.00    +0.000 A 
ATOM      5  C   UNL     1       7.324  -2.407  17.483  0.00  0.00    +0.000 A 
ATOM      6  C   UNL     1       7.701  -3.371  16.551  0.00  0.00    +0.000 A 
ATOM      7  C   UNL     1       8.912  -5.450  15.886  0.00  0.00    +0.000 C 
ENDROOT
BRANCH   2   9
ATOM      8  S   UNL     1      11.688  -7.105  19.838  0.00  0.00    +0.000 S 
ATOM      9  N   UNL     1       9.787  -5.652  18.652  0.00  0.00    +0.000 N 
ATOM     10  N   UNL     1      11.022  -4.703  20.449  0.00  0.00    +0.000 NA
ATOM     11  C   UNL     1      10.738  -5.676  19.612  0.00  0.00    +0.000 A 
ATOM     12  C   UNL     1      12.055  -5.059  21.295  0.00  0.00    +0.000 A 
ATOM     13  C   UNL     1      12.530  -6.332  21.092  0.00  0.00    +0.000 A 
ATOM     14  H   UNL     1       9.573  -6.508  18.145  0.00  0.00    +0.000 HD
BRANCH  12  16
ATOM     15  N   UNL     1      13.847  -2.175  22.850  0.00  0.00    +0.000 NA
ATOM     16  C   UNL     1      12.560  -4.157  22.307  0.00  0.00    +0.000 A 
ATOM     17  C   UNL     1      12.254  -4.319  23.655  0.00  0.00    +0.000 A 
ATOM     18  C   UNL     1      13.361  -3.078  21.962  0.00  0.00    +0.000 A 
ATOM     19  C   UNL     1      12.743  -3.423  24.600  0.00  0.00    +0.000 A 
ATOM     20  C   UNL     1      13.527  -2.377  24.146  0.00  0.00    +0.000 A 
ENDBRANCH  12  16
ENDBRANCH   2   9
BRANCH   1  22
ATOM     21  O   UNL     1       5.509  -2.507  20.597  0.00  0.00    +0.000 OA
ATOM     22  N   UNL     1       7.385  -1.479  19.697  0.00  0.00    +0.000 N 
ATOM     23  C   UNL     1       6.254  -1.539  20.497  0.00  0.00    +0.000 C 
ATOM     24  H   UNL     1       7.998  -0.675  19.772  0.00  0.00    +0.000 HD
BRANCH  23  30
ATOM     25  C   UNL     1       5.367   1.978  22.750  0.00  0.00    +0.000 A 
ATOM     26  C   UNL     1       6.180   0.997  23.314  0.00  0.00    +0.000 A 
ATOM     27  C   UNL     1       4.847   1.810  21.470  0.00  0.00    +0.000 A 
ATOM     28  C   UNL     1       6.475  -0.158  22.591  0.00  0.00    +0.000 A 
ATOM     29  C   UNL     1       5.142   0.655  20.750  0.00  0.00    +0.000 A 
ATOM     30  C   UNL     1       5.956  -0.334  21.308  0.00  0.00    +0.000 A 
BRANCH  25  31
ATOM     31  C   UNL     1       5.066   3.160  23.489  0.00  0.00    +0.000 C 
BRANCH  31  32
ATOM     32  N   UNL     1       4.757   4.367  24.245  0.00  0.00    +0.000 N 
ATOM     33  N   UNL     1       2.728   3.889  27.119  0.00  0.00    +0.000 N 
ATOM     34  C   UNL     1       3.280   4.389  24.439  0.00  0.00    +0.000 C 
ATOM     35  C   UNL     1       5.093   4.083  25.668  0.00  0.00    +0.000 C 
ATOM     36  C   UNL     1       2.392   4.188  25.700  0.00  0.00    +0.000 C 
ATOM     37  C   UNL     1       4.205   3.882  26.929  0.00  0.00    +0.000 C 
ATOM     38  C   UNL     1       2.404   5.079  27.894  0.00  0.00    +0.000 C 
ENDBRANCH  31  32
ENDBRANCH  25  31
ENDBRANCH  23  30
ENDBRANCH   1  22
TORSDOF 6
ENDMDL
