MODEL 1
REMARK VINA RESULT:      -5.6      0.000      0.000
REMARK  Name = 101808841_CandidaspongiolideA.pdbqt.pdb
REMARK  13 active torsions:
REMARK  status: ('A' for Active; 'I' for Inactive)
REMARK    1  A    between atoms: C_6  and  C_39
REMARK    2  A    between atoms: C_9  and  O_27
REMARK    3  A    between atoms: C_9  and  C_51
REMARK    4  A    between atoms: C_10  and  O_29
REMARK    5  A    between atoms: C_14  and  O_31
REMARK    6  A    between atoms: C_15  and  O_33
REMARK    7  A    between atoms: C_20  and  O_35
REMARK    8  A    between atoms: O_35  and  C_37
REMARK    9  A    between atoms: C_39  and  C_41
REMARK   10  A    between atoms: C_39  and  O_49
REMARK   11  A    between atoms: C_42  and  C_44
REMARK   12  A    between atoms: C_44  and  C_46
REMARK   13  A    between atoms: C_51  and  O_52
REMARK                            x       y       z     vdW  Elec       q    Type
REMARK                         _______ _______ _______ _____ _____    ______ ____
ROOT
ATOM      1  O   UNL     1      -1.218  27.769  10.401  0.00  0.00    +0.000 OA
ATOM      2  O   UNL     1      -3.106  28.279  14.069  0.00  0.00    +0.000 OA
ATOM      3  O   UNL     1      -2.505  25.947   9.814  0.00  0.00    +0.000 OA
ATOM      4  O   UNL     1       2.821  31.015  15.005  0.00  0.00    +0.000 OA
ATOM      5  O   UNL     1       0.136  30.240  10.010  0.00  0.00    +0.000 OA
ATOM      6  C   UNL     1      -1.297  27.142  13.079  0.00  0.00    +0.000 C 
ATOM      7  C   UNL     1      -1.880  28.191  13.972  0.00  0.00    +0.000 C 
ATOM      8  C   UNL     1      -1.241  27.425  11.686  0.00  0.00    +0.000 C 
ATOM      9  C   UNL     1      -0.869  29.163  14.639  0.00  0.00    +0.000 C 
ATOM     10  C   UNL     1      -0.344  30.165  13.625  0.00  0.00    +0.000 C 
ATOM     11  C   UNL     1       0.966  30.724  13.700  0.00  0.00    +0.000 C 
ATOM     12  C   UNL     1      -1.966  27.015   9.561  0.00  0.00    +0.000 C 
ATOM     13  C   UNL     1       2.320  31.213  13.904  0.00  0.00    +0.000 C 
ATOM     14  C   UNL     1      -2.119  27.675   8.244  0.00  0.00    +0.000 C 
ATOM     15  C   UNL     1      -1.435  28.887   7.842  0.00  0.00    +0.000 C 
ATOM     16  C   UNL     1       3.038  31.923  12.796  0.00  0.00    +0.000 C 
ATOM     17  C   UNL     1       0.001  29.135   7.908  0.00  0.00    +0.000 C 
ATOM     18  C   UNL     1       1.475  31.188   8.265  0.00  0.00    +0.000 C 
ATOM     19  C   UNL     1       0.488  30.208   8.830  0.00  0.00    +0.000 C 
ATOM     20  C   UNL     1       2.253  32.022   9.184  0.00  0.00    +0.000 C 
ATOM     21  C   UNL     1       2.405  32.238  11.567  0.00  0.00    +0.000 C 
ATOM     22  C   UNL     1       1.800  32.529  10.459  0.00  0.00    +0.000 C 
ATOM     23  C   UNL     1       4.480  32.373  12.899  0.00  0.00    +0.000 C 
ATOM     24  C   UNL     1       0.960  27.974   7.639  0.00  0.00    +0.000 C 
ATOM     25  C   UNL     1       1.598  31.391   6.759  0.00  0.00    +0.000 C 
ATOM     26  C   UNL     1       0.501  33.281  10.601  0.00  0.00    +0.000 C 
ENDROOT
BRANCH   9  27
ATOM     27  O   UNL     1       0.236  28.413  15.145  0.00  0.00    +0.000 OA
ATOM     28  H   UNL     1      -0.100  27.527  15.373  0.00  0.00    +0.000 HD
ENDBRANCH   9  27
BRANCH  10  29
ATOM     29  O   UNL     1      -1.185  30.568  12.607  0.00  0.00    +0.000 OA
ATOM     30  H   UNL     1      -2.057  30.880  12.915  0.00  0.00    +0.000 HD
ENDBRANCH  10  29
BRANCH  14  31
ATOM     31  O   UNL     1      -3.015  27.142   7.333  0.00  0.00    +0.000 OA
ATOM     32  H   UNL     1      -3.851  27.654   7.331  0.00  0.00    +0.000 HD
ENDBRANCH  14  31
BRANCH  15  33
ATOM     33  O   UNL     1      -2.118  29.635   6.899  0.00  0.00    +0.000 OA
ATOM     34  C   UNL     1      -2.884  30.630   7.526  0.00  0.00    +0.000 C 
ENDBRANCH  15  33
BRANCH  20  35
ATOM     35  O   UNL     1       3.399  32.698   8.686  0.00  0.00    +0.000 OA
BRANCH  35  37
ATOM     36  O   UNL     1       2.451  34.648   7.824  0.00  0.00    +0.000 OA
ATOM     37  C   UNL     1       3.232  34.037   8.527  0.00  0.00    +0.000 C 
ATOM     38  C   UNL     1       4.188  34.873   9.294  0.00  0.00    +0.000 C 
ENDBRANCH  35  37
ENDBRANCH  20  35
BRANCH   6  39
ATOM     39  C   UNL     1      -0.907  25.853  13.615  0.00  0.00    +0.000 C 
BRANCH  39  41
ATOM     40  O   UNL     1      -1.303  24.102  15.426  0.00  0.00    +0.000 OA
ATOM     41  C   UNL     1      -1.831  25.050  14.465  0.00  0.00    +0.000 C 
ATOM     42  C   UNL     1      -1.716  25.315  15.897  0.00  0.00    +0.000 C 
ATOM     43  C   UNL     1      -3.090  24.413  13.782  0.00  0.00    +0.000 C 
BRANCH  42  44
ATOM     44  C   UNL     1      -2.862  25.369  16.760  0.00  0.00    +0.000 C 
ATOM     45  C   UNL     1      -3.419  24.102  17.357  0.00  0.00    +0.000 C 
BRANCH  44  46
ATOM     46  C   UNL     1      -3.118  26.566  17.481  0.00  0.00    +0.000 C 
ATOM     47  C   UNL     1      -3.390  27.518  18.158  0.00  0.00    +0.000 C 
ATOM     48  C   UNL     1      -3.833  28.653  19.092  0.00  0.00    +0.000 C 
ENDBRANCH  44  46
ENDBRANCH  42  44
ENDBRANCH  39  41
BRANCH  39  49
ATOM     49  O   UNL     1       0.206  25.283  13.016  0.00  0.00    +0.000 OA
ATOM     50  H   UNL     1       1.042  25.690  13.315  0.00  0.00    +0.000 HD
ENDBRANCH  39  49
ENDBRANCH   6  39
BRANCH   9  51
ATOM     51  C   UNL     1      -1.506  29.898  15.758  0.00  0.00    +0.000 C 
BRANCH  51  52
ATOM     52  O   UNL     1      -2.095  30.571  16.746  0.00  0.00    +0.000 OA
ATOM     53  H   UNL     1      -2.492  31.397  16.411  0.00  0.00    +0.000 HD
ENDBRANCH  51  52
ENDBRANCH   9  51
TORSDOF 13
ENDMDL
MODEL 2
REMARK VINA RESULT:      -5.6     34.024     36.841
REMARK  Name = 101808841_CandidaspongiolideA.pdbqt.pdb
REMARK  13 active torsions:
REMARK  status: ('A' for Active; 'I' for Inactive)
REMARK    1  A    between atoms: C_6  and  C_39
REMARK    2  A    between atoms: C_9  and  O_27
REMARK    3  A    between atoms: C_9  and  C_51
REMARK    4  A    between atoms: C_10  and  O_29
REMARK    5  A    between atoms: C_14  and  O_31
REMARK    6  A    between atoms: C_15  and  O_33
REMARK    7  A    between atoms: C_20  and  O_35
REMARK    8  A    between atoms: O_35  and  C_37
REMARK    9  A    between atoms: C_39  and  C_41
REMARK   10  A    between atoms: C_39  and  O_49
REMARK   11  A    between atoms: C_42  and  C_44
REMARK   12  A    between atoms: C_44  and  C_46
REMARK   13  A    between atoms: C_51  and  O_52
REMARK                            x       y       z     vdW  Elec       q    Type
REMARK                         _______ _______ _______ _____ _____    ______ ____
ROOT
ATOM      1  O   UNL     1      27.255   9.430  23.174  0.00  0.00    +0.000 OA
ATOM      2  O   UNL     1      26.104  10.237  27.086  0.00  0.00    +0.000 OA
ATOM      3  O   UNL     1      27.540  11.654  22.633  0.00  0.00    +0.000 OA
ATOM      4  O   UNL     1      23.350   4.371  25.858  0.00  0.00    +0.000 OA
ATOM      5  O   UNL     1      27.893   6.659  23.235  0.00  0.00    +0.000 OA
ATOM      6  C   UNL     1      25.204   9.972  24.926  0.00  0.00    +0.000 C 
ATOM      7  C   UNL     1      25.426   9.529  26.339  0.00  0.00    +0.000 C 
ATOM      8  C   UNL     1      26.242   9.714  23.988  0.00  0.00    +0.000 C 
ATOM      9  C   UNL     1      24.850   8.138  26.720  0.00  0.00    +0.000 C 
ATOM     10  C   UNL     1      25.699   7.028  26.124  0.00  0.00    +0.000 C 
ATOM     11  C   UNL     1      25.158   5.767  25.736  0.00  0.00    +0.000 C 
ATOM     12  C   UNL     1      27.899  10.485  22.621  0.00  0.00    +0.000 C 
ATOM     13  C   UNL     1      24.471   4.533  25.390  0.00  0.00    +0.000 C 
ATOM     14  C   UNL     1      29.182  10.068  22.009  0.00  0.00    +0.000 C 
ATOM     15  C   UNL     1      29.624   8.695  21.874  0.00  0.00    +0.000 C 
ATOM     16  C   UNL     1      25.137   3.526  24.501  0.00  0.00    +0.000 C 
ATOM     17  C   UNL     1      28.872   7.596  21.280  0.00  0.00    +0.000 C 
ATOM     18  C   UNL     1      28.743   5.074  21.652  0.00  0.00    +0.000 C 
ATOM     19  C   UNL     1      28.472   6.459  22.166  0.00  0.00    +0.000 C 
ATOM     20  C   UNL     1      28.066   3.938  22.282  0.00  0.00    +0.000 C 
ATOM     21  C   UNL     1      26.475   3.680  24.057  0.00  0.00    +0.000 C 
ATOM     22  C   UNL     1      27.703   3.834  23.677  0.00  0.00    +0.000 C 
ATOM     23  C   UNL     1      24.450   2.267  24.017  0.00  0.00    +0.000 C 
ATOM     24  C   UNL     1      27.963   7.889  20.085  0.00  0.00    +0.000 C 
ATOM     25  C   UNL     1      29.782   4.836  20.562  0.00  0.00    +0.000 C 
ATOM     26  C   UNL     1      28.704   4.073  24.780  0.00  0.00    +0.000 C 
ENDROOT
BRANCH   9  27
ATOM     27  O   UNL     1      23.526   8.022  26.197  0.00  0.00    +0.000 OA
ATOM     28  H   UNL     1      23.159   7.184  26.532  0.00  0.00    +0.000 HD
ENDBRANCH   9  27
BRANCH  10  29
ATOM     29  O   UNL     1      27.055   7.246  25.983  0.00  0.00    +0.000 OA
ATOM     30  H   UNL     1      27.587   6.428  25.965  0.00  0.00    +0.000 HD
ENDBRANCH  10  29
BRANCH  14  31
ATOM     31  O   UNL     1      30.061  11.045  21.576  0.00  0.00    +0.000 OA
ATOM     32  H   UNL     1      30.211  10.971  20.609  0.00  0.00    +0.000 HD
ENDBRANCH  14  31
BRANCH  15  33
ATOM     33  O   UNL     1      31.001   8.546  21.852  0.00  0.00    +0.000 OA
ATOM     34  C   UNL     1      31.426   8.128  20.582  0.00  0.00    +0.000 C 
ENDBRANCH  15  33
BRANCH  20  35
ATOM     35  O   UNL     1      28.060   2.689  21.606  0.00  0.00    +0.000 OA
BRANCH  35  37
ATOM     36  O   UNL     1      26.574   3.257  19.899  0.00  0.00    +0.000 OA
ATOM     37  C   UNL     1      27.011   2.518  20.759  0.00  0.00    +0.000 C 
ATOM     38  C   UNL     1      26.258   1.255  20.957  0.00  0.00    +0.000 C 
ENDBRANCH  35  37
ENDBRANCH  20  35
BRANCH   6  39
ATOM     39  C   UNL     1      24.019  10.725  24.569  0.00  0.00    +0.000 C 
BRANCH  39  41
ATOM     40  O   UNL     1      22.443  12.654  25.116  0.00  0.00    +0.000 OA
ATOM     41  C   UNL     1      23.782  12.102  25.091  0.00  0.00    +0.000 C 
ATOM     42  C   UNL     1      22.942  12.157  26.284  0.00  0.00    +0.000 C 
ATOM     43  C   UNL     1      24.776  13.232  24.655  0.00  0.00    +0.000 C 
BRANCH  42  44
ATOM     44  C   UNL     1      23.208  13.063  27.365  0.00  0.00    +0.000 C 
ATOM     45  C   UNL     1      22.554  14.421  27.391  0.00  0.00    +0.000 C 
BRANCH  44  46
ATOM     46  C   UNL     1      23.592  12.532  28.625  0.00  0.00    +0.000 C 
ATOM     47  C   UNL     1      23.907  11.989  29.647  0.00  0.00    +0.000 C 
ATOM     48  C   UNL     1      24.266  11.169  30.895  0.00  0.00    +0.000 C 
ENDBRANCH  44  46
ENDBRANCH  42  44
ENDBRANCH  39  41
BRANCH  39  49
ATOM     49  O   UNL     1      23.323  10.236  23.473  0.00  0.00    +0.000 OA
ATOM     50  H   UNL     1      23.282   9.260  23.461  0.00  0.00    +0.000 HD
ENDBRANCH  39  49
ENDBRANCH   6  39
BRANCH   9  51
ATOM     51  C   UNL     1      24.804   7.973  28.192  0.00  0.00    +0.000 C 
BRANCH  51  52
ATOM     52  O   UNL     1      24.789   7.819  29.516  0.00  0.00    +0.000 OA
ATOM     53  H   UNL     1      24.757   6.873  29.751  0.00  0.00    +0.000 HD
ENDBRANCH  51  52
ENDBRANCH   9  51
TORSDOF 13
ENDMDL
MODEL 3
REMARK VINA RESULT:      -5.6     19.161     23.254
REMARK  Name = 101808841_CandidaspongiolideA.pdbqt.pdb
REMARK  13 active torsions:
REMARK  status: ('A' for Active; 'I' for Inactive)
REMARK    1  A    between atoms: C_6  and  C_39
REMARK    2  A    between atoms: C_9  and  O_27
REMARK    3  A    between atoms: C_9  and  C_51
REMARK    4  A    between atoms: C_10  and  O_29
REMARK    5  A    between atoms: C_14  and  O_31
REMARK    6  A    between atoms: C_15  and  O_33
REMARK    7  A    between atoms: C_20  and  O_35
REMARK    8  A    between atoms: O_35  and  C_37
REMARK    9  A    between atoms: C_39  and  C_41
REMARK   10  A    between atoms: C_39  and  O_49
REMARK   11  A    between atoms: C_42  and  C_44
REMARK   12  A    between atoms: C_44  and  C_46
REMARK   13  A    between atoms: C_51  and  O_52
REMARK                            x       y       z     vdW  Elec       q    Type
REMARK                         _______ _______ _______ _____ _____    ______ ____
ROOT
ATOM      1  O   UNL     1       7.403  22.213  31.141  0.00  0.00    +0.000 OA
ATOM      2  O   UNL     1       6.736  24.544  27.765  0.00  0.00    +0.000 OA
ATOM      3  O   UNL     1       5.275  21.323  31.140  0.00  0.00    +0.000 OA
ATOM      4  O   UNL     1      11.586  27.734  30.895  0.00  0.00    +0.000 OA
ATOM      5  O   UNL     1      10.238  22.193  31.376  0.00  0.00    +0.000 OA
ATOM      6  C   UNL     1       6.551  24.618  30.111  0.00  0.00    +0.000 C 
ATOM      7  C   UNL     1       7.175  25.022  28.812  0.00  0.00    +0.000 C 
ATOM      8  C   UNL     1       6.961  23.379  30.677  0.00  0.00    +0.000 C 
ATOM      9  C   UNL     1       8.412  25.957  28.907  0.00  0.00    +0.000 C 
ATOM     10  C   UNL     1       9.632  25.181  29.375  0.00  0.00    +0.000 C 
ATOM     11  C   UNL     1      10.674  25.775  30.146  0.00  0.00    +0.000 C 
ATOM     12  C   UNL     1       6.489  21.219  31.243  0.00  0.00    +0.000 C 
ATOM     13  C   UNL     1      11.660  26.511  30.921  0.00  0.00    +0.000 C 
ATOM     14  C   UNL     1       7.146  19.908  31.454  0.00  0.00    +0.000 C 
ATOM     15  C   UNL     1       8.564  19.722  31.681  0.00  0.00    +0.000 C 
ATOM     16  C   UNL     1      12.705  25.773  31.703  0.00  0.00    +0.000 C 
ATOM     17  C   UNL     1       9.379  20.400  32.683  0.00  0.00    +0.000 C 
ATOM     18  C   UNL     1      11.815  21.144  32.842  0.00  0.00    +0.000 C 
ATOM     19  C   UNL     1      10.466  21.311  32.206  0.00  0.00    +0.000 C 
ATOM     20  C   UNL     1      12.807  22.212  32.695  0.00  0.00    +0.000 C 
ATOM     21  C   UNL     1      12.842  24.364  31.636  0.00  0.00    +0.000 C 
ATOM     22  C   UNL     1      12.958  23.077  31.547  0.00  0.00    +0.000 C 
ATOM     23  C   UNL     1      13.701  26.464  32.611  0.00  0.00    +0.000 C 
ATOM     24  C   UNL     1       8.752  20.730  34.039  0.00  0.00    +0.000 C 
ATOM     25  C   UNL     1      12.191  19.845  33.544  0.00  0.00    +0.000 C 
ATOM     26  C   UNL     1      13.085  22.527  30.148  0.00  0.00    +0.000 C 
ENDROOT
BRANCH   9  27
ATOM     27  O   UNL     1       8.145  26.990  29.856  0.00  0.00    +0.000 OA
ATOM     28  H   UNL     1       7.278  26.794  30.256  0.00  0.00    +0.000 HD
ENDBRANCH   9  27
BRANCH  10  29
ATOM     29  O   UNL     1       9.742  23.854  29.011  0.00  0.00    +0.000 OA
ATOM     30  H   UNL     1      10.627  23.606  28.682  0.00  0.00    +0.000 HD
ENDBRANCH  10  29
BRANCH  14  31
ATOM     31  O   UNL     1       6.377  18.759  31.382  0.00  0.00    +0.000 OA
ATOM     32  H   UNL     1       6.280  18.466  30.451  0.00  0.00    +0.000 HD
ENDBRANCH  14  31
BRANCH  15  33
ATOM     33  O   UNL     1       9.046  18.492  31.267  0.00  0.00    +0.000 OA
ATOM     34  C   UNL     1       9.598  18.593  29.981  0.00  0.00    +0.000 C 
ENDBRANCH  15  33
BRANCH  20  35
ATOM     35  O   UNL     1      13.941  22.212  33.550  0.00  0.00    +0.000 OA
BRANCH  35  37
ATOM     36  O   UNL     1      15.382  20.789  32.390  0.00  0.00    +0.000 OA
ATOM     37  C   UNL     1      15.097  21.833  32.944  0.00  0.00    +0.000 C 
ATOM     38  C   UNL     1      16.189  22.834  33.019  0.00  0.00    +0.000 C 
ENDBRANCH  35  37
ENDBRANCH  20  35
BRANCH   6  39
ATOM     39  C   UNL     1       5.497  25.417  30.702  0.00  0.00    +0.000 C 
BRANCH  39  41
ATOM     40  O   UNL     1       4.349  25.665  32.965  0.00  0.00    +0.000 OA
ATOM     41  C   UNL     1       5.530  25.814  32.138  0.00  0.00    +0.000 C 
ATOM     42  C   UNL     1       5.319  24.712  33.072  0.00  0.00    +0.000 C 
ATOM     43  C   UNL     1       6.227  27.168  32.510  0.00  0.00    +0.000 C 
BRANCH  42  44
ATOM     44  C   UNL     1       6.049  24.601  34.303  0.00  0.00    +0.000 C 
ATOM     45  C   UNL     1       5.363  24.091  35.545  0.00  0.00    +0.000 C 
BRANCH  44  46
ATOM     46  C   UNL     1       7.458  24.424  34.250  0.00  0.00    +0.000 C 
ATOM     47  C   UNL     1       8.655  24.378  34.199  0.00  0.00    +0.000 C 
ATOM     48  C   UNL     1      10.185  24.459  34.095  0.00  0.00    +0.000 C 
ENDBRANCH  44  46
ENDBRANCH  42  44
ENDBRANCH  39  41
BRANCH  39  49
ATOM     49  O   UNL     1       4.669  26.059  29.792  0.00  0.00    +0.000 OA
ATOM     50  H   UNL     1       4.344  26.918  30.123  0.00  0.00    +0.000 HD
ENDBRANCH  39  49
ENDBRANCH   6  39
BRANCH   9  51
ATOM     51  C   UNL     1       8.708  26.573  27.592  0.00  0.00    +0.000 C 
BRANCH  51  52
ATOM     52  O   UNL     1       8.963  27.106  26.398  0.00  0.00    +0.000 OA
ATOM     53  H   UNL     1       9.911  27.033  26.183  0.00  0.00    +0.000 HD
ENDBRANCH  51  52
ENDBRANCH   9  51
TORSDOF 13
ENDMDL
MODEL 4
REMARK VINA RESULT:      -5.6     14.388     17.825
REMARK  Name = 101808841_CandidaspongiolideA.pdbqt.pdb
REMARK  13 active torsions:
REMARK  status: ('A' for Active; 'I' for Inactive)
REMARK    1  A    between atoms: C_6  and  C_39
REMARK    2  A    between atoms: C_9  and  O_27
REMARK    3  A    between atoms: C_9  and  C_51
REMARK    4  A    between atoms: C_10  and  O_29
REMARK    5  A    between atoms: C_14  and  O_31
REMARK    6  A    between atoms: C_15  and  O_33
REMARK    7  A    between atoms: C_20  and  O_35
REMARK    8  A    between atoms: O_35  and  C_37
REMARK    9  A    between atoms: C_39  and  C_41
REMARK   10  A    between atoms: C_39  and  O_49
REMARK   11  A    between atoms: C_42  and  C_44
REMARK   12  A    between atoms: C_44  and  C_46
REMARK   13  A    between atoms: C_51  and  O_52
REMARK                            x       y       z     vdW  Elec       q    Type
REMARK                         _______ _______ _______ _____ _____    ______ ____
ROOT
ATOM      1  O   UNL     1      13.116  35.818  17.512  0.00  0.00    +0.000 OA
ATOM      2  O   UNL     1      15.260  37.716  20.526  0.00  0.00    +0.000 OA
ATOM      3  O   UNL     1      11.199  35.626  18.781  0.00  0.00    +0.000 OA
ATOM      4  O   UNL     1      19.957  34.936  16.823  0.00  0.00    +0.000 OA
ATOM      5  O   UNL     1      14.658  36.342  15.179  0.00  0.00    +0.000 OA
ATOM      6  C   UNL     1      14.763  35.567  19.702  0.00  0.00    +0.000 C 
ATOM      7  C   UNL     1      15.690  36.715  19.949  0.00  0.00    +0.000 C 
ATOM      8  C   UNL     1      13.891  35.658  18.581  0.00  0.00    +0.000 C 
ATOM      9  C   UNL     1      17.120  36.580  19.359  0.00  0.00    +0.000 C 
ATOM     10  C   UNL     1      17.098  36.782  17.854  0.00  0.00    +0.000 C 
ATOM     11  C   UNL     1      18.014  36.134  16.975  0.00  0.00    +0.000 C 
ATOM     12  C   UNL     1      11.783  35.885  17.737  0.00  0.00    +0.000 C 
ATOM     13  C   UNL     1      19.012  35.412  16.202  0.00  0.00    +0.000 C 
ATOM     14  C   UNL     1      11.062  36.381  16.542  0.00  0.00    +0.000 C 
ATOM     15  C   UNL     1      11.671  36.615  15.249  0.00  0.00    +0.000 C 
ATOM     16  C   UNL     1      18.861  35.277  14.717  0.00  0.00    +0.000 C 
ATOM     17  C   UNL     1      12.483  35.672  14.488  0.00  0.00    +0.000 C 
ATOM     18  C   UNL     1      14.426  35.860  12.844  0.00  0.00    +0.000 C 
ATOM     19  C   UNL     1      13.920  36.012  14.249  0.00  0.00    +0.000 C 
ATOM     20  C   UNL     1      15.871  35.824  12.610  0.00  0.00    +0.000 C 
ATOM     21  C   UNL     1      17.821  35.924  14.004  0.00  0.00    +0.000 C 
ATOM     22  C   UNL     1      16.872  36.538  13.371  0.00  0.00    +0.000 C 
ATOM     23  C   UNL     1      19.803  34.458  13.860  0.00  0.00    +0.000 C 
ATOM     24  C   UNL     1      12.131  34.184  14.550  0.00  0.00    +0.000 C 
ATOM     25  C   UNL     1      13.461  35.846  11.664  0.00  0.00    +0.000 C 
ATOM     26  C   UNL     1      16.773  38.022  13.620  0.00  0.00    +0.000 C 
ENDROOT
BRANCH   9  27
ATOM     27  O   UNL     1      17.615  35.268  19.630  0.00  0.00    +0.000 OA
ATOM     28  H   UNL     1      17.976  34.920  18.794  0.00  0.00    +0.000 HD
ENDBRANCH   9  27
BRANCH  10  29
ATOM     29  O   UNL     1      16.166  37.653  17.325  0.00  0.00    +0.000 OA
ATOM     30  H   UNL     1      15.327  37.684  17.823  0.00  0.00    +0.000 HD
ENDBRANCH  10  29
BRANCH  14  31
ATOM     31  O   UNL     1       9.720  36.699  16.658  0.00  0.00    +0.000 OA
ATOM     32  H   UNL     1       9.162  35.915  16.475  0.00  0.00    +0.000 HD
ENDBRANCH  14  31
BRANCH  15  33
ATOM     33  O   UNL     1      11.037  37.587  14.494  0.00  0.00    +0.000 OA
ATOM     34  C   UNL     1      11.653  38.833  14.686  0.00  0.00    +0.000 C 
ENDBRANCH  15  33
BRANCH  20  35
ATOM     35  O   UNL     1      16.348  35.358  11.355  0.00  0.00    +0.000 OA
BRANCH  35  37
ATOM     36  O   UNL     1      15.486  33.193  11.239  0.00  0.00    +0.000 OA
ATOM     37  C   UNL     1      16.390  34.006  11.242  0.00  0.00    +0.000 C 
ATOM     38  C   UNL     1      17.758  33.436  11.162  0.00  0.00    +0.000 C 
ENDBRANCH  35  37
ENDBRANCH  20  35
BRANCH   6  39
ATOM     39  C   UNL     1      14.693  34.462  20.637  0.00  0.00    +0.000 C 
BRANCH  39  41
ATOM     40  O   UNL     1      12.486  33.227  20.959  0.00  0.00    +0.000 OA
ATOM     41  C   UNL     1      13.462  34.188  21.432  0.00  0.00    +0.000 C 
ATOM     42  C   UNL     1      13.357  32.817  21.925  0.00  0.00    +0.000 C 
ATOM     43  C   UNL     1      12.697  35.411  22.045  0.00  0.00    +0.000 C 
BRANCH  42  44
ATOM     44  C   UNL     1      12.848  32.512  23.232  0.00  0.00    +0.000 C 
ATOM     45  C   UNL     1      11.618  31.653  23.382  0.00  0.00    +0.000 C 
BRANCH  44  46
ATOM     46  C   UNL     1      13.745  32.517  24.334  0.00  0.00    +0.000 C 
ATOM     47  C   UNL     1      14.436  32.455  25.312  0.00  0.00    +0.000 C 
ATOM     48  C   UNL     1      15.211  32.311  26.630  0.00  0.00    +0.000 C 
ENDBRANCH  44  46
ENDBRANCH  42  44
ENDBRANCH  39  41
BRANCH  39  49
ATOM     49  O   UNL     1      15.687  33.506  20.488  0.00  0.00    +0.000 OA
ATOM     50  H   UNL     1      16.582  33.869  20.637  0.00  0.00    +0.000 HD
ENDBRANCH  39  49
ENDBRANCH   6  39
BRANCH   9  51
ATOM     51  C   UNL     1      18.035  37.575  19.966  0.00  0.00    +0.000 C 
BRANCH  51  52
ATOM     52  O   UNL     1      18.874  38.470  20.489  0.00  0.00    +0.000 OA
ATOM     53  H   UNL     1      18.962  38.337  21.451  0.00  0.00    +0.000 HD
ENDBRANCH  51  52
ENDBRANCH   9  51
TORSDOF 13
ENDMDL
MODEL 5
REMARK VINA RESULT:      -5.5      5.871     13.105
REMARK  Name = 101808841_CandidaspongiolideA.pdbqt.pdb
REMARK  13 active torsions:
REMARK  status: ('A' for Active; 'I' for Inactive)
REMARK    1  A    between atoms: C_6  and  C_39
REMARK    2  A    between atoms: C_9  and  O_27
REMARK    3  A    between atoms: C_9  and  C_51
REMARK    4  A    between atoms: C_10  and  O_29
REMARK    5  A    between atoms: C_14  and  O_31
REMARK    6  A    between atoms: C_15  and  O_33
REMARK    7  A    between atoms: C_20  and  O_35
REMARK    8  A    between atoms: O_35  and  C_37
REMARK    9  A    between atoms: C_39  and  C_41
REMARK   10  A    between atoms: C_39  and  O_49
REMARK   11  A    between atoms: C_42  and  C_44
REMARK   12  A    between atoms: C_44  and  C_46
REMARK   13  A    between atoms: C_51  and  O_52
REMARK                            x       y       z     vdW  Elec       q    Type
REMARK                         _______ _______ _______ _____ _____    ______ ____
ROOT
ATOM      1  O   UNL     1      -5.137  28.208  19.860  0.00  0.00    +0.000 OA
ATOM      2  O   UNL     1      -5.161  25.935  16.379  0.00  0.00    +0.000 OA
ATOM      3  O   UNL     1      -4.718  30.187  18.752  0.00  0.00    +0.000 OA
ATOM      4  O   UNL     1      -3.569  21.562  21.053  0.00  0.00    +0.000 OA
ATOM      5  O   UNL     1      -6.375  26.499  21.769  0.00  0.00    +0.000 OA
ATOM      6  C   UNL     1      -3.696  26.722  18.047  0.00  0.00    +0.000 C 
ATOM      7  C   UNL     1      -4.457  25.640  17.347  0.00  0.00    +0.000 C 
ATOM      8  C   UNL     1      -4.405  27.517  18.990  0.00  0.00    +0.000 C 
ATOM      9  C   UNL     1      -4.368  24.223  17.976  0.00  0.00    +0.000 C 
ATOM     10  C   UNL     1      -5.208  24.145  19.239  0.00  0.00    +0.000 C 
ATOM     11  C   UNL     1      -4.873  23.300  20.338  0.00  0.00    +0.000 C 
ATOM     12  C   UNL     1      -5.310  29.524  19.592  0.00  0.00    +0.000 C 
ATOM     13  C   UNL     1      -4.412  22.392  21.376  0.00  0.00    +0.000 C 
ATOM     14  C   UNL     1      -6.386  30.103  20.429  0.00  0.00    +0.000 C 
ATOM     15  C   UNL     1      -7.061  29.407  21.505  0.00  0.00    +0.000 C 
ATOM     16  C   UNL     1      -4.965  22.495  22.765  0.00  0.00    +0.000 C 
ATOM     17  C   UNL     1      -6.429  28.718  22.623  0.00  0.00    +0.000 C 
ATOM     18  C   UNL     1      -7.005  26.696  24.071  0.00  0.00    +0.000 C 
ATOM     19  C   UNL     1      -6.607  27.236  22.728  0.00  0.00    +0.000 C 
ATOM     20  C   UNL     1      -6.845  25.264  24.336  0.00  0.00    +0.000 C 
ATOM     21  C   UNL     1      -6.015  23.389  23.094  0.00  0.00    +0.000 C 
ATOM     22  C   UNL     1      -6.986  24.201  23.367  0.00  0.00    +0.000 C 
ATOM     23  C   UNL     1      -4.465  21.653  23.920  0.00  0.00    +0.000 C 
ATOM     24  C   UNL     1      -5.141  29.298  23.210  0.00  0.00    +0.000 C 
ATOM     25  C   UNL     1      -7.661  27.597  25.111  0.00  0.00    +0.000 C 
ATOM     26  C   UNL     1      -8.207  24.080  22.490  0.00  0.00    +0.000 C 
ENDROOT
BRANCH   9  27
ATOM     27  O   UNL     1      -3.009  23.950  18.321  0.00  0.00    +0.000 OA
ATOM     28  H   UNL     1      -2.682  24.719  18.823  0.00  0.00    +0.000 HD
ENDBRANCH   9  27
BRANCH  10  29
ATOM     29  O   UNL     1      -6.358  24.905  19.307  0.00  0.00    +0.000 OA
ATOM     30  H   UNL     1      -6.651  25.257  18.445  0.00  0.00    +0.000 HD
ENDBRANCH  10  29
BRANCH  14  31
ATOM     31  O   UNL     1      -6.831  31.383  20.148  0.00  0.00    +0.000 OA
ATOM     32  H   UNL     1      -6.267  31.802  19.463  0.00  0.00    +0.000 HD
ENDBRANCH  14  31
BRANCH  15  33
ATOM     33  O   UNL     1      -8.353  29.849  21.739  0.00  0.00    +0.000 OA
ATOM     34  C   UNL     1      -9.273  29.058  21.035  0.00  0.00    +0.000 C 
ENDBRANCH  15  33
BRANCH  20  35
ATOM     35  O   UNL     1      -6.905  24.809  25.681  0.00  0.00    +0.000 OA
BRANCH  35  37
ATOM     36  O   UNL     1      -4.705  25.358  26.232  0.00  0.00    +0.000 OA
ATOM     37  C   UNL     1      -5.692  24.649  26.270  0.00  0.00    +0.000 C 
ATOM     38  C   UNL     1      -5.539  23.386  27.034  0.00  0.00    +0.000 C 
ENDBRANCH  35  37
ENDBRANCH  20  35
BRANCH   6  39
ATOM     39  C   UNL     1      -2.321  27.003  17.689  0.00  0.00    +0.000 C 
BRANCH  39  41
ATOM     40  O   UNL     1      -0.502  27.304  15.927  0.00  0.00    +0.000 OA
ATOM     41  C   UNL     1      -1.906  27.188  16.269  0.00  0.00    +0.000 C 
ATOM     42  C   UNL     1      -1.102  26.094  15.730  0.00  0.00    +0.000 C 
ATOM     43  C   UNL     1      -2.715  28.206  15.395  0.00  0.00    +0.000 C 
BRANCH  42  44
ATOM     44  C   UNL     1      -1.267  25.613  14.388  0.00  0.00    +0.000 C 
ATOM     45  C   UNL     1      -0.283  26.009  13.317  0.00  0.00    +0.000 C 
BRANCH  44  46
ATOM     46  C   UNL     1      -1.958  24.389  14.180  0.00  0.00    +0.000 C 
ATOM     47  C   UNL     1      -2.486  23.344  13.918  0.00  0.00    +0.000 C 
ATOM     48  C   UNL     1      -3.099  22.017  13.451  0.00  0.00    +0.000 C 
ENDBRANCH  44  46
ENDBRANCH  42  44
ENDBRANCH  39  41
BRANCH  39  49
ATOM     49  O   UNL     1      -1.517  27.423  18.739  0.00  0.00    +0.000 OA
ATOM     50  H   UNL     1      -0.633  27.008  18.723  0.00  0.00    +0.000 HD
ENDBRANCH  39  49
ENDBRANCH   6  39
BRANCH   9  51
ATOM     51  C   UNL     1      -4.839  23.193  17.020  0.00  0.00    +0.000 C 
BRANCH  51  52
ATOM     52  O   UNL     1      -5.285  22.264  16.174  0.00  0.00    +0.000 OA
ATOM     53  H   UNL     1      -5.329  22.618  15.266  0.00  0.00    +0.000 HD
ENDBRANCH  51  52
ENDBRANCH   9  51
TORSDOF 13
ENDMDL
MODEL 6
REMARK VINA RESULT:      -5.3      1.898      8.302
REMARK  Name = 101808841_CandidaspongiolideA.pdbqt.pdb
REMARK  13 active torsions:
REMARK  status: ('A' for Active; 'I' for Inactive)
REMARK    1  A    between atoms: C_6  and  C_39
REMARK    2  A    between atoms: C_9  and  O_27
REMARK    3  A    between atoms: C_9  and  C_51
REMARK    4  A    between atoms: C_10  and  O_29
REMARK    5  A    between atoms: C_14  and  O_31
REMARK    6  A    between atoms: C_15  and  O_33
REMARK    7  A    between atoms: C_20  and  O_35
REMARK    8  A    between atoms: O_35  and  C_37
REMARK    9  A    between atoms: C_39  and  C_41
REMARK   10  A    between atoms: C_39  and  O_49
REMARK   11  A    between atoms: C_42  and  C_44
REMARK   12  A    between atoms: C_44  and  C_46
REMARK   13  A    between atoms: C_51  and  O_52
REMARK                            x       y       z     vdW  Elec       q    Type
REMARK                         _______ _______ _______ _____ _____    ______ ____
ROOT
ATOM      1  O   UNL     1      -0.535  28.627   9.905  0.00  0.00    +0.000 OA
ATOM      2  O   UNL     1       2.632  30.609  11.730  0.00  0.00    +0.000 OA
ATOM      3  O   UNL     1       0.014  29.369   7.791  0.00  0.00    +0.000 OA
ATOM      4  O   UNL     1      -1.782  29.975  16.589  0.00  0.00    +0.000 OA
ATOM      5  O   UNL     1      -1.360  26.751  11.879  0.00  0.00    +0.000 OA
ATOM      6  C   UNL     1       0.384  30.927  11.105  0.00  0.00    +0.000 C 
ATOM      7  C   UNL     1       1.469  30.739  12.118  0.00  0.00    +0.000 C 
ATOM      8  C   UNL     1      -0.117  29.763  10.458  0.00  0.00    +0.000 C 
ATOM      9  C   UNL     1       1.014  30.625  13.598  0.00  0.00    +0.000 C 
ATOM     10  C   UNL     1       0.385  29.267  13.860  0.00  0.00    +0.000 C 
ATOM     11  C   UNL     1      -0.648  29.067  14.822  0.00  0.00    +0.000 C 
ATOM     12  C   UNL     1      -0.332  28.494   8.573  0.00  0.00    +0.000 C 
ATOM     13  C   UNL     1      -1.690  29.012  15.835  0.00  0.00    +0.000 C 
ATOM     14  C   UNL     1      -0.533  27.092   8.139  0.00  0.00    +0.000 C 
ATOM     15  C   UNL     1      -1.034  26.029   8.986  0.00  0.00    +0.000 C 
ATOM     16  C   UNL     1      -2.590  27.817  15.924  0.00  0.00    +0.000 C 
ATOM     17  C   UNL     1      -2.253  26.058   9.786  0.00  0.00    +0.000 C 
ATOM     18  C   UNL     1      -3.004  25.013  11.990  0.00  0.00    +0.000 C 
ATOM     19  C   UNL     1      -2.119  25.992  11.274  0.00  0.00    +0.000 C 
ATOM     20  C   UNL     1      -3.187  25.147  13.437  0.00  0.00    +0.000 C 
ATOM     21  C   UNL     1      -2.400  26.669  15.115  0.00  0.00    +0.000 C 
ATOM     22  C   UNL     1      -2.198  25.624  14.376  0.00  0.00    +0.000 C 
ATOM     23  C   UNL     1      -3.757  27.730  16.884  0.00  0.00    +0.000 C 
ATOM     24  C   UNL     1      -3.473  26.800   9.238  0.00  0.00    +0.000 C 
ATOM     25  C   UNL     1      -3.624  23.834  11.248  0.00  0.00    +0.000 C 
ATOM     26  C   UNL     1      -0.806  25.045  14.430  0.00  0.00    +0.000 C 
ENDROOT
BRANCH   9  27
ATOM     27  O   UNL     1       0.036  31.631  13.865  0.00  0.00    +0.000 OA
ATOM     28  H   UNL     1      -0.833  31.191  13.874  0.00  0.00    +0.000 HD
ENDBRANCH   9  27
BRANCH  10  29
ATOM     29  O   UNL     1       0.860  28.180  13.154  0.00  0.00    +0.000 OA
ATOM     30  H   UNL     1       1.814  28.014  13.277  0.00  0.00    +0.000 HD
ENDBRANCH  10  29
BRANCH  14  31
ATOM     31  O   UNL     1      -0.175  26.737   6.850  0.00  0.00    +0.000 OA
ATOM     32  H   UNL     1       0.413  27.416   6.455  0.00  0.00    +0.000 HD
ENDBRANCH  14  31
BRANCH  15  33
ATOM     33  O   UNL     1      -0.599  24.766   8.622  0.00  0.00    +0.000 OA
ATOM     34  C   UNL     1      -1.670  24.004   8.132  0.00  0.00    +0.000 C 
ENDBRANCH  15  33
BRANCH  20  35
ATOM     35  O   UNL     1      -4.257  24.447  14.056  0.00  0.00    +0.000 OA
BRANCH  35  37
ATOM     36  O   UNL     1      -3.290  22.347  14.367  0.00  0.00    +0.000 OA
ATOM     37  C   UNL     1      -3.876  23.342  14.747  0.00  0.00    +0.000 C 
ATOM     38  C   UNL     1      -4.287  23.333  16.173  0.00  0.00    +0.000 C 
ENDBRANCH  35  37
ENDBRANCH  20  35
BRANCH   6  39
ATOM     39  C   UNL     1      -0.054  32.257  10.734  0.00  0.00    +0.000 C 
BRANCH  39  41
ATOM     40  O   UNL     1       0.558  34.667  10.165  0.00  0.00    +0.000 OA
ATOM     41  C   UNL     1       0.889  33.256  10.155  0.00  0.00    +0.000 C 
ATOM     42  C   UNL     1       1.420  34.214  11.121  0.00  0.00    +0.000 C 
ATOM     43  C   UNL     1       1.566  32.916   8.782  0.00  0.00    +0.000 C 
BRANCH  42  44
ATOM     44  C   UNL     1       2.784  34.657  11.089  0.00  0.00    +0.000 C 
ATOM     45  C   UNL     1       3.109  36.079  10.706  0.00  0.00    +0.000 C 
BRANCH  44  46
ATOM     46  C   UNL     1       3.737  33.999  11.912  0.00  0.00    +0.000 C 
ATOM     47  C   UNL     1       4.591  33.534  12.614  0.00  0.00    +0.000 C 
ATOM     48  C   UNL     1       5.760  33.061  13.490  0.00  0.00    +0.000 C 
ENDBRANCH  44  46
ENDBRANCH  42  44
ENDBRANCH  39  41
BRANCH  39  49
ATOM     49  O   UNL     1      -1.429  32.413  10.630  0.00  0.00    +0.000 OA
ATOM     50  H   UNL     1      -1.898  32.160  11.448  0.00  0.00    +0.000 HD
ENDBRANCH  39  49
ENDBRANCH   6  39
BRANCH   9  51
ATOM     51  C   UNL     1       2.161  30.811  14.517  0.00  0.00    +0.000 C 
BRANCH  51  52
ATOM     52  O   UNL     1       3.176  30.987  15.364  0.00  0.00    +0.000 OA
ATOM     53  H   UNL     1       3.063  31.813  15.870  0.00  0.00    +0.000 HD
ENDBRANCH  51  52
ENDBRANCH   9  51
TORSDOF 13
ENDMDL
MODEL 7
REMARK VINA RESULT:      -5.3     14.132     17.674
REMARK  Name = 101808841_CandidaspongiolideA.pdbqt.pdb
REMARK  13 active torsions:
REMARK  status: ('A' for Active; 'I' for Inactive)
REMARK    1  A    between atoms: C_6  and  C_39
REMARK    2  A    between atoms: C_9  and  O_27
REMARK    3  A    between atoms: C_9  and  C_51
REMARK    4  A    between atoms: C_10  and  O_29
REMARK    5  A    between atoms: C_14  and  O_31
REMARK    6  A    between atoms: C_15  and  O_33
REMARK    7  A    between atoms: C_20  and  O_35
REMARK    8  A    between atoms: O_35  and  C_37
REMARK    9  A    between atoms: C_39  and  C_41
REMARK   10  A    between atoms: C_39  and  O_49
REMARK   11  A    between atoms: C_42  and  C_44
REMARK   12  A    between atoms: C_44  and  C_46
REMARK   13  A    between atoms: C_51  and  O_52
REMARK                            x       y       z     vdW  Elec       q    Type
REMARK                         _______ _______ _______ _____ _____    ______ ____
ROOT
ATOM      1  O   UNL     1      13.279  35.033  15.580  0.00  0.00    +0.000 OA
ATOM      2  O   UNL     1      13.773  37.170  19.112  0.00  0.00    +0.000 OA
ATOM      3  O   UNL     1      11.080  34.499  16.027  0.00  0.00    +0.000 OA
ATOM      4  O   UNL     1      19.908  35.288  17.590  0.00  0.00    +0.000 OA
ATOM      5  O   UNL     1      15.492  35.862  13.996  0.00  0.00    +0.000 OA
ATOM      6  C   UNL     1      13.979  34.992  18.242  0.00  0.00    +0.000 C 
ATOM      7  C   UNL     1      14.545  36.268  18.781  0.00  0.00    +0.000 C 
ATOM      8  C   UNL     1      13.600  34.972  16.870  0.00  0.00    +0.000 C 
ATOM      9  C   UNL     1      16.093  36.382  18.788  0.00  0.00    +0.000 C 
ATOM     10  C   UNL     1      16.617  36.618  17.381  0.00  0.00    +0.000 C 
ATOM     11  C   UNL     1      17.891  36.151  16.944  0.00  0.00    +0.000 C 
ATOM     12  C   UNL     1      11.969  34.877  15.277  0.00  0.00    +0.000 C 
ATOM     13  C   UNL     1      19.211  35.621  16.638  0.00  0.00    +0.000 C 
ATOM     14  C   UNL     1      11.692  35.282  13.879  0.00  0.00    +0.000 C 
ATOM     15  C   UNL     1      12.704  35.647  12.909  0.00  0.00    +0.000 C 
ATOM     16  C   UNL     1      19.663  35.504  15.214  0.00  0.00    +0.000 C 
ATOM     17  C   UNL     1      13.884  34.868  12.552  0.00  0.00    +0.000 C 
ATOM     18  C   UNL     1      16.251  35.413  11.769  0.00  0.00    +0.000 C 
ATOM     19  C   UNL     1      15.228  35.443  12.867  0.00  0.00    +0.000 C 
ATOM     20  C   UNL     1      17.662  35.618  12.107  0.00  0.00    +0.000 C 
ATOM     21  C   UNL     1      18.886  35.994  14.134  0.00  0.00    +0.000 C 
ATOM     22  C   UNL     1      18.167  36.463  13.165  0.00  0.00    +0.000 C 
ATOM     23  C   UNL     1      20.979  34.872  14.813  0.00  0.00    +0.000 C 
ATOM     24  C   UNL     1      13.778  33.342  12.530  0.00  0.00    +0.000 C 
ATOM     25  C   UNL     1      15.827  35.275  10.312  0.00  0.00    +0.000 C 
ATOM     26  C   UNL     1      17.744  37.904  13.302  0.00  0.00    +0.000 C 
ENDROOT
BRANCH   9  27
ATOM     27  O   UNL     1      16.650  35.160  19.275  0.00  0.00    +0.000 OA
ATOM     28  H   UNL     1      16.516  35.150  20.240  0.00  0.00    +0.000 HD
ENDBRANCH   9  27
BRANCH  10  29
ATOM     29  O   UNL     1      15.833  37.341  16.505  0.00  0.00    +0.000 OA
ATOM     30  H   UNL     1      15.520  36.826  15.737  0.00  0.00    +0.000 HD
ENDBRANCH  10  29
BRANCH  14  31
ATOM     31  O   UNL     1      10.376  35.376  13.462  0.00  0.00    +0.000 OA
ATOM     32  H   UNL     1      10.192  34.729  12.749  0.00  0.00    +0.000 HD
ENDBRANCH  14  31
BRANCH  15  33
ATOM     33  O   UNL     1      12.260  36.524  11.933  0.00  0.00    +0.000 OA
ATOM     34  C   UNL     1      12.547  37.847  12.301  0.00  0.00    +0.000 C 
ENDBRANCH  15  33
BRANCH  20  35
ATOM     35  O   UNL     1      18.650  35.269  11.147  0.00  0.00    +0.000 OA
BRANCH  35  37
ATOM     36  O   UNL     1      19.433  33.270  12.060  0.00  0.00    +0.000 OA
ATOM     37  C   UNL     1      18.998  33.956  11.156  0.00  0.00    +0.000 C 
ATOM     38  C   UNL     1      18.873  33.276   9.843  0.00  0.00    +0.000 C 
ENDBRANCH  35  37
ENDBRANCH  20  35
BRANCH   6  39
ATOM     39  C   UNL     1      13.734  33.866  19.120  0.00  0.00    +0.000 C 
BRANCH  39  41
ATOM     40  O   UNL     1      13.209  32.974  21.450  0.00  0.00    +0.000 OA
ATOM     41  C   UNL     1      13.152  34.048  20.480  0.00  0.00    +0.000 C 
ATOM     42  C   UNL     1      14.125  33.978  21.566  0.00  0.00    +0.000 C 
ATOM     43  C   UNL     1      11.751  34.742  20.591  0.00  0.00    +0.000 C 
BRANCH  42  44
ATOM     44  C   UNL     1      14.062  34.845  22.708  0.00  0.00    +0.000 C 
ATOM     45  C   UNL     1      14.419  36.304  22.569  0.00  0.00    +0.000 C 
BRANCH  44  46
ATOM     46  C   UNL     1      13.176  34.517  23.768  0.00  0.00    +0.000 C 
ATOM     47  C   UNL     1      12.351  34.271  24.603  0.00  0.00    +0.000 C 
ATOM     48  C   UNL     1      11.199  34.029  25.589  0.00  0.00    +0.000 C 
ENDBRANCH  44  46
ENDBRANCH  42  44
ENDBRANCH  39  41
BRANCH  39  49
ATOM     49  O   UNL     1      13.749  32.625  18.499  0.00  0.00    +0.000 OA
ATOM     50  H   UNL     1      14.440  32.035  18.857  0.00  0.00    +0.000 HD
ENDBRANCH  39  49
ENDBRANCH   6  39
BRANCH   9  51
ATOM     51  C   UNL     1      16.535  37.495  19.660  0.00  0.00    +0.000 C 
BRANCH  51  52
ATOM     52  O   UNL     1      16.952  38.481  20.455  0.00  0.00    +0.000 OA
ATOM     53  H   UNL     1      17.799  38.246  20.879  0.00  0.00    +0.000 HD
ENDBRANCH  51  52
ENDBRANCH   9  51
TORSDOF 13
ENDMDL
MODEL 8
REMARK VINA RESULT:      -5.3     20.002     24.370
REMARK  Name = 101808841_CandidaspongiolideA.pdbqt.pdb
REMARK  13 active torsions:
REMARK  status: ('A' for Active; 'I' for Inactive)
REMARK    1  A    between atoms: C_6  and  C_39
REMARK    2  A    between atoms: C_9  and  O_27
REMARK    3  A    between atoms: C_9  and  C_51
REMARK    4  A    between atoms: C_10  and  O_29
REMARK    5  A    between atoms: C_14  and  O_31
REMARK    6  A    between atoms: C_15  and  O_33
REMARK    7  A    between atoms: C_20  and  O_35
REMARK    8  A    between atoms: O_35  and  C_37
REMARK    9  A    between atoms: C_39  and  C_41
REMARK   10  A    between atoms: C_39  and  O_49
REMARK   11  A    between atoms: C_42  and  C_44
REMARK   12  A    between atoms: C_44  and  C_46
REMARK   13  A    between atoms: C_51  and  O_52
REMARK                            x       y       z     vdW  Elec       q    Type
REMARK                         _______ _______ _______ _____ _____    ______ ____
ROOT
ATOM      1  O   UNL     1       8.705  18.803  31.963  0.00  0.00    +0.000 OA
ATOM      2  O   UNL     1      12.741  18.385  32.866  0.00  0.00    +0.000 OA
ATOM      3  O   UNL     1       8.298  16.534  32.011  0.00  0.00    +0.000 OA
ATOM      4  O   UNL     1      12.471  24.167  29.705  0.00  0.00    +0.000 OA
ATOM      5  O   UNL     1       8.199  21.555  32.477  0.00  0.00    +0.000 OA
ATOM      6  C   UNL     1      11.271  18.468  31.028  0.00  0.00    +0.000 C 
ATOM      7  C   UNL     1      12.353  19.034  31.893  0.00  0.00    +0.000 C 
ATOM      8  C   UNL     1       9.929  18.617  31.477  0.00  0.00    +0.000 C 
ATOM      9  C   UNL     1      12.838  20.466  31.535  0.00  0.00    +0.000 C 
ATOM     10  C   UNL     1      11.808  21.499  31.961  0.00  0.00    +0.000 C 
ATOM     11  C   UNL     1      11.617  22.729  31.266  0.00  0.00    +0.000 C 
ATOM     12  C   UNL     1       8.008  17.689  32.288  0.00  0.00    +0.000 C 
ATOM     13  C   UNL     1      11.536  23.940  30.465  0.00  0.00    +0.000 C 
ATOM     14  C   UNL     1       6.818  18.022  33.105  0.00  0.00    +0.000 C 
ATOM     15  C   UNL     1       6.361  19.367  33.390  0.00  0.00    +0.000 C 
ATOM     16  C   UNL     1      10.349  24.847  30.592  0.00  0.00    +0.000 C 
ATOM     17  C   UNL     1       6.109  20.422  32.416  0.00  0.00    +0.000 C 
ATOM     18  C   UNL     1       6.266  22.969  32.415  0.00  0.00    +0.000 C 
ATOM     19  C   UNL     1       6.970  21.644  32.462  0.00  0.00    +0.000 C 
ATOM     20  C   UNL     1       7.039  24.172  32.096  0.00  0.00    +0.000 C 
ATOM     21  C   UNL     1       9.330  24.625  31.552  0.00  0.00    +0.000 C 
ATOM     22  C   UNL     1       8.420  24.412  32.449  0.00  0.00    +0.000 C 
ATOM     23  C   UNL     1      10.145  26.070  29.723  0.00  0.00    +0.000 C 
ATOM     24  C   UNL     1       5.534  20.039  31.051  0.00  0.00    +0.000 C 
ATOM     25  C   UNL     1       4.794  23.085  32.791  0.00  0.00    +0.000 C 
ATOM     26  C   UNL     1       8.919  24.255  33.863  0.00  0.00    +0.000 C 
ENDROOT
BRANCH   9  27
ATOM     27  O   UNL     1      13.012  20.560  30.121  0.00  0.00    +0.000 OA
ATOM     28  H   UNL     1      13.047  21.509  29.900  0.00  0.00    +0.000 HD
ENDBRANCH   9  27
BRANCH  10  29
ATOM     29  O   UNL     1      11.050  21.241  33.085  0.00  0.00    +0.000 OA
ATOM     30  H   UNL     1      10.996  21.992  33.706  0.00  0.00    +0.000 HD
ENDBRANCH  10  29
BRANCH  14  31
ATOM     31  O   UNL     1       6.104  16.991  33.691  0.00  0.00    +0.000 OA
ATOM     32  H   UNL     1       6.282  16.952  34.654  0.00  0.00    +0.000 HD
ENDBRANCH  14  31
BRANCH  15  33
ATOM     33  O   UNL     1       5.664  19.485  34.580  0.00  0.00    +0.000 OA
ATOM     34  C   UNL     1       4.315  19.779  34.328  0.00  0.00    +0.000 C 
ENDBRANCH  15  33
BRANCH  20  35
ATOM     35  O   UNL     1       6.340  25.354  31.730  0.00  0.00    +0.000 OA
BRANCH  35  37
ATOM     36  O   UNL     1       6.694  25.463  29.426  0.00  0.00    +0.000 OA
ATOM     37  C   UNL     1       5.992  25.413  30.418  0.00  0.00    +0.000 C 
ATOM     38  C   UNL     1       4.531  25.479  30.169  0.00  0.00    +0.000 C 
ENDBRANCH  35  37
ENDBRANCH  20  35
BRANCH   6  39
ATOM     39  C   UNL     1      11.601  17.709  29.839  0.00  0.00    +0.000 C 
BRANCH  39  41
ATOM     40  O   UNL     1      12.609  15.780  31.167  0.00  0.00    +0.000 OA
ATOM     41  C   UNL     1      12.087  16.302  29.920  0.00  0.00    +0.000 C 
ATOM     42  C   UNL     1      11.326  15.454  30.834  0.00  0.00    +0.000 C 
ATOM     43  C   UNL     1      12.976  15.764  28.747  0.00  0.00    +0.000 C 
BRANCH  42  44
ATOM     44  C   UNL     1      11.016  14.087  30.529  0.00  0.00    +0.000 C 
ATOM     45  C   UNL     1      11.949  12.985  30.962  0.00  0.00    +0.000 C 
BRANCH  44  46
ATOM     46  C   UNL     1       9.656  13.718  30.348  0.00  0.00    +0.000 C 
ATOM     47  C   UNL     1       8.482  13.493  30.245  0.00  0.00    +0.000 C 
ATOM     48  C   UNL     1       6.958  13.314  30.207  0.00  0.00    +0.000 C 
ENDBRANCH  44  46
ENDBRANCH  42  44
ENDBRANCH  39  41
BRANCH  39  49
ATOM     49  O   UNL     1      11.116  18.240  28.652  0.00  0.00    +0.000 OA
ATOM     50  H   UNL     1      10.159  18.434  28.692  0.00  0.00    +0.000 HD
ENDBRANCH  39  49
ENDBRANCH   6  39
BRANCH   9  51
ATOM     51  C   UNL     1      14.127  20.767  32.201  0.00  0.00    +0.000 C 
BRANCH  51  52
ATOM     52  O   UNL     1      15.275  21.059  32.812  0.00  0.00    +0.000 OA
ATOM     53  H   UNL     1      15.160  21.815  33.417  0.00  0.00    +0.000 HD
ENDBRANCH  51  52
ENDBRANCH   9  51
TORSDOF 13
ENDMDL
MODEL 9
REMARK VINA RESULT:      -5.2     16.747     20.198
REMARK  Name = 101808841_CandidaspongiolideA.pdbqt.pdb
REMARK  13 active torsions:
REMARK  status: ('A' for Active; 'I' for Inactive)
REMARK    1  A    between atoms: C_6  and  C_39
REMARK    2  A    between atoms: C_9  and  O_27
REMARK    3  A    between atoms: C_9  and  C_51
REMARK    4  A    between atoms: C_10  and  O_29
REMARK    5  A    between atoms: C_14  and  O_31
REMARK    6  A    between atoms: C_15  and  O_33
REMARK    7  A    between atoms: C_20  and  O_35
REMARK    8  A    between atoms: O_35  and  C_37
REMARK    9  A    between atoms: C_39  and  C_41
REMARK   10  A    between atoms: C_39  and  O_49
REMARK   11  A    between atoms: C_42  and  C_44
REMARK   12  A    between atoms: C_44  and  C_46
REMARK   13  A    between atoms: C_51  and  O_52
REMARK                            x       y       z     vdW  Elec       q    Type
REMARK                         _______ _______ _______ _____ _____    ______ ____
ROOT
ATOM      1  O   UNL     1      14.977  36.232  23.474  0.00  0.00    +0.000 OA
ATOM      2  O   UNL     1      14.484  32.129  23.021  0.00  0.00    +0.000 OA
ATOM      3  O   UNL     1      14.428  36.209  25.714  0.00  0.00    +0.000 OA
ATOM      4  O   UNL     1      13.518  34.468  16.931  0.00  0.00    +0.000 OA
ATOM      5  O   UNL     1      16.452  36.975  21.157  0.00  0.00    +0.000 OA
ATOM      6  C   UNL     1      13.278  34.147  22.890  0.00  0.00    +0.000 C 
ATOM      7  C   UNL     1      13.921  32.940  22.283  0.00  0.00    +0.000 C 
ATOM      8  C   UNL     1      14.122  35.247  23.211  0.00  0.00    +0.000 C 
ATOM      9  C   UNL     1      13.905  32.861  20.732  0.00  0.00    +0.000 C 
ATOM     10  C   UNL     1      14.914  33.830  20.138  0.00  0.00    +0.000 C 
ATOM     11  C   UNL     1      14.727  34.458  18.872  0.00  0.00    +0.000 C 
ATOM     12  C   UNL     1      15.125  36.571  24.776  0.00  0.00    +0.000 C 
ATOM     13  C   UNL     1      14.407  35.020  17.570  0.00  0.00    +0.000 C 
ATOM     14  C   UNL     1      16.315  37.431  24.973  0.00  0.00    +0.000 C 
ATOM     15  C   UNL     1      17.127  37.975  23.904  0.00  0.00    +0.000 C 
ATOM     16  C   UNL     1      15.152  36.219  17.065  0.00  0.00    +0.000 C 
ATOM     17  C   UNL     1      16.651  38.730  22.751  0.00  0.00    +0.000 C 
ATOM     18  C   UNL     1      17.403  39.011  20.328  0.00  0.00    +0.000 C 
ATOM     19  C   UNL     1      16.825  38.126  21.394  0.00  0.00    +0.000 C 
ATOM     20  C   UNL     1      17.266  38.616  18.925  0.00  0.00    +0.000 C 
ATOM     21  C   UNL     1      16.248  36.777  17.769  0.00  0.00    +0.000 C 
ATOM     22  C   UNL     1      17.257  37.260  18.423  0.00  0.00    +0.000 C 
ATOM     23  C   UNL     1      14.810  36.919  15.767  0.00  0.00    +0.000 C 
ATOM     24  C   UNL     1      15.466  39.679  22.934  0.00  0.00    +0.000 C 
ATOM     25  C   UNL     1      18.209  40.251  20.697  0.00  0.00    +0.000 C 
ATOM     26  C   UNL     1      18.340  36.273  18.777  0.00  0.00    +0.000 C 
ENDROOT
BRANCH   9  27
ATOM     27  O   UNL     1      12.606  33.220  20.260  0.00  0.00    +0.000 OA
ATOM     28  H   UNL     1      12.497  32.808  19.383  0.00  0.00    +0.000 HD
ENDBRANCH   9  27
BRANCH  10  29
ATOM     29  O   UNL     1      16.071  34.084  20.848  0.00  0.00    +0.000 OA
ATOM     30  H   UNL     1      16.660  33.312  20.934  0.00  0.00    +0.000 HD
ENDBRANCH  10  29
BRANCH  14  31
ATOM     31  O   UNL     1      16.730  37.707  26.264  0.00  0.00    +0.000 OA
ATOM     32  H   UNL     1      17.663  37.434  26.393  0.00  0.00    +0.000 HD
ENDBRANCH  14  31
BRANCH  15  33
ATOM     33  O   UNL     1      18.444  38.213  24.261  0.00  0.00    +0.000 OA
ATOM     34  C   UNL     1      19.246  37.111  23.929  0.00  0.00    +0.000 C 
ENDBRANCH  15  33
BRANCH  20  35
ATOM     35  O   UNL     1      17.510  39.586  17.916  0.00  0.00    +0.000 OA
BRANCH  35  37
ATOM     36  O   UNL     1      19.825  39.398  17.688  0.00  0.00    +0.000 OA
ATOM     37  C   UNL     1      18.688  39.424  17.259  0.00  0.00    +0.000 C 
ATOM     38  C   UNL     1      18.561  39.313  15.784  0.00  0.00    +0.000 C 
ENDBRANCH  35  37
ENDBRANCH  20  35
BRANCH   6  39
ATOM     39  C   UNL     1      11.869  34.140  23.228  0.00  0.00    +0.000 C 
BRANCH  39  41
ATOM     40  O   UNL     1      10.347  33.023  24.941  0.00  0.00    +0.000 OA
ATOM     41  C   UNL     1      11.405  33.964  24.633  0.00  0.00    +0.000 C 
ATOM     42  C   UNL     1      11.631  32.628  25.179  0.00  0.00    +0.000 C 
ATOM     43  C   UNL     1      11.192  35.251  25.502  0.00  0.00    +0.000 C 
BRANCH  42  44
ATOM     44  C   UNL     1      12.051  32.417  26.535  0.00  0.00    +0.000 C 
ATOM     45  C   UNL     1      11.054  31.966  27.573  0.00  0.00    +0.000 C 
BRANCH  44  46
ATOM     46  C   UNL     1      13.409  32.084  26.787  0.00  0.00    +0.000 C 
ATOM     47  C   UNL     1      14.525  31.772  27.094  0.00  0.00    +0.000 C 
ATOM     48  C   UNL     1      15.906  31.357  27.623  0.00  0.00    +0.000 C 
ENDBRANCH  44  46
ENDBRANCH  42  44
ENDBRANCH  39  41
BRANCH  39  49
ATOM     49  O   UNL     1      11.029  34.641  22.245  0.00  0.00    +0.000 OA
ATOM     50  H   UNL     1      10.169  34.178  22.215  0.00  0.00    +0.000 HD
ENDBRANCH  39  49
ENDBRANCH   6  39
BRANCH   9  51
ATOM     51  C   UNL     1      14.225  31.489  20.272  0.00  0.00    +0.000 C 
BRANCH  51  52
ATOM     52  O   UNL     1      14.487  30.247  19.865  0.00  0.00    +0.000 OA
ATOM     53  H   UNL     1      15.424  30.160  19.610  0.00  0.00    +0.000 HD
ENDBRANCH  51  52
ENDBRANCH   9  51
TORSDOF 13
ENDMDL
