MODEL 1
REMARK VINA RESULT:      -6.8      0.000      0.000
REMARK  Name = 101808842_CandidaspongiolideB.pdbqt.pdb
REMARK  12 active torsions:
REMARK  status: ('A' for Active; 'I' for Inactive)
REMARK    1  A    between atoms: C_6  and  C_42
REMARK    2  A    between atoms: C_7  and  O_28
REMARK    3  A    between atoms: C_10  and  O_30
REMARK    4  A    between atoms: C_13  and  O_32
REMARK    5  A    between atoms: C_19  and  O_34
REMARK    6  A    between atoms: C_20  and  O_38
REMARK    7  A    between atoms: C_21  and  O_36
REMARK    8  A    between atoms: O_38  and  C_40
REMARK    9  A    between atoms: C_42  and  C_44
REMARK   10  A    between atoms: C_42  and  O_52
REMARK   11  A    between atoms: C_45  and  C_47
REMARK   12  A    between atoms: C_47  and  C_49
REMARK                            x       y       z     vdW  Elec       q    Type
REMARK                         _______ _______ _______ _____ _____    ______ ____
ROOT
ATOM      1  O   UNL     1      -1.837  18.713  22.124  0.00  0.00    +0.000 OA
ATOM      2  O   UNL     1       0.997  15.280  27.358  0.00  0.00    +0.000 OA
ATOM      3  O   UNL     1      -2.078  17.760  25.803  0.00  0.00    +0.000 OA
ATOM      4  O   UNL     1      -0.634  14.450  25.953  0.00  0.00    +0.000 OA
ATOM      5  O   UNL     1       0.305  13.576  23.284  0.00  0.00    +0.000 OA
ATOM      6  C   UNL     1       0.025  17.805  26.831  0.00  0.00    +0.000 C 
ATOM      7  C   UNL     1      -0.201  18.297  24.302  0.00  0.00    +0.000 C 
ATOM      8  C   UNL     1      -0.869  17.935  25.646  0.00  0.00    +0.000 C 
ATOM      9  C   UNL     1       0.528  16.514  27.158  0.00  0.00    +0.000 C 
ATOM     10  C   UNL     1       0.258  17.025  23.563  0.00  0.00    +0.000 C 
ATOM     11  C   UNL     1      -0.301  16.842  22.262  0.00  0.00    +0.000 C 
ATOM     12  C   UNL     1      -1.194  18.810  23.305  0.00  0.00    +0.000 C 
ATOM     13  C   UNL     1      -1.298  17.538  21.391  0.00  0.00    +0.000 C 
ATOM     14  C   UNL     1      -2.455  16.600  21.015  0.00  0.00    +0.000 C 
ATOM     15  C   UNL     1      -2.650  15.361  21.694  0.00  0.00    +0.000 C 
ATOM     16  C   UNL     1      -3.428  16.793  19.856  0.00  0.00    +0.000 C 
ATOM     17  C   UNL     1       0.385  14.317  26.615  0.00  0.00    +0.000 C 
ATOM     18  C   UNL     1      -2.749  14.239  22.336  0.00  0.00    +0.000 C 
ATOM     19  C   UNL     1       1.179  13.066  26.633  0.00  0.00    +0.000 C 
ATOM     20  C   UNL     1      -2.177  13.016  21.821  0.00  0.00    +0.000 C 
ATOM     21  C   UNL     1       0.991  12.040  25.627  0.00  0.00    +0.000 C 
ATOM     22  C   UNL     1      -1.378  12.050  22.573  0.00  0.00    +0.000 C 
ATOM     23  C   UNL     1      -0.203  11.810  24.827  0.00  0.00    +0.000 C 
ATOM     24  C   UNL     1      -0.365  12.572  23.549  0.00  0.00    +0.000 C 
ATOM     25  C   UNL     1      -3.310  14.308  23.728  0.00  0.00    +0.000 C 
ATOM     26  C   UNL     1      -1.219  10.627  22.042  0.00  0.00    +0.000 C 
ATOM     27  C   UNL     1      -1.345  11.002  25.434  0.00  0.00    +0.000 C 
ENDROOT
BRANCH   7  28
ATOM     28  O   UNL     1       0.883  19.202  24.371  0.00  0.00    +0.000 OA
ATOM     29  H   UNL     1       0.497  20.082  24.531  0.00  0.00    +0.000 HD
ENDBRANCH   7  28
BRANCH  10  30
ATOM     30  O   UNL     1       1.152  16.136  24.101  0.00  0.00    +0.000 OA
ATOM     31  H   UNL     1       1.939  16.597  24.459  0.00  0.00    +0.000 HD
ENDBRANCH  10  30
BRANCH  13  32
ATOM     32  O   UNL     1      -0.614  18.001  20.230  0.00  0.00    +0.000 OA
ATOM     33  H   UNL     1      -0.952  18.896  20.065  0.00  0.00    +0.000 HD
ENDBRANCH  13  32
BRANCH  19  34
ATOM     34  O   UNL     1       2.228  12.877  27.513  0.00  0.00    +0.000 OA
ATOM     35  H   UNL     1       1.968  12.392  28.324  0.00  0.00    +0.000 HD
ENDBRANCH  19  34
BRANCH  21  36
ATOM     36  O   UNL     1       1.887  10.986  25.701  0.00  0.00    +0.000 OA
ATOM     37  C   UNL     1       2.264  10.556  24.417  0.00  0.00    +0.000 C 
ENDBRANCH  21  36
BRANCH  20  38
ATOM     38  O   UNL     1      -2.683  12.607  20.564  0.00  0.00    +0.000 OA
BRANCH  38  40
ATOM     39  O   UNL     1      -0.655  13.128  19.542  0.00  0.00    +0.000 OA
ATOM     40  C   UNL     1      -1.867  13.017  19.559  0.00  0.00    +0.000 C 
ATOM     41  C   UNL     1      -2.561  13.460  18.325  0.00  0.00    +0.000 C 
ENDBRANCH  38  40
ENDBRANCH  20  38
BRANCH   6  42
ATOM     42  C   UNL     1       0.165  18.940  27.717  0.00  0.00    +0.000 C 
BRANCH  42  44
ATOM     43  O   UNL     1       2.166  18.093  29.011  0.00  0.00    +0.000 OA
ATOM     44  C   UNL     1       0.937  18.859  28.985  0.00  0.00    +0.000 C 
ATOM     45  C   UNL     1       2.267  19.451  28.880  0.00  0.00    +0.000 C 
ATOM     46  C   UNL     1       0.163  18.622  30.324  0.00  0.00    +0.000 C 
BRANCH  45  47
ATOM     47  C   UNL     1       2.924  20.162  29.935  0.00  0.00    +0.000 C 
ATOM     48  C   UNL     1       3.765  19.420  30.942  0.00  0.00    +0.000 C 
BRANCH  47  49
ATOM     49  C   UNL     1       3.179  21.551  29.810  0.00  0.00    +0.000 C 
ATOM     50  C   UNL     1       3.449  22.717  29.744  0.00  0.00    +0.000 C 
ATOM     51  C   UNL     1       3.879  24.187  29.748  0.00  0.00    +0.000 C 
ENDBRANCH  47  49
ENDBRANCH  45  47
ENDBRANCH  42  44
BRANCH  42  52
ATOM     52  O   UNL     1      -0.443  20.111  27.285  0.00  0.00    +0.000 OA
ATOM     53  H   UNL     1       0.203  20.834  27.152  0.00  0.00    +0.000 HD
ENDBRANCH  42  52
ENDBRANCH   6  42
TORSDOF 12
ENDMDL
MODEL 2
REMARK VINA RESULT:      -6.6      1.885      2.892
REMARK  Name = 101808842_CandidaspongiolideB.pdbqt.pdb
REMARK  12 active torsions:
REMARK  status: ('A' for Active; 'I' for Inactive)
REMARK    1  A    between atoms: C_6  and  C_42
REMARK    2  A    between atoms: C_7  and  O_28
REMARK    3  A    between atoms: C_10  and  O_30
REMARK    4  A    between atoms: C_13  and  O_32
REMARK    5  A    between atoms: C_19  and  O_34
REMARK    6  A    between atoms: C_20  and  O_38
REMARK    7  A    between atoms: C_21  and  O_36
REMARK    8  A    between atoms: O_38  and  C_40
REMARK    9  A    between atoms: C_42  and  C_44
REMARK   10  A    between atoms: C_42  and  O_52
REMARK   11  A    between atoms: C_45  and  C_47
REMARK   12  A    between atoms: C_47  and  C_49
REMARK                            x       y       z     vdW  Elec       q    Type
REMARK                         _______ _______ _______ _____ _____    ______ ____
ROOT
ATOM      1  O   UNL     1      -2.029  18.645  22.246  0.00  0.00    +0.000 OA
ATOM      2  O   UNL     1       1.053  14.790  27.027  0.00  0.00    +0.000 OA
ATOM      3  O   UNL     1      -2.099  17.371  25.835  0.00  0.00    +0.000 OA
ATOM      4  O   UNL     1      -0.636  14.073  25.628  0.00  0.00    +0.000 OA
ATOM      5  O   UNL     1       0.185  13.444  22.853  0.00  0.00    +0.000 OA
ATOM      6  C   UNL     1       0.048  17.343  26.768  0.00  0.00    +0.000 C 
ATOM      7  C   UNL     1      -0.294  18.054  24.305  0.00  0.00    +0.000 C 
ATOM      8  C   UNL     1      -0.899  17.569  25.640  0.00  0.00    +0.000 C 
ATOM      9  C   UNL     1       0.570  16.032  26.957  0.00  0.00    +0.000 C 
ATOM     10  C   UNL     1       0.136  16.855  23.436  0.00  0.00    +0.000 C 
ATOM     11  C   UNL     1      -0.480  16.782  22.151  0.00  0.00    +0.000 C 
ATOM     12  C   UNL     1      -1.333  18.644  23.403  0.00  0.00    +0.000 C 
ATOM     13  C   UNL     1      -1.518  17.544  21.390  0.00  0.00    +0.000 C 
ATOM     14  C   UNL     1      -2.687  16.633  20.984  0.00  0.00    +0.000 C 
ATOM     15  C   UNL     1      -2.846  15.338  21.560  0.00  0.00    +0.000 C 
ATOM     16  C   UNL     1      -3.712  16.919  19.892  0.00  0.00    +0.000 C 
ATOM     17  C   UNL     1       0.413  13.891  26.229  0.00  0.00    +0.000 C 
ATOM     18  C   UNL     1      -2.912  14.162  22.105  0.00  0.00    +0.000 C 
ATOM     19  C   UNL     1       1.212  12.650  26.102  0.00  0.00    +0.000 C 
ATOM     20  C   UNL     1      -2.358  12.995  21.459  0.00  0.00    +0.000 C 
ATOM     21  C   UNL     1       0.983  11.714  25.018  0.00  0.00    +0.000 C 
ATOM     22  C   UNL     1      -1.522  11.973  22.086  0.00  0.00    +0.000 C 
ATOM     23  C   UNL     1      -0.245  11.545  24.255  0.00  0.00    +0.000 C 
ATOM     24  C   UNL     1      -0.468  12.416  23.058  0.00  0.00    +0.000 C 
ATOM     25  C   UNL     1      -3.409  14.105  23.521  0.00  0.00    +0.000 C 
ATOM     26  C   UNL     1      -1.380  10.603  21.425  0.00  0.00    +0.000 C 
ATOM     27  C   UNL     1      -1.355  10.678  24.840  0.00  0.00    +0.000 C 
ENDROOT
BRANCH   7  28
ATOM     28  O   UNL     1       0.788  18.958  24.404  0.00  0.00    +0.000 OA
ATOM     29  H   UNL     1       1.570  18.426  24.642  0.00  0.00    +0.000 HD
ENDBRANCH   7  28
BRANCH  10  30
ATOM     30  O   UNL     1       1.057  15.929  23.854  0.00  0.00    +0.000 OA
ATOM     31  H   UNL     1       1.924  16.349  24.037  0.00  0.00    +0.000 HD
ENDBRANCH  10  30
BRANCH  13  32
ATOM     32  O   UNL     1      -0.890  18.113  20.245  0.00  0.00    +0.000 OA
ATOM     33  H   UNL     1      -0.085  17.590  20.099  0.00  0.00    +0.000 HD
ENDBRANCH  13  32
BRANCH  19  34
ATOM     34  O   UNL     1       2.301  12.392  26.914  0.00  0.00    +0.000 OA
ATOM     35  H   UNL     1       3.015  13.057  26.824  0.00  0.00    +0.000 HD
ENDBRANCH  19  34
BRANCH  21  36
ATOM     36  O   UNL     1       1.886  10.665  24.960  0.00  0.00    +0.000 OA
ATOM     37  C   UNL     1       1.915  10.100  23.673  0.00  0.00    +0.000 C 
ENDBRANCH  21  36
BRANCH  20  38
ATOM     38  O   UNL     1      -2.918  12.693  20.195  0.00  0.00    +0.000 OA
BRANCH  38  40
ATOM     39  O   UNL     1      -0.917  13.180  19.105  0.00  0.00    +0.000 OA
ATOM     40  C   UNL     1      -2.131  13.164  19.193  0.00  0.00    +0.000 C 
ATOM     41  C   UNL     1      -2.856  13.815  18.075  0.00  0.00    +0.000 C 
ENDBRANCH  38  40
ENDBRANCH  20  38
BRANCH   6  42
ATOM     42  C   UNL     1       0.223  18.397  27.744  0.00  0.00    +0.000 C 
BRANCH  42  44
ATOM     43  O   UNL     1      -0.779  20.302  29.070  0.00  0.00    +0.000 OA
ATOM     44  C   UNL     1      -0.923  18.985  28.484  0.00  0.00    +0.000 C 
ATOM     45  C   UNL     1      -1.430  20.208  27.871  0.00  0.00    +0.000 C 
ATOM     46  C   UNL     1      -1.728  18.076  29.472  0.00  0.00    +0.000 C 
BRANCH  45  47
ATOM     47  C   UNL     1      -2.809  20.591  27.844  0.00  0.00    +0.000 C 
ATOM     48  C   UNL     1      -3.379  21.450  28.943  0.00  0.00    +0.000 C 
BRANCH  47  49
ATOM     49  C   UNL     1      -3.532  20.575  26.625  0.00  0.00    +0.000 C 
ATOM     50  C   UNL     1      -4.109  20.616  25.575  0.00  0.00    +0.000 C 
ATOM     51  C   UNL     1      -4.792  20.777  24.214  0.00  0.00    +0.000 C 
ENDBRANCH  47  49
ENDBRANCH  45  47
ENDBRANCH  42  44
BRANCH  42  52
ATOM     52  O   UNL     1       1.536  18.794  27.960  0.00  0.00    +0.000 OA
ATOM     53  H   UNL     1       1.629  19.768  27.972  0.00  0.00    +0.000 HD
ENDBRANCH  42  52
ENDBRANCH   6  42
TORSDOF 12
ENDMDL
MODEL 3
REMARK VINA RESULT:      -6.2      2.493      3.682
REMARK  Name = 101808842_CandidaspongiolideB.pdbqt.pdb
REMARK  12 active torsions:
REMARK  status: ('A' for Active; 'I' for Inactive)
REMARK    1  A    between atoms: C_6  and  C_42
REMARK    2  A    between atoms: C_7  and  O_28
REMARK    3  A    between atoms: C_10  and  O_30
REMARK    4  A    between atoms: C_13  and  O_32
REMARK    5  A    between atoms: C_19  and  O_34
REMARK    6  A    between atoms: C_20  and  O_38
REMARK    7  A    between atoms: C_21  and  O_36
REMARK    8  A    between atoms: O_38  and  C_40
REMARK    9  A    between atoms: C_42  and  C_44
REMARK   10  A    between atoms: C_42  and  O_52
REMARK   11  A    between atoms: C_45  and  C_47
REMARK   12  A    between atoms: C_47  and  C_49
REMARK                            x       y       z     vdW  Elec       q    Type
REMARK                         _______ _______ _______ _____ _____    ______ ____
ROOT
ATOM      1  O   UNL     1      -0.329  18.930  25.681  0.00  0.00    +0.000 OA
ATOM      2  O   UNL     1       1.185  12.344  26.927  0.00  0.00    +0.000 OA
ATOM      3  O   UNL     1      -1.027  15.855  27.818  0.00  0.00    +0.000 OA
ATOM      4  O   UNL     1      -0.522  13.079  25.560  0.00  0.00    +0.000 OA
ATOM      5  O   UNL     1       0.306  14.024  22.879  0.00  0.00    +0.000 OA
ATOM      6  C   UNL     1       0.949  14.708  28.326  0.00  0.00    +0.000 C 
ATOM      7  C   UNL     1       1.009  16.797  26.803  0.00  0.00    +0.000 C 
ATOM      8  C   UNL     1       0.192  15.800  27.653  0.00  0.00    +0.000 C 
ATOM      9  C   UNL     1       1.072  13.459  27.652  0.00  0.00    +0.000 C 
ATOM     10  C   UNL     1       1.157  16.285  25.357  0.00  0.00    +0.000 C 
ATOM     11  C   UNL     1       0.647  17.155  24.347  0.00  0.00    +0.000 C 
ATOM     12  C   UNL     1       0.247  18.058  26.535  0.00  0.00    +0.000 C 
ATOM     13  C   UNL     1      -0.078  18.463  24.293  0.00  0.00    +0.000 C 
ATOM     14  C   UNL     1      -1.418  18.323  23.555  0.00  0.00    +0.000 C 
ATOM     15  C   UNL     1      -1.974  17.040  23.272  0.00  0.00    +0.000 C 
ATOM     16  C   UNL     1      -2.236  19.462  22.954  0.00  0.00    +0.000 C 
ATOM     17  C   UNL     1       0.385  12.304  25.826  0.00  0.00    +0.000 C 
ATOM     18  C   UNL     1      -2.404  15.842  23.025  0.00  0.00    +0.000 C 
ATOM     19  C   UNL     1       0.817  11.222  24.911  0.00  0.00    +0.000 C 
ATOM     20  C   UNL     1      -2.147  15.188  21.763  0.00  0.00    +0.000 C 
ATOM     21  C   UNL     1       0.423  11.213  23.516  0.00  0.00    +0.000 C 
ATOM     22  C   UNL     1      -1.677  13.816  21.578  0.00  0.00    +0.000 C 
ATOM     23  C   UNL     1      -0.741  11.865  22.933  0.00  0.00    +0.000 C 
ATOM     24  C   UNL     1      -0.621  13.296  22.507  0.00  0.00    +0.000 C 
ATOM     25  C   UNL     1      -3.006  15.093  24.180  0.00  0.00    +0.000 C 
ATOM     26  C   UNL     1      -1.870  13.129  20.228  0.00  0.00    +0.000 C 
ATOM     27  C   UNL     1      -2.089  11.157  23.009  0.00  0.00    +0.000 C 
ENDROOT
BRANCH   7  28
ATOM     28  O   UNL     1       2.288  17.136  27.301  0.00  0.00    +0.000 OA
ATOM     29  H   UNL     1       2.167  17.933  27.849  0.00  0.00    +0.000 HD
ENDBRANCH   7  28
BRANCH  10  30
ATOM     30  O   UNL     1       1.750  15.088  25.051  0.00  0.00    +0.000 OA
ATOM     31  H   UNL     1       1.446  14.752  24.182  0.00  0.00    +0.000 HD
ENDBRANCH  10  30
BRANCH  13  32
ATOM     32  O   UNL     1       0.770  19.405  23.643  0.00  0.00    +0.000 OA
ATOM     33  H   UNL     1       0.490  20.277  23.965  0.00  0.00    +0.000 HD
ENDBRANCH  13  32
BRANCH  19  34
ATOM     34  O   UNL     1       1.725  10.254  25.297  0.00  0.00    +0.000 OA
ATOM     35  H   UNL     1       2.466  10.611  25.828  0.00  0.00    +0.000 HD
ENDBRANCH  19  34
BRANCH  21  36
ATOM     36  O   UNL     1       1.002  10.209  22.757  0.00  0.00    +0.000 OA
ATOM     37  C   UNL     1       0.682  10.360  21.397  0.00  0.00    +0.000 C 
ENDBRANCH  21  36
BRANCH  20  38
ATOM     38  O   UNL     1      -2.669  15.858  20.630  0.00  0.00    +0.000 OA
BRANCH  38  40
ATOM     39  O   UNL     1      -4.839  15.020  20.777  0.00  0.00    +0.000 OA
ATOM     40  C   UNL     1      -4.024  15.921  20.690  0.00  0.00    +0.000 C 
ATOM     41  C   UNL     1      -4.597  17.283  20.560  0.00  0.00    +0.000 C 
ENDBRANCH  38  40
ENDBRANCH  20  38
BRANCH   6  42
ATOM     42  C   UNL     1       1.332  14.884  29.709  0.00  0.00    +0.000 C 
BRANCH  42  44
ATOM     43  O   UNL     1       3.538  16.107  29.529  0.00  0.00    +0.000 OA
ATOM     44  C   UNL     1       2.752  15.044  30.120  0.00  0.00    +0.000 C 
ATOM     45  C   UNL     1       3.014  16.321  30.774  0.00  0.00    +0.000 C 
ATOM     46  C   UNL     1       3.646  13.766  30.252  0.00  0.00    +0.000 C 
BRANCH  45  47
ATOM     47  C   UNL     1       3.941  16.506  31.850  0.00  0.00    +0.000 C 
ATOM     48  C   UNL     1       3.618  15.986  33.228  0.00  0.00    +0.000 C 
BRANCH  47  49
ATOM     49  C   UNL     1       5.311  16.751  31.580  0.00  0.00    +0.000 C 
ATOM     50  C   UNL     1       6.484  16.929  31.411  0.00  0.00    +0.000 C 
ATOM     51  C   UNL     1       8.000  17.123  31.313  0.00  0.00    +0.000 C 
ENDBRANCH  47  49
ENDBRANCH  45  47
ENDBRANCH  42  44
BRANCH  42  52
ATOM     52  O   UNL     1       0.282  14.924  30.617  0.00  0.00    +0.000 OA
ATOM     53  H   UNL     1      -0.583  15.041  30.175  0.00  0.00    +0.000 HD
ENDBRANCH  42  52
ENDBRANCH   6  42
TORSDOF 12
ENDMDL
MODEL 4
REMARK VINA RESULT:      -6.2     20.493     24.374
REMARK  Name = 101808842_CandidaspongiolideB.pdbqt.pdb
REMARK  12 active torsions:
REMARK  status: ('A' for Active; 'I' for Inactive)
REMARK    1  A    between atoms: C_6  and  C_42
REMARK    2  A    between atoms: C_7  and  O_28
REMARK    3  A    between atoms: C_10  and  O_30
REMARK    4  A    between atoms: C_13  and  O_32
REMARK    5  A    between atoms: C_19  and  O_34
REMARK    6  A    between atoms: C_20  and  O_38
REMARK    7  A    between atoms: C_21  and  O_36
REMARK    8  A    between atoms: O_38  and  C_40
REMARK    9  A    between atoms: C_42  and  C_44
REMARK   10  A    between atoms: C_42  and  O_52
REMARK   11  A    between atoms: C_45  and  C_47
REMARK   12  A    between atoms: C_47  and  C_49
REMARK                            x       y       z     vdW  Elec       q    Type
REMARK                         _______ _______ _______ _____ _____    ______ ____
ROOT
ATOM      1  O   UNL     1      23.762  18.195  25.089  0.00  0.00    +0.000 OA
ATOM      2  O   UNL     1      22.051  16.496  31.523  0.00  0.00    +0.000 OA
ATOM      3  O   UNL     1      25.000  17.285  28.574  0.00  0.00    +0.000 OA
ATOM      4  O   UNL     1      22.483  18.639  30.785  0.00  0.00    +0.000 OA
ATOM      5  O   UNL     1      20.300  19.925  29.253  0.00  0.00    +0.000 OA
ATOM      6  C   UNL     1      23.704  15.579  29.517  0.00  0.00    +0.000 C 
ATOM      7  C   UNL     1      23.104  16.538  27.191  0.00  0.00    +0.000 C 
ATOM      8  C   UNL     1      24.024  16.547  28.431  0.00  0.00    +0.000 C 
ATOM      9  C   UNL     1      22.877  16.018  30.589  0.00  0.00    +0.000 C 
ATOM     10  C   UNL     1      21.902  17.481  27.400  0.00  0.00    +0.000 C 
ATOM     11  C   UNL     1      21.771  18.524  26.434  0.00  0.00    +0.000 C 
ATOM     12  C   UNL     1      23.741  17.217  26.018  0.00  0.00    +0.000 C 
ATOM     13  C   UNL     1      22.538  19.022  25.250  0.00  0.00    +0.000 C 
ATOM     14  C   UNL     1      22.941  20.493  25.430  0.00  0.00    +0.000 C 
ATOM     15  C   UNL     1      22.844  21.134  26.701  0.00  0.00    +0.000 C 
ATOM     16  C   UNL     1      23.363  21.452  24.321  0.00  0.00    +0.000 C 
ATOM     17  C   UNL     1      21.854  17.842  31.465  0.00  0.00    +0.000 C 
ATOM     18  C   UNL     1      22.704  21.657  27.880  0.00  0.00    +0.000 C 
ATOM     19  C   UNL     1      20.684  18.230  32.289  0.00  0.00    +0.000 C 
ATOM     20  C   UNL     1      21.519  22.398  28.245  0.00  0.00    +0.000 C 
ATOM     21  C   UNL     1      20.010  19.498  32.091  0.00  0.00    +0.000 C 
ATOM     22  C   UNL     1      20.754  22.251  29.482  0.00  0.00    +0.000 C 
ATOM     23  C   UNL     1      20.575  20.705  31.506  0.00  0.00    +0.000 C 
ATOM     24  C   UNL     1      20.528  20.868  30.018  0.00  0.00    +0.000 C 
ATOM     25  C   UNL     1      23.738  21.289  28.905  0.00  0.00    +0.000 C 
ATOM     26  C   UNL     1      19.815  23.371  29.925  0.00  0.00    +0.000 C 
ATOM     27  C   UNL     1      21.407  21.626  32.392  0.00  0.00    +0.000 C 
ENDROOT
BRANCH   7  28
ATOM     28  O   UNL     1      22.626  15.273  26.781  0.00  0.00    +0.000 OA
ATOM     29  H   UNL     1      23.262  14.616  27.119  0.00  0.00    +0.000 HD
ENDBRANCH   7  28
BRANCH  10  30
ATOM     30  O   UNL     1      21.008  17.326  28.427  0.00  0.00    +0.000 OA
ATOM     31  H   UNL     1      20.226  17.906  28.308  0.00  0.00    +0.000 HD
ENDBRANCH  10  30
BRANCH  13  32
ATOM     32  O   UNL     1      21.719  18.851  24.097  0.00  0.00    +0.000 OA
ATOM     33  H   UNL     1      22.199  18.234  23.522  0.00  0.00    +0.000 HD
ENDBRANCH  13  32
BRANCH  19  34
ATOM     34  O   UNL     1      20.092  17.354  33.179  0.00  0.00    +0.000 OA
ATOM     35  H   UNL     1      20.497  16.462  33.170  0.00  0.00    +0.000 HD
ENDBRANCH  19  34
BRANCH  21  36
ATOM     36  O   UNL     1      18.863  19.667  32.848  0.00  0.00    +0.000 OA
ATOM     37  C   UNL     1      17.724  19.731  32.025  0.00  0.00    +0.000 C 
ENDBRANCH  21  36
BRANCH  20  38
ATOM     38  O   UNL     1      21.267  23.544  27.453  0.00  0.00    +0.000 OA
BRANCH  38  40
ATOM     39  O   UNL     1      22.647  25.020  28.613  0.00  0.00    +0.000 OA
ATOM     40  C   UNL     1      22.256  24.462  27.605  0.00  0.00    +0.000 C 
ATOM     41  C   UNL     1      22.910  24.896  26.346  0.00  0.00    +0.000 C 
ENDBRANCH  38  40
ENDBRANCH  20  38
BRANCH   6  42
ATOM     42  C   UNL     1      24.415  14.320  29.551  0.00  0.00    +0.000 C 
BRANCH  42  44
ATOM     43  O   UNL     1      22.723  12.882  28.343  0.00  0.00    +0.000 OA
ATOM     44  C   UNL     1      23.720  13.017  29.384  0.00  0.00    +0.000 C 
ATOM     45  C   UNL     1      23.977  12.398  28.088  0.00  0.00    +0.000 C 
ATOM     46  C   UNL     1      23.227  12.257  30.660  0.00  0.00    +0.000 C 
BRANCH  45  47
ATOM     47  C   UNL     1      24.102  10.988  27.873  0.00  0.00    +0.000 C 
ATOM     48  C   UNL     1      23.349  10.321  26.750  0.00  0.00    +0.000 C 
BRANCH  47  49
ATOM     49  C   UNL     1      25.226  10.284  28.375  0.00  0.00    +0.000 C 
ATOM     50  C   UNL     1      26.135   9.660  28.844  0.00  0.00    +0.000 C 
ATOM     51  C   UNL     1      27.220   8.829  29.535  0.00  0.00    +0.000 C 
ENDBRANCH  47  49
ENDBRANCH  45  47
ENDBRANCH  42  44
BRANCH  42  52
ATOM     52  O   UNL     1      25.790  14.419  29.719  0.00  0.00    +0.000 OA
ATOM     53  H   UNL     1      26.281  13.879  29.066  0.00  0.00    +0.000 HD
ENDBRANCH  42  52
ENDBRANCH   6  42
TORSDOF 12
ENDMDL
MODEL 5
REMARK VINA RESULT:      -6.1     12.439     16.411
REMARK  Name = 101808842_CandidaspongiolideB.pdbqt.pdb
REMARK  12 active torsions:
REMARK  status: ('A' for Active; 'I' for Inactive)
REMARK    1  A    between atoms: C_6  and  C_42
REMARK    2  A    between atoms: C_7  and  O_28
REMARK    3  A    between atoms: C_10  and  O_30
REMARK    4  A    between atoms: C_13  and  O_32
REMARK    5  A    between atoms: C_19  and  O_34
REMARK    6  A    between atoms: C_20  and  O_38
REMARK    7  A    between atoms: C_21  and  O_36
REMARK    8  A    between atoms: O_38  and  C_40
REMARK    9  A    between atoms: C_42  and  C_44
REMARK   10  A    between atoms: C_42  and  O_52
REMARK   11  A    between atoms: C_45  and  C_47
REMARK   12  A    between atoms: C_47  and  C_49
REMARK                            x       y       z     vdW  Elec       q    Type
REMARK                         _______ _______ _______ _____ _____    ______ ____
ROOT
ATOM      1  O   UNL     1      -3.270  29.325  18.145  0.00  0.00    +0.000 OA
ATOM      2  O   UNL     1      -0.603  26.932  12.282  0.00  0.00    +0.000 OA
ATOM      3  O   UNL     1      -0.215  27.859  16.406  0.00  0.00    +0.000 OA
ATOM      4  O   UNL     1      -1.600  25.640  13.913  0.00  0.00    +0.000 OA
ATOM      5  O   UNL     1      -4.560  25.702  13.958  0.00  0.00    +0.000 OA
ATOM      6  C   UNL     1       0.044  28.746  14.255  0.00  0.00    +0.000 C 
ATOM      7  C   UNL     1      -1.983  29.426  15.710  0.00  0.00    +0.000 C 
ATOM      8  C   UNL     1      -0.686  28.605  15.546  0.00  0.00    +0.000 C 
ATOM      9  C   UNL     1      -0.238  27.813  13.216  0.00  0.00    +0.000 C 
ATOM     10  C   UNL     1      -3.196  28.640  15.173  0.00  0.00    +0.000 C 
ATOM     11  C   UNL     1      -4.235  28.402  16.121  0.00  0.00    +0.000 C 
ATOM     12  C   UNL     1      -2.391  29.545  17.146  0.00  0.00    +0.000 C 
ATOM     13  C   UNL     1      -4.471  28.661  17.575  0.00  0.00    +0.000 C 
ATOM     14  C   UNL     1      -4.736  27.353  18.335  0.00  0.00    +0.000 C 
ATOM     15  C   UNL     1      -4.463  26.086  17.738  0.00  0.00    +0.000 C 
ATOM     16  C   UNL     1      -5.397  27.225  19.704  0.00  0.00    +0.000 C 
ATOM     17  C   UNL     1      -1.378  25.912  12.742  0.00  0.00    +0.000 C 
ATOM     18  C   UNL     1      -4.216  24.971  17.123  0.00  0.00    +0.000 C 
ATOM     19  C   UNL     1      -2.015  25.195  11.612  0.00  0.00    +0.000 C 
ATOM     20  C   UNL     1      -5.249  24.251  16.415  0.00  0.00    +0.000 C 
ATOM     21  C   UNL     1      -3.180  24.356  11.812  0.00  0.00    +0.000 C 
ATOM     22  C   UNL     1      -5.142  23.680  15.073  0.00  0.00    +0.000 C 
ATOM     23  C   UNL     1      -3.585  23.706  13.050  0.00  0.00    +0.000 C 
ATOM     24  C   UNL     1      -4.430  24.474  14.018  0.00  0.00    +0.000 C 
ATOM     25  C   UNL     1      -2.773  24.569  17.012  0.00  0.00    +0.000 C 
ATOM     26  C   UNL     1      -6.122  22.593  14.635  0.00  0.00    +0.000 C 
ATOM     27  C   UNL     1      -2.935  22.378  13.424  0.00  0.00    +0.000 C 
ENDROOT
BRANCH   7  28
ATOM     28  O   UNL     1      -1.980  30.715  15.130  0.00  0.00    +0.000 OA
ATOM     29  H   UNL     1      -1.087  30.850  14.763  0.00  0.00    +0.000 HD
ENDBRANCH   7  28
BRANCH  10  30
ATOM     30  O   UNL     1      -3.285  28.213  13.874  0.00  0.00    +0.000 OA
ATOM     31  H   UNL     1      -2.833  28.833  13.263  0.00  0.00    +0.000 HD
ENDBRANCH  10  30
BRANCH  13  32
ATOM     32  O   UNL     1      -5.578  29.552  17.686  0.00  0.00    +0.000 OA
ATOM     33  H   UNL     1      -6.371  28.997  17.611  0.00  0.00    +0.000 HD
ENDBRANCH  13  32
BRANCH  19  34
ATOM     34  O   UNL     1      -1.626  25.400  10.301  0.00  0.00    +0.000 OA
ATOM     35  H   UNL     1      -1.219  26.279  10.153  0.00  0.00    +0.000 HD
ENDBRANCH  19  34
BRANCH  21  36
ATOM     36  O   UNL     1      -3.736  23.852  10.649  0.00  0.00    +0.000 OA
ATOM     37  C   UNL     1      -5.010  24.403  10.421  0.00  0.00    +0.000 C 
ENDBRANCH  21  36
BRANCH  20  38
ATOM     38  O   UNL     1      -6.339  23.834  17.216  0.00  0.00    +0.000 OA
BRANCH  38  40
ATOM     39  O   UNL     1      -5.420  21.832  17.974  0.00  0.00    +0.000 OA
ATOM     40  C   UNL     1      -5.939  22.921  18.138  0.00  0.00    +0.000 C 
ATOM     41  C   UNL     1      -6.242  23.274  19.546  0.00  0.00    +0.000 C 
ENDBRANCH  38  40
ENDBRANCH  20  38
BRANCH   6  42
ATOM     42  C   UNL     1       1.151  29.673  14.185  0.00  0.00    +0.000 C 
BRANCH  42  44
ATOM     43  O   UNL     1       0.115  31.857  13.445  0.00  0.00    +0.000 OA
ATOM     44  C   UNL     1       1.140  30.848  13.275  0.00  0.00    +0.000 C 
ATOM     45  C   UNL     1       1.350  32.112  13.976  0.00  0.00    +0.000 C 
ATOM     46  C   UNL     1       1.377  30.619  11.746  0.00  0.00    +0.000 C 
BRANCH  45  47
ATOM     47  C   UNL     1       2.075  33.224  13.440  0.00  0.00    +0.000 C 
ATOM     48  C   UNL     1       1.434  34.587  13.376  0.00  0.00    +0.000 C 
BRANCH  47  49
ATOM     49  C   UNL     1       3.491  33.197  13.388  0.00  0.00    +0.000 C 
ATOM     50  C   UNL     1       4.688  33.132  13.396  0.00  0.00    +0.000 C 
ATOM     51  C   UNL     1       6.208  32.987  13.514  0.00  0.00    +0.000 C 
ENDBRANCH  47  49
ENDBRANCH  45  47
ENDBRANCH  42  44
BRANCH  42  52
ATOM     52  O   UNL     1       2.206  29.405  15.048  0.00  0.00    +0.000 OA
ATOM     53  H   UNL     1       1.948  29.503  15.987  0.00  0.00    +0.000 HD
ENDBRANCH  42  52
ENDBRANCH   6  42
TORSDOF 12
ENDMDL
MODEL 6
REMARK VINA RESULT:      -6.1     22.776     27.415
REMARK  Name = 101808842_CandidaspongiolideB.pdbqt.pdb
REMARK  12 active torsions:
REMARK  status: ('A' for Active; 'I' for Inactive)
REMARK    1  A    between atoms: C_6  and  C_42
REMARK    2  A    between atoms: C_7  and  O_28
REMARK    3  A    between atoms: C_10  and  O_30
REMARK    4  A    between atoms: C_13  and  O_32
REMARK    5  A    between atoms: C_19  and  O_34
REMARK    6  A    between atoms: C_20  and  O_38
REMARK    7  A    between atoms: C_21  and  O_36
REMARK    8  A    between atoms: O_38  and  C_40
REMARK    9  A    between atoms: C_42  and  C_44
REMARK   10  A    between atoms: C_42  and  O_52
REMARK   11  A    between atoms: C_45  and  C_47
REMARK   12  A    between atoms: C_47  and  C_49
REMARK                            x       y       z     vdW  Elec       q    Type
REMARK                         _______ _______ _______ _____ _____    ______ ____
ROOT
ATOM      1  O   UNL     1      24.556  29.055  27.870  0.00  0.00    +0.000 OA
ATOM      2  O   UNL     1      24.876  23.759  23.504  0.00  0.00    +0.000 OA
ATOM      3  O   UNL     1      26.792  26.586  26.025  0.00  0.00    +0.000 OA
ATOM      4  O   UNL     1      24.795  23.583  25.803  0.00  0.00    +0.000 OA
ATOM      5  O   UNL     1      22.127  23.986  27.021  0.00  0.00    +0.000 OA
ATOM      6  C   UNL     1      26.043  26.234  23.835  0.00  0.00    +0.000 C 
ATOM      7  C   UNL     1      24.718  27.774  25.435  0.00  0.00    +0.000 C 
ATOM      8  C   UNL     1      25.925  26.844  25.189  0.00  0.00    +0.000 C 
ATOM      9  C   UNL     1      25.480  24.943  23.626  0.00  0.00    +0.000 C 
ATOM     10  C   UNL     1      23.497  26.965  25.916  0.00  0.00    +0.000 C 
ATOM     11  C   UNL     1      22.971  27.353  27.184  0.00  0.00    +0.000 C 
ATOM     12  C   UNL     1      24.919  28.645  26.637  0.00  0.00    +0.000 C 
ATOM     13  C   UNL     1      23.318  28.333  28.261  0.00  0.00    +0.000 C 
ATOM     14  C   UNL     1      23.547  27.623  29.603  0.00  0.00    +0.000 C 
ATOM     15  C   UNL     1      23.706  26.207  29.671  0.00  0.00    +0.000 C 
ATOM     16  C   UNL     1      23.522  28.276  30.981  0.00  0.00    +0.000 C 
ATOM     17  C   UNL     1      24.486  23.202  24.683  0.00  0.00    +0.000 C 
ATOM     18  C   UNL     1      23.815  24.914  29.658  0.00  0.00    +0.000 C 
ATOM     19  C   UNL     1      23.538  22.089  24.442  0.00  0.00    +0.000 C 
ATOM     20  C   UNL     1      22.679  24.055  29.903  0.00  0.00    +0.000 C 
ATOM     21  C   UNL     1      22.667  21.600  25.493  0.00  0.00    +0.000 C 
ATOM     22  C   UNL     1      22.300  22.879  29.122  0.00  0.00    +0.000 C 
ATOM     23  C   UNL     1      22.883  21.711  26.928  0.00  0.00    +0.000 C 
ATOM     24  C   UNL     1      22.419  22.950  27.628  0.00  0.00    +0.000 C 
ATOM     25  C   UNL     1      25.125  24.355  29.183  0.00  0.00    +0.000 C 
ATOM     26  C   UNL     1      21.368  21.836  29.734  0.00  0.00    +0.000 C 
ATOM     27  C   UNL     1      23.786  20.689  27.611  0.00  0.00    +0.000 C 
ENDROOT
BRANCH   7  28
ATOM     28  O   UNL     1      24.327  28.587  24.346  0.00  0.00    +0.000 OA
ATOM     29  H   UNL     1      24.377  28.025  23.551  0.00  0.00    +0.000 HD
ENDBRANCH   7  28
BRANCH  10  30
ATOM     30  O   UNL     1      22.940  25.954  25.177  0.00  0.00    +0.000 OA
ATOM     31  H   UNL     1      23.618  25.303  24.897  0.00  0.00    +0.000 HD
ENDBRANCH  10  30
BRANCH  13  32
ATOM     32  O   UNL     1      22.252  29.274  28.353  0.00  0.00    +0.000 OA
ATOM     33  H   UNL     1      22.323  29.665  29.239  0.00  0.00    +0.000 HD
ENDBRANCH  13  32
BRANCH  19  34
ATOM     34  O   UNL     1      23.331  21.562  23.181  0.00  0.00    +0.000 OA
ATOM     35  H   UNL     1      24.040  20.948  22.899  0.00  0.00    +0.000 HD
ENDBRANCH  19  34
BRANCH  21  36
ATOM     36  O   UNL     1      21.751  20.644  25.087  0.00  0.00    +0.000 OA
ATOM     37  C   UNL     1      22.298  19.352  25.185  0.00  0.00    +0.000 C 
ENDBRANCH  21  36
BRANCH  20  38
ATOM     38  O   UNL     1      22.070  24.222  31.169  0.00  0.00    +0.000 OA
BRANCH  38  40
ATOM     39  O   UNL     1      20.195  25.186  30.175  0.00  0.00    +0.000 OA
ATOM     40  C   UNL     1      20.995  25.049  31.082  0.00  0.00    +0.000 C 
ATOM     41  C   UNL     1      20.813  25.967  32.233  0.00  0.00    +0.000 C 
ENDBRANCH  38  40
ENDBRANCH  20  38
BRANCH   6  42
ATOM     42  C   UNL     1      26.905  26.871  22.863  0.00  0.00    +0.000 C 
BRANCH  42  44
ATOM     43  O   UNL     1      28.620  25.043  22.535  0.00  0.00    +0.000 OA
ATOM     44  C   UNL     1      28.318  26.454  22.667  0.00  0.00    +0.000 C 
ATOM     45  C   UNL     1      28.541  25.786  21.389  0.00  0.00    +0.000 C 
ATOM     46  C   UNL     1      29.430  27.132  23.534  0.00  0.00    +0.000 C 
BRANCH  45  47
ATOM     47  C   UNL     1      29.734  25.910  20.607  0.00  0.00    +0.000 C 
ATOM     48  C   UNL     1      30.720  24.772  20.541  0.00  0.00    +0.000 C 
BRANCH  47  49
ATOM     49  C   UNL     1      29.806  26.861  19.557  0.00  0.00    +0.000 C 
ATOM     50  C   UNL     1      29.798  27.666  18.670  0.00  0.00    +0.000 C 
ATOM     51  C   UNL     1      29.667  28.678  17.528  0.00  0.00    +0.000 C 
ENDBRANCH  47  49
ENDBRANCH  45  47
ENDBRANCH  42  44
BRANCH  42  52
ATOM     52  O   UNL     1      26.310  27.875  22.109  0.00  0.00    +0.000 OA
ATOM     53  H   UNL     1      26.969  28.492  21.732  0.00  0.00    +0.000 HD
ENDBRANCH  42  52
ENDBRANCH   6  42
TORSDOF 12
ENDMDL
MODEL 7
REMARK VINA RESULT:      -5.8      3.070      7.370
REMARK  Name = 101808842_CandidaspongiolideB.pdbqt.pdb
REMARK  12 active torsions:
REMARK  status: ('A' for Active; 'I' for Inactive)
REMARK    1  A    between atoms: C_6  and  C_42
REMARK    2  A    between atoms: C_7  and  O_28
REMARK    3  A    between atoms: C_10  and  O_30
REMARK    4  A    between atoms: C_13  and  O_32
REMARK    5  A    between atoms: C_19  and  O_34
REMARK    6  A    between atoms: C_20  and  O_38
REMARK    7  A    between atoms: C_21  and  O_36
REMARK    8  A    between atoms: O_38  and  C_40
REMARK    9  A    between atoms: C_42  and  C_44
REMARK   10  A    between atoms: C_42  and  O_52
REMARK   11  A    between atoms: C_45  and  C_47
REMARK   12  A    between atoms: C_47  and  C_49
REMARK                            x       y       z     vdW  Elec       q    Type
REMARK                         _______ _______ _______ _____ _____    ______ ____
ROOT
ATOM      1  O   UNL     1       1.176  15.138  28.216  0.00  0.00    +0.000 OA
ATOM      2  O   UNL     1      -1.402  14.732  21.860  0.00  0.00    +0.000 OA
ATOM      3  O   UNL     1       1.590  16.084  24.550  0.00  0.00    +0.000 OA
ATOM      4  O   UNL     1       0.164  13.292  22.753  0.00  0.00    +0.000 OA
ATOM      5  O   UNL     1      -0.895  11.253  24.619  0.00  0.00    +0.000 OA
ATOM      6  C   UNL     1      -0.463  16.665  23.586  0.00  0.00    +0.000 C 
ATOM      7  C   UNL     1      -0.356  15.864  26.043  0.00  0.00    +0.000 C 
ATOM      8  C   UNL     1       0.374  16.186  24.721  0.00  0.00    +0.000 C 
ATOM      9  C   UNL     1      -0.946  15.704  22.653  0.00  0.00    +0.000 C 
ATOM     10  C   UNL     1      -0.845  14.402  26.052  0.00  0.00    +0.000 C 
ATOM     11  C   UNL     1      -0.347  13.600  27.122  0.00  0.00    +0.000 C 
ATOM     12  C   UNL     1       0.588  15.810  27.204  0.00  0.00    +0.000 C 
ATOM     13  C   UNL     1       0.607  13.766  28.263  0.00  0.00    +0.000 C 
ATOM     14  C   UNL     1       1.748  12.741  28.185  0.00  0.00    +0.000 C 
ATOM     15  C   UNL     1       1.978  11.983  26.998  0.00  0.00    +0.000 C 
ATOM     16  C   UNL     1       2.666  12.328  29.331  0.00  0.00    +0.000 C 
ATOM     17  C   UNL     1      -0.823  13.518  22.068  0.00  0.00    +0.000 C 
ATOM     18  C   UNL     1       2.110  11.311  25.897  0.00  0.00    +0.000 C 
ATOM     19  C   UNL     1      -1.611  12.449  21.411  0.00  0.00    +0.000 C 
ATOM     20  C   UNL     1       1.518  10.004  25.730  0.00  0.00    +0.000 C 
ATOM     21  C   UNL     1      -1.467  11.059  21.799  0.00  0.00    +0.000 C 
ATOM     22  C   UNL     1       0.758   9.540  24.571  0.00  0.00    +0.000 C 
ATOM     23  C   UNL     1      -0.311  10.446  22.436  0.00  0.00    +0.000 C 
ATOM     24  C   UNL     1      -0.210  10.490  23.929  0.00  0.00    +0.000 C 
ATOM     25  C   UNL     1       2.735  12.036  24.739  0.00  0.00    +0.000 C 
ATOM     26  C   UNL     1       0.578   8.041  24.337  0.00  0.00    +0.000 C 
ATOM     27  C   UNL     1       0.860  10.012  21.562  0.00  0.00    +0.000 C 
ENDROOT
BRANCH   7  28
ATOM     28  O   UNL     1      -1.438  16.710  26.377  0.00  0.00    +0.000 OA
ATOM     29  H   UNL     1      -2.201  16.400  25.855  0.00  0.00    +0.000 HD
ENDBRANCH   7  28
BRANCH  10  30
ATOM     30  O   UNL     1      -1.710  13.904  25.113  0.00  0.00    +0.000 OA
ATOM     31  H   UNL     1      -1.713  12.924  25.118  0.00  0.00    +0.000 HD
ENDBRANCH  10  30
BRANCH  13  32
ATOM     32  O   UNL     1      -0.131  13.622  29.473  0.00  0.00    +0.000 OA
ATOM     33  H   UNL     1      -1.066  13.599  29.210  0.00  0.00    +0.000 HD
ENDBRANCH  13  32
BRANCH  19  34
ATOM     34  O   UNL     1      -2.618  12.730  20.506  0.00  0.00    +0.000 OA
ATOM     35  H   UNL     1      -3.246  11.989  20.386  0.00  0.00    +0.000 HD
ENDBRANCH  19  34
BRANCH  21  36
ATOM     36  O   UNL     1      -2.356  10.192  21.185  0.00  0.00    +0.000 OA
ATOM     37  C   UNL     1      -3.254   9.648  22.121  0.00  0.00    +0.000 C 
ENDBRANCH  21  36
BRANCH  20  38
ATOM     38  O   UNL     1       1.967   9.027  26.650  0.00  0.00    +0.000 OA
BRANCH  38  40
ATOM     39  O   UNL     1       3.860   8.332  25.483  0.00  0.00    +0.000 OA
ATOM     40  C   UNL     1       3.286   8.761  26.467  0.00  0.00    +0.000 C 
ATOM     41  C   UNL     1       4.140   8.958  27.664  0.00  0.00    +0.000 C 
ENDBRANCH  38  40
ENDBRANCH  20  38
BRANCH   6  42
ATOM     42  C   UNL     1      -0.565  18.089  23.357  0.00  0.00    +0.000 C 
BRANCH  42  44
ATOM     43  O   UNL     1      -1.765  19.936  22.114  0.00  0.00    +0.000 OA
ATOM     44  C   UNL     1      -1.831  18.727  22.909  0.00  0.00    +0.000 C 
ATOM     45  C   UNL     1      -1.972  18.754  21.457  0.00  0.00    +0.000 C 
ATOM     46  C   UNL     1      -3.011  18.856  23.929  0.00  0.00    +0.000 C 
BRANCH  45  47
ATOM     47  C   UNL     1      -3.214  18.603  20.760  0.00  0.00    +0.000 C 
ATOM     48  C   UNL     1      -3.798  17.230  20.539  0.00  0.00    +0.000 C 
BRANCH  47  49
ATOM     49  C   UNL     1      -4.120  19.689  20.669  0.00  0.00    +0.000 C 
ATOM     50  C   UNL     1      -4.883  20.614  20.659  0.00  0.00    +0.000 C 
ATOM     51  C   UNL     1      -5.861  21.787  20.770  0.00  0.00    +0.000 C 
ENDBRANCH  47  49
ENDBRANCH  45  47
ENDBRANCH  42  44
BRANCH  42  52
ATOM     52  O   UNL     1       0.589  18.817  23.614  0.00  0.00    +0.000 OA
ATOM     53  H   UNL     1       1.216  18.326  24.182  0.00  0.00    +0.000 HD
ENDBRANCH  42  52
ENDBRANCH   6  42
TORSDOF 12
ENDMDL
MODEL 8
REMARK VINA RESULT:      -5.8     10.031     15.445
REMARK  Name = 101808842_CandidaspongiolideB.pdbqt.pdb
REMARK  12 active torsions:
REMARK  status: ('A' for Active; 'I' for Inactive)
REMARK    1  A    between atoms: C_6  and  C_42
REMARK    2  A    between atoms: C_7  and  O_28
REMARK    3  A    between atoms: C_10  and  O_30
REMARK    4  A    between atoms: C_13  and  O_32
REMARK    5  A    between atoms: C_19  and  O_34
REMARK    6  A    between atoms: C_20  and  O_38
REMARK    7  A    between atoms: C_21  and  O_36
REMARK    8  A    between atoms: O_38  and  C_40
REMARK    9  A    between atoms: C_42  and  C_44
REMARK   10  A    between atoms: C_42  and  O_52
REMARK   11  A    between atoms: C_45  and  C_47
REMARK   12  A    between atoms: C_47  and  C_49
REMARK                            x       y       z     vdW  Elec       q    Type
REMARK                         _______ _______ _______ _____ _____    ______ ____
ROOT
ATOM      1  O   UNL     1      13.175  24.887  31.123  0.00  0.00    +0.000 OA
ATOM      2  O   UNL     1       8.279  20.078  31.463  0.00  0.00    +0.000 OA
ATOM      3  O   UNL     1      11.736  21.944  33.067  0.00  0.00    +0.000 OA
ATOM      4  O   UNL     1       8.178  22.149  32.473  0.00  0.00    +0.000 OA
ATOM      5  O   UNL     1       7.527  24.414  30.679  0.00  0.00    +0.000 OA
ATOM      6  C   UNL     1      11.025  20.241  31.627  0.00  0.00    +0.000 C 
ATOM      7  C   UNL     1      11.968  22.450  30.669  0.00  0.00    +0.000 C 
ATOM      8  C   UNL     1      11.591  21.593  31.896  0.00  0.00    +0.000 C 
ATOM      9  C   UNL     1       9.609  20.104  31.562  0.00  0.00    +0.000 C 
ATOM     10  C   UNL     1      10.758  23.276  30.190  0.00  0.00    +0.000 C 
ATOM     11  C   UNL     1      10.953  24.689  30.171  0.00  0.00    +0.000 C 
ATOM     12  C   UNL     1      12.894  23.570  31.033  0.00  0.00    +0.000 C 
ATOM     13  C   UNL     1      12.033  25.650  30.557  0.00  0.00    +0.000 C 
ATOM     14  C   UNL     1      11.530  26.658  31.601  0.00  0.00    +0.000 C 
ATOM     15  C   UNL     1      10.300  26.450  32.294  0.00  0.00    +0.000 C 
ATOM     16  C   UNL     1      12.173  27.999  31.940  0.00  0.00    +0.000 C 
ATOM     17  C   UNL     1       7.660  21.219  31.873  0.00  0.00    +0.000 C 
ATOM     18  C   UNL     1       9.160  26.209  32.864  0.00  0.00    +0.000 C 
ATOM     19  C   UNL     1       6.252  21.239  31.412  0.00  0.00    +0.000 C 
ATOM     20  C   UNL     1       7.929  26.780  32.369  0.00  0.00    +0.000 C 
ATOM     21  C   UNL     1       5.498  22.476  31.347  0.00  0.00    +0.000 C 
ATOM     22  C   UNL     1       6.669  26.069  32.160  0.00  0.00    +0.000 C 
ATOM     23  C   UNL     1       5.744  23.689  32.112  0.00  0.00    +0.000 C 
ATOM     24  C   UNL     1       6.720  24.688  31.574  0.00  0.00    +0.000 C 
ATOM     25  C   UNL     1       9.154  25.156  33.935  0.00  0.00    +0.000 C 
ATOM     26  C   UNL     1       5.365  26.858  32.062  0.00  0.00    +0.000 C 
ATOM     27  C   UNL     1       5.198  23.780  33.533  0.00  0.00    +0.000 C 
ENDROOT
BRANCH   7  28
ATOM     28  O   UNL     1      12.511  21.753  29.566  0.00  0.00    +0.000 OA
ATOM     29  H   UNL     1      13.208  21.172  29.923  0.00  0.00    +0.000 HD
ENDBRANCH   7  28
BRANCH  10  30
ATOM     30  O   UNL     1       9.579  22.700  29.791  0.00  0.00    +0.000 OA
ATOM     31  H   UNL     1       9.446  22.797  28.825  0.00  0.00    +0.000 HD
ENDBRANCH  10  30
BRANCH  13  32
ATOM     32  O   UNL     1      12.471  26.312  29.374  0.00  0.00    +0.000 OA
ATOM     33  H   UNL     1      12.732  27.205  29.653  0.00  0.00    +0.000 HD
ENDBRANCH  13  32
BRANCH  19  34
ATOM     34  O   UNL     1       5.636  20.118  30.888  0.00  0.00    +0.000 OA
ATOM     35  H   UNL     1       5.941  19.283  31.299  0.00  0.00    +0.000 HD
ENDBRANCH  19  34
BRANCH  21  36
ATOM     36  O   UNL     1       4.239  22.357  30.782  0.00  0.00    +0.000 OA
ATOM     37  C   UNL     1       4.047  23.320  29.776  0.00  0.00    +0.000 C 
ENDBRANCH  21  36
BRANCH  20  38
ATOM     38  O   UNL     1       7.889  28.194  32.365  0.00  0.00    +0.000 OA
BRANCH  38  40
ATOM     39  O   UNL     1       8.273  28.188  30.067  0.00  0.00    +0.000 OA
ATOM     40  C   UNL     1       8.324  28.686  31.176  0.00  0.00    +0.000 C 
ATOM     41  C   UNL     1       9.027  29.990  31.254  0.00  0.00    +0.000 C 
ENDBRANCH  38  40
ENDBRANCH  20  38
BRANCH   6  42
ATOM     42  C   UNL     1      11.914  19.101  31.663  0.00  0.00    +0.000 C 
BRANCH  42  44
ATOM     43  O   UNL     1      12.346  16.654  31.196  0.00  0.00    +0.000 OA
ATOM     44  C   UNL     1      11.673  17.886  30.841  0.00  0.00    +0.000 C 
ATOM     45  C   UNL     1      11.046  16.805  31.594  0.00  0.00    +0.000 C 
ATOM     46  C   UNL     1      11.655  18.024  29.282  0.00  0.00    +0.000 C 
BRANCH  45  47
ATOM     47  C   UNL     1      10.086  15.891  31.053  0.00  0.00    +0.000 C 
ATOM     48  C   UNL     1      10.502  14.495  30.666  0.00  0.00    +0.000 C 
BRANCH  47  49
ATOM     49  C   UNL     1       8.701  16.089  31.282  0.00  0.00    +0.000 C 
ATOM     50  C   UNL     1       7.529  16.298  31.422  0.00  0.00    +0.000 C 
ATOM     51  C   UNL     1       6.042  16.652  31.514  0.00  0.00    +0.000 C 
ENDBRANCH  47  49
ENDBRANCH  45  47
ENDBRANCH  42  44
BRANCH  42  52
ATOM     52  O   UNL     1      13.020  19.235  32.492  0.00  0.00    +0.000 OA
ATOM     53  H   UNL     1      13.655  19.900  32.156  0.00  0.00    +0.000 HD
ENDBRANCH  42  52
ENDBRANCH   6  42
TORSDOF 12
ENDMDL
MODEL 9
REMARK VINA RESULT:      -5.7     12.353     16.577
REMARK  Name = 101808842_CandidaspongiolideB.pdbqt.pdb
REMARK  12 active torsions:
REMARK  status: ('A' for Active; 'I' for Inactive)
REMARK    1  A    between atoms: C_6  and  C_42
REMARK    2  A    between atoms: C_7  and  O_28
REMARK    3  A    between atoms: C_10  and  O_30
REMARK    4  A    between atoms: C_13  and  O_32
REMARK    5  A    between atoms: C_19  and  O_34
REMARK    6  A    between atoms: C_20  and  O_38
REMARK    7  A    between atoms: C_21  and  O_36
REMARK    8  A    between atoms: O_38  and  C_40
REMARK    9  A    between atoms: C_42  and  C_44
REMARK   10  A    between atoms: C_42  and  O_52
REMARK   11  A    between atoms: C_45  and  C_47
REMARK   12  A    between atoms: C_47  and  C_49
REMARK                            x       y       z     vdW  Elec       q    Type
REMARK                         _______ _______ _______ _____ _____    ______ ____
ROOT
ATOM      1  O   UNL     1      -4.438  32.096  17.136  0.00  0.00    +0.000 OA
ATOM      2  O   UNL     1      -3.069  25.368  16.851  0.00  0.00    +0.000 OA
ATOM      3  O   UNL     1      -1.961  29.317  17.943  0.00  0.00    +0.000 OA
ATOM      4  O   UNL     1      -4.048  26.450  18.638  0.00  0.00    +0.000 OA
ATOM      5  O   UNL     1      -6.914  27.115  18.313  0.00  0.00    +0.000 OA
ATOM      6  C   UNL     1      -1.844  27.752  16.206  0.00  0.00    +0.000 C 
ATOM      7  C   UNL     1      -3.498  29.735  16.066  0.00  0.00    +0.000 C 
ATOM      8  C   UNL     1      -2.404  28.976  16.846  0.00  0.00    +0.000 C 
ATOM      9  C   UNL     1      -2.428  26.495  16.533  0.00  0.00    +0.000 C 
ATOM     10  C   UNL     1      -4.894  29.170  16.398  0.00  0.00    +0.000 C 
ATOM     11  C   UNL     1      -5.820  30.113  16.937  0.00  0.00    +0.000 C 
ATOM     12  C   UNL     1      -3.678  31.133  16.573  0.00  0.00    +0.000 C 
ATOM     13  C   UNL     1      -5.804  31.552  17.346  0.00  0.00    +0.000 C 
ATOM     14  C   UNL     1      -6.192  31.712  18.824  0.00  0.00    +0.000 C 
ATOM     15  C   UNL     1      -6.234  30.588  19.701  0.00  0.00    +0.000 C 
ATOM     16  C   UNL     1      -6.671  32.996  19.493  0.00  0.00    +0.000 C 
ATOM     17  C   UNL     1      -3.943  25.491  17.888  0.00  0.00    +0.000 C 
ATOM     18  C   UNL     1      -6.277  29.518  20.432  0.00  0.00    +0.000 C 
ATOM     19  C   UNL     1      -4.846  24.318  17.946  0.00  0.00    +0.000 C 
ATOM     20  C   UNL     1      -7.509  28.794  20.646  0.00  0.00    +0.000 C 
ATOM     21  C   UNL     1      -6.104  24.370  18.665  0.00  0.00    +0.000 C 
ATOM     22  C   UNL     1      -7.690  27.347  20.552  0.00  0.00    +0.000 C 
ATOM     23  C   UNL     1      -6.446  25.262  19.763  0.00  0.00    +0.000 C 
ATOM     24  C   UNL     1      -6.999  26.615  19.440  0.00  0.00    +0.000 C 
ATOM     25  C   UNL     1      -4.958  28.956  20.880  0.00  0.00    +0.000 C 
ATOM     26  C   UNL     1      -8.899  26.693  21.219  0.00  0.00    +0.000 C 
ATOM     27  C   UNL     1      -5.998  24.890  21.173  0.00  0.00    +0.000 C 
ENDROOT
BRANCH   7  28
ATOM     28  O   UNL     1      -3.345  29.778  14.661  0.00  0.00    +0.000 OA
ATOM     29  H   UNL     1      -4.096  30.296  14.318  0.00  0.00    +0.000 HD
ENDBRANCH   7  28
BRANCH  10  30
ATOM     30  O   UNL     1      -5.235  27.861  16.177  0.00  0.00    +0.000 OA
ATOM     31  H   UNL     1      -4.467  27.343  15.858  0.00  0.00    +0.000 HD
ENDBRANCH  10  30
BRANCH  13  32
ATOM     32  O   UNL     1      -6.708  32.256  16.499  0.00  0.00    +0.000 OA
ATOM     33  H   UNL     1      -7.576  32.194  16.931  0.00  0.00    +0.000 HD
ENDBRANCH  13  32
BRANCH  19  34
ATOM     34  O   UNL     1      -4.610  23.174  17.207  0.00  0.00    +0.000 OA
ATOM     35  H   UNL     1      -4.696  22.351  17.732  0.00  0.00    +0.000 HD
ENDBRANCH  19  34
BRANCH  21  36
ATOM     36  O   UNL     1      -6.896  23.242  18.528  0.00  0.00    +0.000 OA
ATOM     37  C   UNL     1      -8.068  23.536  17.810  0.00  0.00    +0.000 C 
ENDBRANCH  21  36
BRANCH  20  38
ATOM     38  O   UNL     1      -8.536  29.541  21.272  0.00  0.00    +0.000 OA
BRANCH  38  40
ATOM     39  O   UNL     1      -7.828  29.232  23.470  0.00  0.00    +0.000 OA
ATOM     40  C   UNL     1      -8.165  29.918  22.523  0.00  0.00    +0.000 C 
ATOM     41  C   UNL     1      -8.248  31.374  22.792  0.00  0.00    +0.000 C 
ENDBRANCH  38  40
ENDBRANCH  20  38
BRANCH   6  42
ATOM     42  C   UNL     1      -0.609  27.865  15.463  0.00  0.00    +0.000 C 
BRANCH  42  44
ATOM     43  O   UNL     1      -1.646  28.004  13.161  0.00  0.00    +0.000 OA
ATOM     44  C   UNL     1      -0.540  27.597  14.003  0.00  0.00    +0.000 C 
ATOM     45  C   UNL     1      -0.545  28.815  13.199  0.00  0.00    +0.000 C 
ATOM     46  C   UNL     1      -0.021  26.202  13.517  0.00  0.00    +0.000 C 
BRANCH  45  47
ATOM     47  C   UNL     1       0.184  28.985  11.979  0.00  0.00    +0.000 C 
ATOM     48  C   UNL     1      -0.442  28.603  10.662  0.00  0.00    +0.000 C 
BRANCH  47  49
ATOM     49  C   UNL     1       1.269  29.895  11.915  0.00  0.00    +0.000 C 
ATOM     50  C   UNL     1       2.145  30.712  11.885  0.00  0.00    +0.000 C 
ATOM     51  C   UNL     1       3.179  31.842  11.871  0.00  0.00    +0.000 C 
ENDBRANCH  47  49
ENDBRANCH  45  47
ENDBRANCH  42  44
BRANCH  42  52
ATOM     52  O   UNL     1       0.495  28.271  16.202  0.00  0.00    +0.000 OA
ATOM     53  H   UNL     1       0.744  29.198  16.013  0.00  0.00    +0.000 HD
ENDBRANCH  42  52
ENDBRANCH   6  42
TORSDOF 12
ENDMDL
