MODEL 1
REMARK VINA RESULT:      -4.9      0.000      0.000
REMARK  Name = 102471178_CandidaspongiolideCore.pdbqt.pdb
REMARK  13 active torsions:
REMARK  status: ('A' for Active; 'I' for Inactive)
REMARK    1  A    between atoms: C_6  and  C_39
REMARK    2  A    between atoms: C_8  and  O_27
REMARK    3  A    between atoms: C_8  and  C_51
REMARK    4  A    between atoms: C_10  and  O_29
REMARK    5  A    between atoms: C_15  and  O_31
REMARK    6  A    between atoms: C_16  and  O_33
REMARK    7  A    between atoms: C_21  and  O_35
REMARK    8  A    between atoms: O_35  and  C_37
REMARK    9  A    between atoms: C_39  and  C_41
REMARK   10  A    between atoms: C_39  and  O_49
REMARK   11  A    between atoms: C_42  and  C_44
REMARK   12  A    between atoms: C_44  and  C_46
REMARK   13  A    between atoms: C_51  and  O_52
REMARK                            x       y       z     vdW  Elec       q    Type
REMARK                         _______ _______ _______ _____ _____    ______ ____
ROOT
ATOM      1  O   UNL     1       0.433  14.738  23.074  0.00  0.00    +0.000 OA
ATOM      2  O   UNL     1      -1.715  15.189  23.749  0.00  0.00    +0.000 OA
ATOM      3  O   UNL     1      -6.651  15.168  23.471  0.00  0.00    +0.000 OA
ATOM      4  O   UNL     1       1.332  13.941  24.986  0.00  0.00    +0.000 OA
ATOM      5  O   UNL     1      -0.907  15.728  27.030  0.00  0.00    +0.000 OA
ATOM      6  C   UNL     1      -1.252  14.499  21.500  0.00  0.00    +0.000 C 
ATOM      7  C   UNL     1      -2.374  15.081  20.848  0.00  0.00    +0.000 C 
ATOM      8  C   UNL     1      -3.434  15.692  20.042  0.00  0.00    +0.000 C 
ATOM      9  C   UNL     1      -0.901  14.843  22.903  0.00  0.00    +0.000 C 
ATOM     10  C   UNL     1      -4.799  15.124  20.366  0.00  0.00    +0.000 C 
ATOM     11  C   UNL     1      -5.260  14.840  21.679  0.00  0.00    +0.000 C 
ATOM     12  C   UNL     1      -5.653  14.592  23.050  0.00  0.00    +0.000 C 
ATOM     13  C   UNL     1       0.868  14.874  24.340  0.00  0.00    +0.000 C 
ATOM     14  C   UNL     1      -4.834  13.699  23.924  0.00  0.00    +0.000 C 
ATOM     15  C   UNL     1       1.056  16.267  24.817  0.00  0.00    +0.000 C 
ATOM     16  C   UNL     1       0.081  17.327  24.663  0.00  0.00    +0.000 C 
ATOM     17  C   UNL     1      -0.994  17.633  25.597  0.00  0.00    +0.000 C 
ATOM     18  C   UNL     1      -4.769  13.951  25.316  0.00  0.00    +0.000 C 
ATOM     19  C   UNL     1      -3.088  16.343  26.322  0.00  0.00    +0.000 C 
ATOM     20  C   UNL     1      -3.830  12.704  23.359  0.00  0.00    +0.000 C 
ATOM     21  C   UNL     1      -3.669  15.217  27.046  0.00  0.00    +0.000 C 
ATOM     22  C   UNL     1      -1.601  16.521  26.390  0.00  0.00    +0.000 C 
ATOM     23  C   UNL     1      -4.683  14.289  26.567  0.00  0.00    +0.000 C 
ATOM     24  C   UNL     1      -1.300  19.070  26.011  0.00  0.00    +0.000 C 
ATOM     25  C   UNL     1      -3.944  17.094  25.312  0.00  0.00    +0.000 C 
ATOM     26  C   UNL     1      -5.662  13.623  27.499  0.00  0.00    +0.000 C 
ENDROOT
BRANCH   8  27
ATOM     27  O   UNL     1      -3.119  15.375  18.684  0.00  0.00    +0.000 OA
ATOM     28  H   UNL     1      -3.266  16.212  18.200  0.00  0.00    +0.000 HD
ENDBRANCH   8  27
BRANCH  10  29
ATOM     29  O   UNL     1      -5.663  14.921  19.302  0.00  0.00    +0.000 OA
ATOM     30  H   UNL     1      -6.437  15.514  19.336  0.00  0.00    +0.000 HD
ENDBRANCH  10  29
BRANCH  15  31
ATOM     31  O   UNL     1       1.946  16.476  25.859  0.00  0.00    +0.000 OA
ATOM     32  H   UNL     1       1.641  16.015  26.669  0.00  0.00    +0.000 HD
ENDBRANCH  15  31
BRANCH  16  33
ATOM     33  O   UNL     1       0.486  18.388  23.873  0.00  0.00    +0.000 OA
ATOM     34  C   UNL     1      -0.264  18.393  22.683  0.00  0.00    +0.000 C 
ENDBRANCH  16  33
BRANCH  21  35
ATOM     35  O   UNL     1      -3.308  15.154  28.416  0.00  0.00    +0.000 OA
BRANCH  35  37
ATOM     36  O   UNL     1      -4.934  16.608  29.261  0.00  0.00    +0.000 OA
ATOM     37  C   UNL     1      -3.793  16.199  29.142  0.00  0.00    +0.000 C 
ATOM     38  C   UNL     1      -2.770  16.924  29.939  0.00  0.00    +0.000 C 
ENDBRANCH  35  37
ENDBRANCH  21  35
BRANCH   6  39
ATOM     39  C   UNL     1      -0.512  13.490  20.777  0.00  0.00    +0.000 C 
BRANCH  39  41
ATOM     40  O   UNL     1       0.361  11.099  20.934  0.00  0.00    +0.000 OA
ATOM     41  C   UNL     1      -0.722  12.046  21.078  0.00  0.00    +0.000 C 
ATOM     42  C   UNL     1       0.110  11.586  22.186  0.00  0.00    +0.000 C 
ATOM     43  C   UNL     1      -2.071  11.366  20.649  0.00  0.00    +0.000 C 
BRANCH  42  44
ATOM     44  C   UNL     1      -0.313  10.651  23.184  0.00  0.00    +0.000 C 
ATOM     45  C   UNL     1       0.134   9.209  23.112  0.00  0.00    +0.000 C 
BRANCH  44  46
ATOM     46  C   UNL     1      -0.742  11.102  24.457  0.00  0.00    +0.000 C 
ATOM     47  C   UNL     1      -1.151  11.486  25.517  0.00  0.00    +0.000 C 
ATOM     48  C   UNL     1      -1.741  11.969  26.849  0.00  0.00    +0.000 C 
ENDBRANCH  44  46
ENDBRANCH  42  44
ENDBRANCH  39  41
BRANCH  39  49
ATOM     49  O   UNL     1       0.430  13.936  19.864  0.00  0.00    +0.000 OA
ATOM     50  H   UNL     1       1.272  14.229  20.262  0.00  0.00    +0.000 HD
ENDBRANCH  39  49
ENDBRANCH   6  39
BRANCH   8  51
ATOM     51  C   UNL     1      -3.447  17.159  20.167  0.00  0.00    +0.000 C 
BRANCH  51  52
ATOM     52  O   UNL     1      -3.444  18.490  20.239  0.00  0.00    +0.000 OA
ATOM     53  H   UNL     1      -3.871  18.884  19.452  0.00  0.00    +0.000 HD
ENDBRANCH  51  52
ENDBRANCH   8  51
TORSDOF 13
ENDMDL
MODEL 2
REMARK VINA RESULT:      -4.9     14.888     19.244
REMARK  Name = 102471178_CandidaspongiolideCore.pdbqt.pdb
REMARK  13 active torsions:
REMARK  status: ('A' for Active; 'I' for Inactive)
REMARK    1  A    between atoms: C_6  and  C_39
REMARK    2  A    between atoms: C_8  and  O_27
REMARK    3  A    between atoms: C_8  and  C_51
REMARK    4  A    between atoms: C_10  and  O_29
REMARK    5  A    between atoms: C_15  and  O_31
REMARK    6  A    between atoms: C_16  and  O_33
REMARK    7  A    between atoms: C_21  and  O_35
REMARK    8  A    between atoms: O_35  and  C_37
REMARK    9  A    between atoms: C_39  and  C_41
REMARK   10  A    between atoms: C_39  and  O_49
REMARK   11  A    between atoms: C_42  and  C_44
REMARK   12  A    between atoms: C_44  and  C_46
REMARK   13  A    between atoms: C_51  and  O_52
REMARK                            x       y       z     vdW  Elec       q    Type
REMARK                         _______ _______ _______ _____ _____    ______ ____
ROOT
ATOM      1  O   UNL     1       8.033  26.630  29.331  0.00  0.00    +0.000 OA
ATOM      2  O   UNL     1       9.328  27.086  31.172  0.00  0.00    +0.000 OA
ATOM      3  O   UNL     1      10.534  27.123  35.966  0.00  0.00    +0.000 OA
ATOM      4  O   UNL     1       9.573  25.776  27.917  0.00  0.00    +0.000 OA
ATOM      5  O   UNL     1      12.230  27.534  29.414  0.00  0.00    +0.000 OA
ATOM      6  C   UNL     1       7.029  26.448  31.412  0.00  0.00    +0.000 C 
ATOM      7  C   UNL     1       6.754  27.058  32.668  0.00  0.00    +0.000 C 
ATOM      8  C   UNL     1       6.313  27.700  33.909  0.00  0.00    +0.000 C 
ATOM      9  C   UNL     1       8.270  26.753  30.653  0.00  0.00    +0.000 C 
ATOM     10  C   UNL     1       7.018  27.138  35.124  0.00  0.00    +0.000 C 
ATOM     11  C   UNL     1       8.403  26.826  35.178  0.00  0.00    +0.000 C 
ATOM     12  C   UNL     1       9.823  26.548  35.150  0.00  0.00    +0.000 C 
ATOM     13  C   UNL     1       9.116  26.729  28.536  0.00  0.00    +0.000 C 
ATOM     14  C   UNL     1      10.394  25.625  34.123  0.00  0.00    +0.000 C 
ATOM     15  C   UNL     1       9.544  28.108  28.191  0.00  0.00    +0.000 C 
ATOM     16  C   UNL     1       9.710  29.182  29.148  0.00  0.00    +0.000 C 
ATOM     17  C   UNL     1      10.928  29.475  29.891  0.00  0.00    +0.000 C 
ATOM     18  C   UNL     1      11.709  25.841  33.642  0.00  0.00    +0.000 C 
ATOM     19  C   UNL     1      12.217  28.188  31.696  0.00  0.00    +0.000 C 
ATOM     20  C   UNL     1       9.535  24.633  33.351  0.00  0.00    +0.000 C 
ATOM     21  C   UNL     1      13.058  27.051  32.054  0.00  0.00    +0.000 C 
ATOM     22  C   UNL     1      11.842  28.349  30.254  0.00  0.00    +0.000 C 
ATOM     23  C   UNL     1      12.883  26.146  33.181  0.00  0.00    +0.000 C 
ATOM     24  C   UNL     1      11.444  30.904  30.035  0.00  0.00    +0.000 C 
ATOM     25  C   UNL     1      11.524  28.974  32.801  0.00  0.00    +0.000 C 
ATOM     26  C   UNL     1      14.050  25.467  33.850  0.00  0.00    +0.000 C 
ENDROOT
BRANCH   8  27
ATOM     27  O   UNL     1       4.917  27.414  34.018  0.00  0.00    +0.000 OA
ATOM     28  H   UNL     1       4.621  27.296  33.093  0.00  0.00    +0.000 HD
ENDBRANCH   8  27
BRANCH  10  29
ATOM     29  O   UNL     1       6.256  26.971  36.270  0.00  0.00    +0.000 OA
ATOM     30  H   UNL     1       5.889  27.814  36.596  0.00  0.00    +0.000 HD
ENDBRANCH  10  29
BRANCH  15  31
ATOM     31  O   UNL     1      10.277  28.282  27.027  0.00  0.00    +0.000 OA
ATOM     32  H   UNL     1       9.686  28.260  26.244  0.00  0.00    +0.000 HD
ENDBRANCH  15  31
BRANCH  16  33
ATOM     33  O   UNL     1       8.857  30.258  28.979  0.00  0.00    +0.000 OA
ATOM     34  C   UNL     1       8.006  30.356  30.095  0.00  0.00    +0.000 C 
ENDBRANCH  16  33
BRANCH  21  35
ATOM     35  O   UNL     1      14.256  26.949  31.303  0.00  0.00    +0.000 OA
BRANCH  35  37
ATOM     36  O   UNL     1      15.570  28.416  32.565  0.00  0.00    +0.000 OA
ATOM     37  C   UNL     1      15.110  27.987  31.523  0.00  0.00    +0.000 C 
ATOM     38  C   UNL     1      15.578  28.673  30.290  0.00  0.00    +0.000 C 
ENDBRANCH  35  37
ENDBRANCH  21  35
BRANCH   6  39
ATOM     39  C   UNL     1       6.098  25.450  30.938  0.00  0.00    +0.000 C 
BRANCH  39  41
ATOM     40  O   UNL     1       5.955  23.025  30.161  0.00  0.00    +0.000 OA
ATOM     41  C   UNL     1       6.384  24.002  31.138  0.00  0.00    +0.000 C 
ATOM     42  C   UNL     1       7.249  23.461  30.093  0.00  0.00    +0.000 C 
ATOM     43  C   UNL     1       6.258  23.390  32.579  0.00  0.00    +0.000 C 
BRANCH  42  44
ATOM     44  C   UNL     1       8.282  22.496  30.314  0.00  0.00    +0.000 C 
ATOM     45  C   UNL     1       7.997  21.023  30.130  0.00  0.00    +0.000 C 
BRANCH  44  46
ATOM     46  C   UNL     1       9.647  22.874  30.250  0.00  0.00    +0.000 C 
ATOM     47  C   UNL     1      10.796  23.217  30.238  0.00  0.00    +0.000 C 
ATOM     48  C   UNL     1      12.258  23.677  30.291  0.00  0.00    +0.000 C 
ENDBRANCH  44  46
ENDBRANCH  42  44
ENDBRANCH  39  41
BRANCH  39  49
ATOM     49  O   UNL     1       4.988  25.906  30.245  0.00  0.00    +0.000 OA
ATOM     50  H   UNL     1       4.471  25.205  29.805  0.00  0.00    +0.000 HD
ENDBRANCH  39  49
ENDBRANCH   6  39
BRANCH   8  51
ATOM     51  C   UNL     1       6.468  29.163  33.858  0.00  0.00    +0.000 C 
BRANCH  51  52
ATOM     52  O   UNL     1       6.614  30.489  33.855  0.00  0.00    +0.000 OA
ATOM     53  H   UNL     1       6.414  30.864  34.737  0.00  0.00    +0.000 HD
ENDBRANCH  51  52
ENDBRANCH   8  51
TORSDOF 13
ENDMDL
MODEL 3
REMARK VINA RESULT:      -4.7      2.230      6.290
REMARK  Name = 102471178_CandidaspongiolideCore.pdbqt.pdb
REMARK  13 active torsions:
REMARK  status: ('A' for Active; 'I' for Inactive)
REMARK    1  A    between atoms: C_6  and  C_39
REMARK    2  A    between atoms: C_8  and  O_27
REMARK    3  A    between atoms: C_8  and  C_51
REMARK    4  A    between atoms: C_10  and  O_29
REMARK    5  A    between atoms: C_15  and  O_31
REMARK    6  A    between atoms: C_16  and  O_33
REMARK    7  A    between atoms: C_21  and  O_35
REMARK    8  A    between atoms: O_35  and  C_37
REMARK    9  A    between atoms: C_39  and  C_41
REMARK   10  A    between atoms: C_39  and  O_49
REMARK   11  A    between atoms: C_42  and  C_44
REMARK   12  A    between atoms: C_44  and  C_46
REMARK   13  A    between atoms: C_51  and  O_52
REMARK                            x       y       z     vdW  Elec       q    Type
REMARK                         _______ _______ _______ _____ _____    ______ ____
ROOT
ATOM      1  O   UNL     1      -3.513  14.108  20.568  0.00  0.00    +0.000 OA
ATOM      2  O   UNL     1      -3.097  15.946  21.882  0.00  0.00    +0.000 OA
ATOM      3  O   UNL     1      -0.374  19.047  24.603  0.00  0.00    +0.000 OA
ATOM      4  O   UNL     1      -4.711  15.033  18.893  0.00  0.00    +0.000 OA
ATOM      5  O   UNL     1      -5.889  17.668  20.907  0.00  0.00    +0.000 OA
ATOM      6  C   UNL     1      -1.519  14.145  21.749  0.00  0.00    +0.000 C 
ATOM      7  C   UNL     1      -0.872  14.317  23.004  0.00  0.00    +0.000 C 
ATOM      8  C   UNL     1      -0.178  14.330  24.295  0.00  0.00    +0.000 C 
ATOM      9  C   UNL     1      -2.782  14.856  21.419  0.00  0.00    +0.000 C 
ATOM     10  C   UNL     1       0.651  15.582  24.485  0.00  0.00    +0.000 C 
ATOM     11  C   UNL     1       0.229  16.889  24.122  0.00  0.00    +0.000 C 
ATOM     12  C   UNL     1      -0.286  18.185  23.735  0.00  0.00    +0.000 C 
ATOM     13  C   UNL     1      -4.612  14.704  20.069  0.00  0.00    +0.000 C 
ATOM     14  C   UNL     1      -0.735  18.434  22.331  0.00  0.00    +0.000 C 
ATOM     15  C   UNL     1      -5.821  14.662  20.928  0.00  0.00    +0.000 C 
ATOM     16  C   UNL     1      -5.843  15.004  22.335  0.00  0.00    +0.000 C 
ATOM     17  C   UNL     1      -6.056  16.338  22.880  0.00  0.00    +0.000 C 
ATOM     18  C   UNL     1      -1.790  19.346  22.086  0.00  0.00    +0.000 C 
ATOM     19  C   UNL     1      -4.683  18.500  22.774  0.00  0.00    +0.000 C 
ATOM     20  C   UNL     1      -0.314  17.543  21.171  0.00  0.00    +0.000 C 
ATOM     21  C   UNL     1      -4.182  19.620  21.985  0.00  0.00    +0.000 C 
ATOM     22  C   UNL     1      -5.593  17.522  22.095  0.00  0.00    +0.000 C 
ATOM     23  C   UNL     1      -2.817  20.126  21.938  0.00  0.00    +0.000 C 
ATOM     24  C   UNL     1      -6.998  16.571  24.058  0.00  0.00    +0.000 C 
ATOM     25  C   UNL     1      -4.046  18.204  24.126  0.00  0.00    +0.000 C 
ATOM     26  C   UNL     1      -2.511  21.576  21.665  0.00  0.00    +0.000 C 
ENDROOT
BRANCH   8  27
ATOM     27  O   UNL     1       0.699  13.202  24.274  0.00  0.00    +0.000 OA
ATOM     28  H   UNL     1       0.985  13.135  23.341  0.00  0.00    +0.000 HD
ENDBRANCH   8  27
BRANCH  10  29
ATOM     29  O   UNL     1       1.883  15.431  25.103  0.00  0.00    +0.000 OA
ATOM     30  H   UNL     1       1.879  15.764  26.020  0.00  0.00    +0.000 HD
ENDBRANCH  10  29
BRANCH  15  31
ATOM     31  O   UNL     1      -7.056  14.777  20.308  0.00  0.00    +0.000 OA
ATOM     32  H   UNL     1      -7.539  15.560  20.649  0.00  0.00    +0.000 HD
ENDBRANCH  15  31
BRANCH  16  33
ATOM     33  O   UNL     1      -6.174  13.966  23.188  0.00  0.00    +0.000 OA
ATOM     34  C   UNL     1      -5.002  13.455  23.774  0.00  0.00    +0.000 C 
ENDBRANCH  16  33
BRANCH  21  35
ATOM     35  O   UNL     1      -5.191  20.377  21.338  0.00  0.00    +0.000 OA
BRANCH  35  37
ATOM     36  O   UNL     1      -5.731  21.797  23.116  0.00  0.00    +0.000 OA
ATOM     37  C   UNL     1      -6.006  21.031  22.210  0.00  0.00    +0.000 C 
ATOM     38  C   UNL     1      -7.458  20.797  21.993  0.00  0.00    +0.000 C 
ENDBRANCH  35  37
ENDBRANCH  21  35
BRANCH   6  39
ATOM     39  C   UNL     1      -0.856  13.319  20.766  0.00  0.00    +0.000 C 
BRANCH  39  41
ATOM     40  O   UNL     1      -0.607  11.042  19.645  0.00  0.00    +0.000 OA
ATOM     41  C   UNL     1      -1.079  11.846  20.751  0.00  0.00    +0.000 C 
ATOM     42  C   UNL     1       0.174  11.097  20.765  0.00  0.00    +0.000 C 
ATOM     43  C   UNL     1      -2.451  11.277  21.263  0.00  0.00    +0.000 C 
BRANCH  42  44
ATOM     44  C   UNL     1       0.381   9.877  21.485  0.00  0.00    +0.000 C 
ATOM     45  C   UNL     1       0.162   8.547  20.803  0.00  0.00    +0.000 C 
BRANCH  44  46
ATOM     46  C   UNL     1       1.207   9.852  22.637  0.00  0.00    +0.000 C 
ATOM     47  C   UNL     1       1.897   9.782  23.615  0.00  0.00    +0.000 C 
ATOM     48  C   UNL     1       2.779   9.621  24.860  0.00  0.00    +0.000 C 
ENDBRANCH  44  46
ENDBRANCH  42  44
ENDBRANCH  39  41
BRANCH  39  49
ATOM     49  O   UNL     1       0.030  13.952  19.909  0.00  0.00    +0.000 OA
ATOM     50  H   UNL     1      -0.132  14.908  19.796  0.00  0.00    +0.000 HD
ENDBRANCH  39  49
ENDBRANCH   6  39
BRANCH   8  51
ATOM     51  C   UNL     1      -1.107  14.155  25.423  0.00  0.00    +0.000 C 
BRANCH  51  52
ATOM     52  O   UNL     1      -1.920  14.017  26.471  0.00  0.00    +0.000 OA
ATOM     53  H   UNL     1      -1.963  13.083  26.760  0.00  0.00    +0.000 HD
ENDBRANCH  51  52
ENDBRANCH   8  51
TORSDOF 13
ENDMDL
MODEL 4
REMARK VINA RESULT:      -4.7     27.134     30.738
REMARK  Name = 102471178_CandidaspongiolideCore.pdbqt.pdb
REMARK  13 active torsions:
REMARK  status: ('A' for Active; 'I' for Inactive)
REMARK    1  A    between atoms: C_6  and  C_39
REMARK    2  A    between atoms: C_8  and  O_27
REMARK    3  A    between atoms: C_8  and  C_51
REMARK    4  A    between atoms: C_10  and  O_29
REMARK    5  A    between atoms: C_15  and  O_31
REMARK    6  A    between atoms: C_16  and  O_33
REMARK    7  A    between atoms: C_21  and  O_35
REMARK    8  A    between atoms: O_35  and  C_37
REMARK    9  A    between atoms: C_39  and  C_41
REMARK   10  A    between atoms: C_39  and  O_49
REMARK   11  A    between atoms: C_42  and  C_44
REMARK   12  A    between atoms: C_44  and  C_46
REMARK   13  A    between atoms: C_51  and  O_52
REMARK                            x       y       z     vdW  Elec       q    Type
REMARK                         _______ _______ _______ _____ _____    ______ ____
ROOT
ATOM      1  O   UNL     1      24.865   7.743  24.707  0.00  0.00    +0.000 OA
ATOM      2  O   UNL     1      27.064   8.402  24.756  0.00  0.00    +0.000 OA
ATOM      3  O   UNL     1      30.858  11.556  24.432  0.00  0.00    +0.000 OA
ATOM      4  O   UNL     1      24.732   6.527  26.605  0.00  0.00    +0.000 OA
ATOM      5  O   UNL     1      28.157   5.717  26.574  0.00  0.00    +0.000 OA
ATOM      6  C   UNL     1      25.381   9.804  23.780  0.00  0.00    +0.000 C 
ATOM      7  C   UNL     1      26.196  10.542  22.877  0.00  0.00    +0.000 C 
ATOM      8  C   UNL     1      26.900  11.315  21.851  0.00  0.00    +0.000 C 
ATOM      9  C   UNL     1      25.888   8.590  24.473  0.00  0.00    +0.000 C 
ATOM     10  C   UNL     1      27.919  12.262  22.447  0.00  0.00    +0.000 C 
ATOM     11  C   UNL     1      28.788  11.934  23.522  0.00  0.00    +0.000 C 
ATOM     12  C   UNL     1      29.645  11.512  24.610  0.00  0.00    +0.000 C 
ATOM     13  C   UNL     1      25.161   6.672  25.466  0.00  0.00    +0.000 C 
ATOM     14  C   UNL     1      29.055  10.999  25.883  0.00  0.00    +0.000 C 
ATOM     15  C   UNL     1      25.771   5.520  24.756  0.00  0.00    +0.000 C 
ATOM     16  C   UNL     1      26.884   5.618  23.834  0.00  0.00    +0.000 C 
ATOM     17  C   UNL     1      28.294   5.559  24.198  0.00  0.00    +0.000 C 
ATOM     18  C   UNL     1      29.749  10.015  26.629  0.00  0.00    +0.000 C 
ATOM     19  C   UNL     1      29.801   7.108  25.576  0.00  0.00    +0.000 C 
ATOM     20  C   UNL     1      27.609  11.265  26.276  0.00  0.00    +0.000 C 
ATOM     21  C   UNL     1      30.167   7.655  26.878  0.00  0.00    +0.000 C 
ATOM     22  C   UNL     1      28.717   6.074  25.536  0.00  0.00    +0.000 C 
ATOM     23  C   UNL     1      30.393   9.053  27.216  0.00  0.00    +0.000 C 
ATOM     24  C   UNL     1      29.284   4.718  23.397  0.00  0.00    +0.000 C 
ATOM     25  C   UNL     1      30.302   7.800  24.316  0.00  0.00    +0.000 C 
ATOM     26  C   UNL     1      31.351   9.468  28.303  0.00  0.00    +0.000 C 
ENDROOT
BRANCH   8  27
ATOM     27  O   UNL     1      25.895  12.086  21.188  0.00  0.00    +0.000 OA
ATOM     28  H   UNL     1      26.043  11.910  20.237  0.00  0.00    +0.000 HD
ENDBRANCH   8  27
BRANCH  10  29
ATOM     29  O   UNL     1      28.034  13.512  21.860  0.00  0.00    +0.000 OA
ATOM     30  H   UNL     1      27.182  13.987  21.833  0.00  0.00    +0.000 HD
ENDBRANCH  10  29
BRANCH  15  31
ATOM     31  O   UNL     1      25.628   4.264  25.324  0.00  0.00    +0.000 OA
ATOM     32  H   UNL     1      26.024   4.246  26.221  0.00  0.00    +0.000 HD
ENDBRANCH  15  31
BRANCH  16  33
ATOM     33  O   UNL     1      26.603   5.252  22.530  0.00  0.00    +0.000 OA
ATOM     34  C   UNL     1      26.365   6.407  21.764  0.00  0.00    +0.000 C 
ENDBRANCH  16  33
BRANCH  21  35
ATOM     35  O   UNL     1      30.493   6.677  27.853  0.00  0.00    +0.000 OA
BRANCH  35  37
ATOM     36  O   UNL     1      32.742   6.378  27.282  0.00  0.00    +0.000 OA
ATOM     37  C   UNL     1      31.622   5.980  27.548  0.00  0.00    +0.000 C 
ATOM     38  C   UNL     1      31.463   4.503  27.582  0.00  0.00    +0.000 C 
ENDBRANCH  35  37
ENDBRANCH  21  35
BRANCH   6  39
ATOM     39  C   UNL     1      24.066  10.328  24.070  0.00  0.00    +0.000 C 
BRANCH  39  41
ATOM     40  O   UNL     1      22.614  11.359  25.894  0.00  0.00    +0.000 OA
ATOM     41  C   UNL     1      23.873  11.294  25.187  0.00  0.00    +0.000 C 
ATOM     42  C   UNL     1      23.618  10.623  26.458  0.00  0.00    +0.000 C 
ATOM     43  C   UNL     1      24.475  12.739  25.059  0.00  0.00    +0.000 C 
BRANCH  42  44
ATOM     44  C   UNL     1      24.126  11.063  27.723  0.00  0.00    +0.000 C 
ATOM     45  C   UNL     1      23.385  12.117  28.514  0.00  0.00    +0.000 C 
BRANCH  44  46
ATOM     46  C   UNL     1      25.017  10.247  28.464  0.00  0.00    +0.000 C 
ATOM     47  C   UNL     1      25.803   9.560  29.054  0.00  0.00    +0.000 C 
ATOM     48  C   UNL     1      26.858   8.699  29.761  0.00  0.00    +0.000 C 
ENDBRANCH  44  46
ENDBRANCH  42  44
ENDBRANCH  39  41
BRANCH  39  49
ATOM     49  O   UNL     1      23.015   9.837  23.313  0.00  0.00    +0.000 OA
ATOM     50  H   UNL     1      23.014  10.133  22.382  0.00  0.00    +0.000 HD
ENDBRANCH  39  49
ENDBRANCH   6  39
BRANCH   8  51
ATOM     51  C   UNL     1      27.535  10.447  20.844  0.00  0.00    +0.000 C 
BRANCH  51  52
ATOM     52  O   UNL     1      28.086   9.628  19.949  0.00  0.00    +0.000 OA
ATOM     53  H   UNL     1      28.704   9.003  20.380  0.00  0.00    +0.000 HD
ENDBRANCH  51  52
ENDBRANCH   8  51
TORSDOF 13
ENDMDL
MODEL 5
REMARK VINA RESULT:      -4.7     12.294     16.780
REMARK  Name = 102471178_CandidaspongiolideCore.pdbqt.pdb
REMARK  13 active torsions:
REMARK  status: ('A' for Active; 'I' for Inactive)
REMARK    1  A    between atoms: C_6  and  C_39
REMARK    2  A    between atoms: C_8  and  O_27
REMARK    3  A    between atoms: C_8  and  C_51
REMARK    4  A    between atoms: C_10  and  O_29
REMARK    5  A    between atoms: C_15  and  O_31
REMARK    6  A    between atoms: C_16  and  O_33
REMARK    7  A    between atoms: C_21  and  O_35
REMARK    8  A    between atoms: O_35  and  C_37
REMARK    9  A    between atoms: C_39  and  C_41
REMARK   10  A    between atoms: C_39  and  O_49
REMARK   11  A    between atoms: C_42  and  C_44
REMARK   12  A    between atoms: C_44  and  C_46
REMARK   13  A    between atoms: C_51  and  O_52
REMARK                            x       y       z     vdW  Elec       q    Type
REMARK                         _______ _______ _______ _____ _____    ______ ____
ROOT
ATOM      1  O   UNL     1       6.603  25.547  29.325  0.00  0.00    +0.000 OA
ATOM      2  O   UNL     1       7.856  24.625  31.015  0.00  0.00    +0.000 OA
ATOM      3  O   UNL     1       8.681  22.513  35.408  0.00  0.00    +0.000 OA
ATOM      4  O   UNL     1       7.448  24.478  27.525  0.00  0.00    +0.000 OA
ATOM      5  O   UNL     1      10.571  23.929  29.052  0.00  0.00    +0.000 OA
ATOM      6  C   UNL     1       5.590  25.312  31.396  0.00  0.00    +0.000 C 
ATOM      7  C   UNL     1       5.657  25.549  32.798  0.00  0.00    +0.000 C 
ATOM      8  C   UNL     1       5.607  25.906  34.218  0.00  0.00    +0.000 C 
ATOM      9  C   UNL     1       6.816  25.105  30.581  0.00  0.00    +0.000 C 
ATOM     10  C   UNL     1       5.823  24.708  35.116  0.00  0.00    +0.000 C 
ATOM     11  C   UNL     1       6.786  23.691  34.882  0.00  0.00    +0.000 C 
ATOM     12  C   UNL     1       7.803  22.707  34.575  0.00  0.00    +0.000 C 
ATOM     13  C   UNL     1       7.583  25.278  28.442  0.00  0.00    +0.000 C 
ATOM     14  C   UNL     1       7.793  21.993  33.261  0.00  0.00    +0.000 C 
ATOM     15  C   UNL     1       8.728  26.223  28.434  0.00  0.00    +0.000 C 
ATOM     16  C   UNL     1       9.433  26.672  29.617  0.00  0.00    +0.000 C 
ATOM     17  C   UNL     1      10.574  26.004  30.229  0.00  0.00    +0.000 C 
ATOM     18  C   UNL     1       9.018  21.591  32.676  0.00  0.00    +0.000 C 
ATOM     19  C   UNL     1      10.839  23.741  31.403  0.00  0.00    +0.000 C 
ATOM     20  C   UNL     1       6.556  21.931  32.377  0.00  0.00    +0.000 C 
ATOM     21  C   UNL     1      10.877  22.285  31.308  0.00  0.00    +0.000 C 
ATOM     22  C   UNL     1      10.678  24.516  30.131  0.00  0.00    +0.000 C 
ATOM     23  C   UNL     1      10.177  21.328  32.154  0.00  0.00    +0.000 C 
ATOM     24  C   UNL     1      11.800  26.789  30.686  0.00  0.00    +0.000 C 
ATOM     25  C   UNL     1      10.667  24.389  32.770  0.00  0.00    +0.000 C 
ATOM     26  C   UNL     1      10.730  19.955  32.434  0.00  0.00    +0.000 C 
ENDROOT
BRANCH   8  27
ATOM     27  O   UNL     1       4.290  26.414  34.443  0.00  0.00    +0.000 OA
ATOM     28  H   UNL     1       4.425  27.181  35.035  0.00  0.00    +0.000 HD
ENDBRANCH   8  27
BRANCH  10  29
ATOM     29  O   UNL     1       5.055  24.641  36.268  0.00  0.00    +0.000 OA
ATOM     30  H   UNL     1       5.056  23.748  36.661  0.00  0.00    +0.000 HD
ENDBRANCH  10  29
BRANCH  15  31
ATOM     31  O   UNL     1       9.477  26.317  27.271  0.00  0.00    +0.000 OA
ATOM     32  H   UNL     1       9.927  27.188  27.223  0.00  0.00    +0.000 HD
ENDBRANCH  15  31
BRANCH  16  33
ATOM     33  O   UNL     1       9.344  28.028  29.876  0.00  0.00    +0.000 OA
ATOM     34  C   UNL     1       8.421  28.242  30.916  0.00  0.00    +0.000 C 
ENDBRANCH  16  33
BRANCH  21  35
ATOM     35  O   UNL     1      11.837  21.782  30.394  0.00  0.00    +0.000 OA
BRANCH  35  37
ATOM     36  O   UNL     1      13.716  23.110  30.818  0.00  0.00    +0.000 OA
ATOM     37  C   UNL     1      13.119  22.050  30.770  0.00  0.00    +0.000 C 
ATOM     38  C   UNL     1      13.889  20.864  31.224  0.00  0.00    +0.000 C 
ENDBRANCH  35  37
ENDBRANCH  21  35
BRANCH   6  39
ATOM     39  C   UNL     1       4.277  25.192  30.804  0.00  0.00    +0.000 C 
BRANCH  39  41
ATOM     40  O   UNL     1       3.294  23.247  32.129  0.00  0.00    +0.000 OA
ATOM     41  C   UNL     1       3.546  23.896  30.860  0.00  0.00    +0.000 C 
ATOM     42  C   UNL     1       2.289  24.003  31.595  0.00  0.00    +0.000 C 
ATOM     43  C   UNL     1       3.834  22.807  29.766  0.00  0.00    +0.000 C 
BRANCH  42  44
ATOM     44  C   UNL     1       1.079  23.329  31.234  0.00  0.00    +0.000 C 
ATOM     45  C   UNL     1       0.709  22.023  31.899  0.00  0.00    +0.000 C 
BRANCH  44  46
ATOM     46  C   UNL     1       0.009  24.041  30.635  0.00  0.00    +0.000 C 
ATOM     47  C   UNL     1      -0.918  24.646  30.172  0.00  0.00    +0.000 C 
ATOM     48  C   UNL     1      -2.125  25.433  29.647  0.00  0.00    +0.000 C 
ENDBRANCH  44  46
ENDBRANCH  42  44
ENDBRANCH  39  41
BRANCH  39  49
ATOM     49  O   UNL     1       3.785  26.303  30.139  0.00  0.00    +0.000 OA
ATOM     50  H   UNL     1       4.421  27.039  30.057  0.00  0.00    +0.000 HD
ENDBRANCH  39  49
ENDBRANCH   6  39
BRANCH   8  51
ATOM     51  C   UNL     1       6.562  26.976  34.552  0.00  0.00    +0.000 C 
BRANCH  51  52
ATOM     52  O   UNL     1       7.406  27.971  34.826  0.00  0.00    +0.000 OA
ATOM     53  H   UNL     1       7.475  28.117  35.791  0.00  0.00    +0.000 HD
ENDBRANCH  51  52
ENDBRANCH   8  51
TORSDOF 13
ENDMDL
MODEL 6
REMARK VINA RESULT:      -4.6     25.990     29.197
REMARK  Name = 102471178_CandidaspongiolideCore.pdbqt.pdb
REMARK  13 active torsions:
REMARK  status: ('A' for Active; 'I' for Inactive)
REMARK    1  A    between atoms: C_6  and  C_39
REMARK    2  A    between atoms: C_8  and  O_27
REMARK    3  A    between atoms: C_8  and  C_51
REMARK    4  A    between atoms: C_10  and  O_29
REMARK    5  A    between atoms: C_15  and  O_31
REMARK    6  A    between atoms: C_16  and  O_33
REMARK    7  A    between atoms: C_21  and  O_35
REMARK    8  A    between atoms: O_35  and  C_37
REMARK    9  A    between atoms: C_39  and  C_41
REMARK   10  A    between atoms: C_39  and  O_49
REMARK   11  A    between atoms: C_42  and  C_44
REMARK   12  A    between atoms: C_44  and  C_46
REMARK   13  A    between atoms: C_51  and  O_52
REMARK                            x       y       z     vdW  Elec       q    Type
REMARK                         _______ _______ _______ _____ _____    ______ ____
ROOT
ATOM      1  O   UNL     1      28.737  10.496  27.909  0.00  0.00    +0.000 OA
ATOM      2  O   UNL     1      27.004  11.201  26.577  0.00  0.00    +0.000 OA
ATOM      3  O   UNL     1      23.344  10.744  23.286  0.00  0.00    +0.000 OA
ATOM      4  O   UNL     1      28.203  11.476  29.872  0.00  0.00    +0.000 OA
ATOM      5  O   UNL     1      26.414  14.083  28.325  0.00  0.00    +0.000 OA
ATOM      6  C   UNL     1      28.037   9.066  26.225  0.00  0.00    +0.000 C 
ATOM      7  C   UNL     1      27.740   8.894  24.844  0.00  0.00    +0.000 C 
ATOM      8  C   UNL     1      27.573   8.628  23.413  0.00  0.00    +0.000 C 
ATOM      9  C   UNL     1      27.842  10.372  26.908  0.00  0.00    +0.000 C 
ATOM     10  C   UNL     1      26.120   8.442  23.032  0.00  0.00    +0.000 C 
ATOM     11  C   UNL     1      25.051   9.235  23.529  0.00  0.00    +0.000 C 
ATOM     12  C   UNL     1      24.025  10.098  24.074  0.00  0.00    +0.000 C 
ATOM     13  C   UNL     1      28.570  11.568  28.706  0.00  0.00    +0.000 C 
ATOM     14  C   UNL     1      23.847  10.222  25.553  0.00  0.00    +0.000 C 
ATOM     15  C   UNL     1      29.151  12.842  28.214  0.00  0.00    +0.000 C 
ATOM     16  C   UNL     1      28.969  13.366  26.876  0.00  0.00    +0.000 C 
ATOM     17  C   UNL     1      27.873  14.224  26.444  0.00  0.00    +0.000 C 
ATOM     18  C   UNL     1      23.394  11.447  26.102  0.00  0.00    +0.000 C 
ATOM     19  C   UNL     1      25.348  13.840  26.219  0.00  0.00    +0.000 C 
ATOM     20  C   UNL     1      24.401   9.195  26.529  0.00  0.00    +0.000 C 
ATOM     21  C   UNL     1      24.057  13.634  26.866  0.00  0.00    +0.000 C 
ATOM     22  C   UNL     1      26.538  14.077  27.099  0.00  0.00    +0.000 C 
ATOM     23  C   UNL     1      23.062  12.620  26.546  0.00  0.00    +0.000 C 
ATOM     24  C   UNL     1      28.125  15.455  25.578  0.00  0.00    +0.000 C 
ATOM     25  C   UNL     1      25.493  13.519  24.738  0.00  0.00    +0.000 C 
ATOM     26  C   UNL     1      21.588  12.851  26.759  0.00  0.00    +0.000 C 
ENDROOT
BRANCH   8  27
ATOM     27  O   UNL     1      28.270   7.405  23.163  0.00  0.00    +0.000 OA
ATOM     28  H   UNL     1      28.243   6.932  24.020  0.00  0.00    +0.000 HD
ENDBRANCH   8  27
BRANCH  10  29
ATOM     29  O   UNL     1      25.838   7.461  22.094  0.00  0.00    +0.000 OA
ATOM     30  H   UNL     1      26.548   7.367  21.433  0.00  0.00    +0.000 HD
ENDBRANCH  10  29
BRANCH  15  31
ATOM     31  O   UNL     1      29.466  13.811  29.153  0.00  0.00    +0.000 OA
ATOM     32  H   UNL     1      28.774  13.854  29.848  0.00  0.00    +0.000 HD
ENDBRANCH  15  31
BRANCH  16  33
ATOM     33  O   UNL     1      30.124  13.472  26.123  0.00  0.00    +0.000 OA
ATOM     34  C   UNL     1      30.176  12.411  25.201  0.00  0.00    +0.000 C 
ENDBRANCH  16  33
BRANCH  21  35
ATOM     35  O   UNL     1      23.694  14.651  27.785  0.00  0.00    +0.000 OA
BRANCH  35  37
ATOM     36  O   UNL     1      22.776  16.139  26.231  0.00  0.00    +0.000 OA
ATOM     37  C   UNL     1      23.475  15.854  27.187  0.00  0.00    +0.000 C 
ATOM     38  C   UNL     1      24.173  16.999  27.827  0.00  0.00    +0.000 C 
ENDBRANCH  35  37
ENDBRANCH  21  35
BRANCH   6  39
ATOM     39  C   UNL     1      28.454   7.897  26.966  0.00  0.00    +0.000 C 
BRANCH  39  41
ATOM     40  O   UNL     1      27.910   6.513  29.037  0.00  0.00    +0.000 OA
ATOM     41  C   UNL     1      27.479   7.163  27.819  0.00  0.00    +0.000 C 
ATOM     42  C   UNL     1      27.352   7.756  29.148  0.00  0.00    +0.000 C 
ATOM     43  C   UNL     1      26.363   6.297  27.133  0.00  0.00    +0.000 C 
BRANCH  42  44
ATOM     44  C   UNL     1      26.123   7.864  29.873  0.00  0.00    +0.000 C 
ATOM     45  C   UNL     1      25.771   6.841  30.928  0.00  0.00    +0.000 C 
BRANCH  44  46
ATOM     46  C   UNL     1      25.453   9.110  29.974  0.00  0.00    +0.000 C 
ATOM     47  C   UNL     1      24.892  10.169  30.010  0.00  0.00    +0.000 C 
ATOM     48  C   UNL     1      24.171  11.523  29.984  0.00  0.00    +0.000 C 
ENDBRANCH  44  46
ENDBRANCH  42  44
ENDBRANCH  39  41
BRANCH  39  49
ATOM     49  O   UNL     1      29.794   7.553  26.892  0.00  0.00    +0.000 OA
ATOM     50  H   UNL     1      30.410   8.300  27.015  0.00  0.00    +0.000 HD
ENDBRANCH  39  49
ENDBRANCH   6  39
BRANCH   8  51
ATOM     51  C   UNL     1      28.191   9.673  22.581  0.00  0.00    +0.000 C 
BRANCH  51  52
ATOM     52  O   UNL     1      28.780  10.590  21.812  0.00  0.00    +0.000 OA
ATOM     53  H   UNL     1      29.287  10.168  21.090  0.00  0.00    +0.000 HD
ENDBRANCH  51  52
ENDBRANCH   8  51
TORSDOF 13
ENDMDL
MODEL 7
REMARK VINA RESULT:      -4.6     25.098     29.079
REMARK  Name = 102471178_CandidaspongiolideCore.pdbqt.pdb
REMARK  13 active torsions:
REMARK  status: ('A' for Active; 'I' for Inactive)
REMARK    1  A    between atoms: C_6  and  C_39
REMARK    2  A    between atoms: C_8  and  O_27
REMARK    3  A    between atoms: C_8  and  C_51
REMARK    4  A    between atoms: C_10  and  O_29
REMARK    5  A    between atoms: C_15  and  O_31
REMARK    6  A    between atoms: C_16  and  O_33
REMARK    7  A    between atoms: C_21  and  O_35
REMARK    8  A    between atoms: O_35  and  C_37
REMARK    9  A    between atoms: C_39  and  C_41
REMARK   10  A    between atoms: C_39  and  O_49
REMARK   11  A    between atoms: C_42  and  C_44
REMARK   12  A    between atoms: C_44  and  C_46
REMARK   13  A    between atoms: C_51  and  O_52
REMARK                            x       y       z     vdW  Elec       q    Type
REMARK                         _______ _______ _______ _____ _____    ______ ____
ROOT
ATOM      1  O   UNL     1      24.307  13.217  24.703  0.00  0.00    +0.000 OA
ATOM      2  O   UNL     1      25.621  12.044  26.177  0.00  0.00    +0.000 OA
ATOM      3  O   UNL     1      27.570  10.871  30.567  0.00  0.00    +0.000 OA
ATOM      4  O   UNL     1      23.327  11.534  23.561  0.00  0.00    +0.000 OA
ATOM      5  O   UNL     1      25.977   9.298  24.167  0.00  0.00    +0.000 OA
ATOM      6  C   UNL     1      24.676  14.162  26.788  0.00  0.00    +0.000 C 
ATOM      7  C   UNL     1      25.621  14.557  27.775  0.00  0.00    +0.000 C 
ATOM      8  C   UNL     1      26.560  15.120  28.749  0.00  0.00    +0.000 C 
ATOM      9  C   UNL     1      24.929  13.010  25.882  0.00  0.00    +0.000 C 
ATOM     10  C   UNL     1      26.607  14.315  30.029  0.00  0.00    +0.000 C 
ATOM     11  C   UNL     1      26.608  12.895  30.086  0.00  0.00    +0.000 C 
ATOM     12  C   UNL     1      26.618  11.448  30.051  0.00  0.00    +0.000 C 
ATOM     13  C   UNL     1      24.329  12.179  23.847  0.00  0.00    +0.000 C 
ATOM     14  C   UNL     1      25.523  10.698  29.364  0.00  0.00    +0.000 C 
ATOM     15  C   UNL     1      25.554  12.045  23.019  0.00  0.00    +0.000 C 
ATOM     16  C   UNL     1      26.906  12.104  23.535  0.00  0.00    +0.000 C 
ATOM     17  C   UNL     1      27.671  10.972  24.042  0.00  0.00    +0.000 C 
ATOM     18  C   UNL     1      25.807   9.457  28.745  0.00  0.00    +0.000 C 
ATOM     19  C   UNL     1      27.374   9.445  26.080  0.00  0.00    +0.000 C 
ATOM     20  C   UNL     1      24.177  11.335  29.044  0.00  0.00    +0.000 C 
ATOM     21  C   UNL     1      26.620   8.388  26.745  0.00  0.00    +0.000 C 
ATOM     22  C   UNL     1      26.943   9.845  24.701  0.00  0.00    +0.000 C 
ATOM     23  C   UNL     1      26.152   8.371  28.123  0.00  0.00    +0.000 C 
ATOM     24  C   UNL     1      29.130  10.763  23.649  0.00  0.00    +0.000 C 
ATOM     25  C   UNL     1      28.347  10.286  26.896  0.00  0.00    +0.000 C 
ATOM     26  C   UNL     1      25.990   7.089  28.897  0.00  0.00    +0.000 C 
ENDROOT
BRANCH   8  27
ATOM     27  O   UNL     1      26.066  16.427  29.051  0.00  0.00    +0.000 OA
ATOM     28  H   UNL     1      25.646  16.329  29.929  0.00  0.00    +0.000 HD
ENDBRANCH   8  27
BRANCH  10  29
ATOM     29  O   UNL     1      26.709  15.025  31.215  0.00  0.00    +0.000 OA
ATOM     30  H   UNL     1      26.214  15.865  31.185  0.00  0.00    +0.000 HD
ENDBRANCH  10  29
BRANCH  15  31
ATOM     31  O   UNL     1      25.447  11.364  21.816  0.00  0.00    +0.000 OA
ATOM     32  H   UNL     1      25.449  11.995  21.065  0.00  0.00    +0.000 HD
ENDBRANCH  15  31
BRANCH  16  33
ATOM     33  O   UNL     1      27.668  13.161  23.070  0.00  0.00    +0.000 OA
ATOM     34  C   UNL     1      27.719  14.166  24.053  0.00  0.00    +0.000 C 
ENDBRANCH  16  33
BRANCH  21  35
ATOM     35  O   UNL     1      26.495   7.194  25.989  0.00  0.00    +0.000 OA
BRANCH  35  37
ATOM     36  O   UNL     1      28.524   6.201  26.599  0.00  0.00    +0.000 OA
ATOM     37  C   UNL     1      27.686   6.563  25.792  0.00  0.00    +0.000 C 
ATOM     38  C   UNL     1      27.984   6.236  24.374  0.00  0.00    +0.000 C 
ENDBRANCH  35  37
ENDBRANCH  21  35
BRANCH   6  39
ATOM     39  C   UNL     1      23.415  14.867  26.754  0.00  0.00    +0.000 C 
BRANCH  39  41
ATOM     40  O   UNL     1      24.520  17.151  26.505  0.00  0.00    +0.000 OA
ATOM     41  C   UNL     1      23.381  16.349  26.895  0.00  0.00    +0.000 C 
ATOM     42  C   UNL     1      23.496  17.029  25.608  0.00  0.00    +0.000 C 
ATOM     43  C   UNL     1      22.708  16.981  28.166  0.00  0.00    +0.000 C 
BRANCH  42  44
ATOM     44  C   UNL     1      22.785  18.219  25.253  0.00  0.00    +0.000 C 
ATOM     45  C   UNL     1      21.319  18.149  24.892  0.00  0.00    +0.000 C 
BRANCH  44  46
ATOM     46  C   UNL     1      23.260  19.491  25.663  0.00  0.00    +0.000 C 
ATOM     47  C   UNL     1      23.629  20.588  25.978  0.00  0.00    +0.000 C 
ATOM     48  C   UNL     1      24.045  22.017  26.347  0.00  0.00    +0.000 C 
ENDBRANCH  44  46
ENDBRANCH  42  44
ENDBRANCH  39  41
BRANCH  39  49
ATOM     49  O   UNL     1      22.268  14.096  26.656  0.00  0.00    +0.000 OA
ATOM     50  H   UNL     1      22.243  13.330  27.261  0.00  0.00    +0.000 HD
ENDBRANCH  39  49
ENDBRANCH   6  39
BRANCH   8  51
ATOM     51  C   UNL     1      27.913  15.271  28.188  0.00  0.00    +0.000 C 
BRANCH  51  52
ATOM     52  O   UNL     1      29.153  15.382  27.712  0.00  0.00    +0.000 OA
ATOM     53  H   UNL     1      29.804  15.014  28.343  0.00  0.00    +0.000 HD
ENDBRANCH  51  52
ENDBRANCH   8  51
TORSDOF 13
ENDMDL
MODEL 8
REMARK VINA RESULT:      -4.5     25.703     29.223
REMARK  Name = 102471178_CandidaspongiolideCore.pdbqt.pdb
REMARK  13 active torsions:
REMARK  status: ('A' for Active; 'I' for Inactive)
REMARK    1  A    between atoms: C_6  and  C_39
REMARK    2  A    between atoms: C_8  and  O_27
REMARK    3  A    between atoms: C_8  and  C_51
REMARK    4  A    between atoms: C_10  and  O_29
REMARK    5  A    between atoms: C_15  and  O_31
REMARK    6  A    between atoms: C_16  and  O_33
REMARK    7  A    between atoms: C_21  and  O_35
REMARK    8  A    between atoms: O_35  and  C_37
REMARK    9  A    between atoms: C_39  and  C_41
REMARK   10  A    between atoms: C_39  and  O_49
REMARK   11  A    between atoms: C_42  and  C_44
REMARK   12  A    between atoms: C_44  and  C_46
REMARK   13  A    between atoms: C_51  and  O_52
REMARK                            x       y       z     vdW  Elec       q    Type
REMARK                         _______ _______ _______ _____ _____    ______ ____
ROOT
ATOM      1  O   UNL     1      25.589  11.711  24.158  0.00  0.00    +0.000 OA
ATOM      2  O   UNL     1      25.887  13.332  25.757  0.00  0.00    +0.000 OA
ATOM      3  O   UNL     1      28.096  17.161  27.971  0.00  0.00    +0.000 OA
ATOM      4  O   UNL     1      23.391  11.951  23.700  0.00  0.00    +0.000 OA
ATOM      5  O   UNL     1      22.656  13.264  26.881  0.00  0.00    +0.000 OA
ATOM      6  C   UNL     1      27.657  12.755  24.245  0.00  0.00    +0.000 C 
ATOM      7  C   UNL     1      28.771  13.145  25.040  0.00  0.00    +0.000 C 
ATOM      8  C   UNL     1      30.003  13.427  25.780  0.00  0.00    +0.000 C 
ATOM      9  C   UNL     1      26.287  12.659  24.816  0.00  0.00    +0.000 C 
ATOM     10  C   UNL     1      30.176  14.904  26.059  0.00  0.00    +0.000 C 
ATOM     11  C   UNL     1      29.129  15.773  26.467  0.00  0.00    +0.000 C 
ATOM     12  C   UNL     1      28.007  16.583  26.893  0.00  0.00    +0.000 C 
ATOM     13  C   UNL     1      24.284  11.628  24.475  0.00  0.00    +0.000 C 
ATOM     14  C   UNL     1      26.771  16.665  26.056  0.00  0.00    +0.000 C 
ATOM     15  C   UNL     1      23.957  10.832  25.685  0.00  0.00    +0.000 C 
ATOM     16  C   UNL     1      24.623  10.971  26.964  0.00  0.00    +0.000 C 
ATOM     17  C   UNL     1      24.241  11.896  28.023  0.00  0.00    +0.000 C 
ATOM     18  C   UNL     1      25.514  16.842  26.683  0.00  0.00    +0.000 C 
ATOM     19  C   UNL     1      24.245  14.454  28.182  0.00  0.00    +0.000 C 
ATOM     20  C   UNL     1      26.757  16.277  24.584  0.00  0.00    +0.000 C 
ATOM     21  C   UNL     1      23.671  15.729  27.765  0.00  0.00    +0.000 C 
ATOM     22  C   UNL     1      23.616  13.202  27.651  0.00  0.00    +0.000 C 
ATOM     23  C   UNL     1      24.388  16.918  27.324  0.00  0.00    +0.000 C 
ATOM     24  C   UNL     1      24.174  11.448  29.480  0.00  0.00    +0.000 C 
ATOM     25  C   UNL     1      25.601  14.445  28.874  0.00  0.00    +0.000 C 
ATOM     26  C   UNL     1      23.843  18.306  27.539  0.00  0.00    +0.000 C 
ENDROOT
BRANCH   8  27
ATOM     27  O   UNL     1      31.071  12.996  24.932  0.00  0.00    +0.000 OA
ATOM     28  H   UNL     1      30.671  12.958  24.040  0.00  0.00    +0.000 HD
ENDBRANCH   8  27
BRANCH  10  29
ATOM     29  O   UNL     1      31.460  15.417  25.955  0.00  0.00    +0.000 OA
ATOM     30  H   UNL     1      31.664  15.718  25.050  0.00  0.00    +0.000 HD
ENDBRANCH  10  29
BRANCH  15  31
ATOM     31  O   UNL     1      22.685  10.289  25.775  0.00  0.00    +0.000 OA
ATOM     32  H   UNL     1      22.676   9.542  26.411  0.00  0.00    +0.000 HD
ENDBRANCH  15  31
BRANCH  16  33
ATOM     33  O   UNL     1      25.318   9.853  27.390  0.00  0.00    +0.000 OA
ATOM     34  C   UNL     1      26.695  10.060  27.190  0.00  0.00    +0.000 C 
ENDBRANCH  16  33
BRANCH  21  35
ATOM     35  O   UNL     1      22.274  15.843  27.986  0.00  0.00    +0.000 OA
BRANCH  35  37
ATOM     36  O   UNL     1      22.366  15.600  30.311  0.00  0.00    +0.000 OA
ATOM     37  C   UNL     1      21.963  16.114  29.283  0.00  0.00    +0.000 C 
ATOM     38  C   UNL     1      21.008  17.239  29.466  0.00  0.00    +0.000 C 
ENDBRANCH  35  37
ENDBRANCH  21  35
BRANCH   6  39
ATOM     39  C   UNL     1      27.888  12.541  22.835  0.00  0.00    +0.000 C 
BRANCH  39  41
ATOM     40  O   UNL     1      27.941   9.995  22.696  0.00  0.00    +0.000 OA
ATOM     41  C   UNL     1      28.521  11.278  22.362  0.00  0.00    +0.000 C 
ATOM     42  C   UNL     1      27.645  10.523  21.470  0.00  0.00    +0.000 C 
ATOM     43  C   UNL     1      30.087  11.160  22.366  0.00  0.00    +0.000 C 
BRANCH  42  44
ATOM     44  C   UNL     1      28.091   9.800  20.318  0.00  0.00    +0.000 C 
ATOM     45  C   UNL     1      27.818   8.319  20.197  0.00  0.00    +0.000 C 
BRANCH  44  46
ATOM     46  C   UNL     1      28.363  10.479  19.103  0.00  0.00    +0.000 C 
ATOM     47  C   UNL     1      28.606  11.093  18.101  0.00  0.00    +0.000 C 
ATOM     48  C   UNL     1      28.950  11.928  16.861  0.00  0.00    +0.000 C 
ENDBRANCH  44  46
ENDBRANCH  42  44
ENDBRANCH  39  41
BRANCH  39  49
ATOM     49  O   UNL     1      27.559  13.580  21.981  0.00  0.00    +0.000 OA
ATOM     50  H   UNL     1      26.601  13.690  21.828  0.00  0.00    +0.000 HD
ENDBRANCH  39  49
ENDBRANCH   6  39
BRANCH   8  51
ATOM     51  C   UNL     1      30.086  12.656  27.031  0.00  0.00    +0.000 C 
BRANCH  51  52
ATOM     52  O   UNL     1      30.166  11.994  28.186  0.00  0.00    +0.000 OA
ATOM     53  H   UNL     1      30.870  12.368  28.754  0.00  0.00    +0.000 HD
ENDBRANCH  51  52
ENDBRANCH   8  51
TORSDOF 13
ENDMDL
MODEL 9
REMARK VINA RESULT:      -4.4      5.527     10.501
REMARK  Name = 102471178_CandidaspongiolideCore.pdbqt.pdb
REMARK  13 active torsions:
REMARK  status: ('A' for Active; 'I' for Inactive)
REMARK    1  A    between atoms: C_6  and  C_39
REMARK    2  A    between atoms: C_8  and  O_27
REMARK    3  A    between atoms: C_8  and  C_51
REMARK    4  A    between atoms: C_10  and  O_29
REMARK    5  A    between atoms: C_15  and  O_31
REMARK    6  A    between atoms: C_16  and  O_33
REMARK    7  A    between atoms: C_21  and  O_35
REMARK    8  A    between atoms: O_35  and  C_37
REMARK    9  A    between atoms: C_39  and  C_41
REMARK   10  A    between atoms: C_39  and  O_49
REMARK   11  A    between atoms: C_42  and  C_44
REMARK   12  A    between atoms: C_44  and  C_46
REMARK   13  A    between atoms: C_51  and  O_52
REMARK                            x       y       z     vdW  Elec       q    Type
REMARK                         _______ _______ _______ _____ _____    ______ ____
ROOT
ATOM      1  O   UNL     1       2.367   9.178  24.380  0.00  0.00    +0.000 OA
ATOM      2  O   UNL     1       1.429   7.082  24.308  0.00  0.00    +0.000 OA
ATOM      3  O   UNL     1      -2.085   3.719  23.424  0.00  0.00    +0.000 OA
ATOM      4  O   UNL     1       4.388   8.782  23.454  0.00  0.00    +0.000 OA
ATOM      5  O   UNL     1       4.407   5.400  24.429  0.00  0.00    +0.000 OA
ATOM      6  C   UNL     1       0.070   9.047  24.102  0.00  0.00    +0.000 C 
ATOM      7  C   UNL     1      -1.166   8.518  24.568  0.00  0.00    +0.000 C 
ATOM      8  C   UNL     1      -2.474   8.126  25.100  0.00  0.00    +0.000 C 
ATOM      9  C   UNL     1       1.347   8.303  24.265  0.00  0.00    +0.000 C 
ATOM     10  C   UNL     1      -3.148   7.077  24.244  0.00  0.00    +0.000 C 
ATOM     11  C   UNL     1      -2.483   5.964  23.663  0.00  0.00    +0.000 C 
ATOM     12  C   UNL     1      -1.729   4.853  23.121  0.00  0.00    +0.000 C 
ATOM     13  C   UNL     1       3.599   8.634  24.380  0.00  0.00    +0.000 C 
ATOM     14  C   UNL     1      -0.532   5.098  22.261  0.00  0.00    +0.000 C 
ATOM     15  C   UNL     1       4.080   8.113  25.683  0.00  0.00    +0.000 C 
ATOM     16  C   UNL     1       3.314   7.248  26.556  0.00  0.00    +0.000 C 
ATOM     17  C   UNL     1       3.287   5.792  26.497  0.00  0.00    +0.000 C 
ATOM     18  C   UNL     1       0.545   4.178  22.283  0.00  0.00    +0.000 C 
ATOM     19  C   UNL     1       2.420   4.139  24.740  0.00  0.00    +0.000 C 
ATOM     20  C   UNL     1      -0.280   6.434  21.576  0.00  0.00    +0.000 C 
ATOM     21  C   UNL     1       2.567   3.531  23.422  0.00  0.00    +0.000 C 
ATOM     22  C   UNL     1       3.467   5.119  25.175  0.00  0.00    +0.000 C 
ATOM     23  C   UNL     1       1.531   3.345  22.416  0.00  0.00    +0.000 C 
ATOM     24  C   UNL     1       3.390   4.946  27.763  0.00  0.00    +0.000 C 
ATOM     25  C   UNL     1       1.097   3.991  25.479  0.00  0.00    +0.000 C 
ATOM     26  C   UNL     1       1.566   2.202  21.435  0.00  0.00    +0.000 C 
ENDROOT
BRANCH   8  27
ATOM     27  O   UNL     1      -3.271   9.313  25.078  0.00  0.00    +0.000 OA
ATOM     28  H   UNL     1      -4.177   8.992  24.894  0.00  0.00    +0.000 HD
ENDBRANCH   8  27
BRANCH  10  29
ATOM     29  O   UNL     1      -4.518   7.196  24.066  0.00  0.00    +0.000 OA
ATOM     30  H   UNL     1      -4.834   8.104  24.232  0.00  0.00    +0.000 HD
ENDBRANCH  10  29
BRANCH  15  31
ATOM     31  O   UNL     1       5.450   8.025  25.876  0.00  0.00    +0.000 OA
ATOM     32  H   UNL     1       5.729   8.602  26.619  0.00  0.00    +0.000 HD
ENDBRANCH  15  31
BRANCH  16  33
ATOM     33  O   UNL     1       2.999   7.787  27.791  0.00  0.00    +0.000 OA
ATOM     34  C   UNL     1       1.659   8.214  27.784  0.00  0.00    +0.000 C 
ENDBRANCH  16  33
BRANCH  21  35
ATOM     35  O   UNL     1       3.826   2.918  23.197  0.00  0.00    +0.000 OA
BRANCH  35  37
ATOM     36  O   UNL     1       3.360   0.839  24.164  0.00  0.00    +0.000 OA
ATOM     37  C   UNL     1       4.039   1.836  23.996  0.00  0.00    +0.000 C 
ATOM     38  C   UNL     1       5.320   1.867  24.748  0.00  0.00    +0.000 C 
ENDBRANCH  35  37
ENDBRANCH  21  35
BRANCH   6  39
ATOM     39  C   UNL     1       0.028  10.299  23.383  0.00  0.00    +0.000 C 
BRANCH  39  41
ATOM     40  O   UNL     1      -1.364   9.873  21.290  0.00  0.00    +0.000 OA
ATOM     41  C   UNL     1      -0.128  10.308  21.901  0.00  0.00    +0.000 C 
ATOM     42  C   UNL     1      -1.184  11.216  21.464  0.00  0.00    +0.000 C 
ATOM     43  C   UNL     1       1.082   9.868  21.003  0.00  0.00    +0.000 C 
BRANCH  42  44
ATOM     44  C   UNL     1      -1.118  12.030  20.287  0.00  0.00    +0.000 C 
ATOM     45  C   UNL     1      -0.274  13.284  20.278  0.00  0.00    +0.000 C 
BRANCH  44  46
ATOM     46  C   UNL     1      -1.427  11.484  19.016  0.00  0.00    +0.000 C 
ATOM     47  C   UNL     1      -1.676  11.065  17.920  0.00  0.00    +0.000 C 
ATOM     48  C   UNL     1      -1.961  10.587  16.491  0.00  0.00    +0.000 C 
ENDBRANCH  44  46
ENDBRANCH  42  44
ENDBRANCH  39  41
BRANCH  39  49
ATOM     49  O   UNL     1       0.209  11.455  24.125  0.00  0.00    +0.000 OA
ATOM     50  H   UNL     1      -0.078  12.273  23.675  0.00  0.00    +0.000 HD
ENDBRANCH  39  49
ENDBRANCH   6  39
BRANCH   8  51
ATOM     51  C   UNL     1      -2.388   7.670  26.497  0.00  0.00    +0.000 C 
BRANCH  51  52
ATOM     52  O   UNL     1      -2.347   7.279  27.771  0.00  0.00    +0.000 OA
ATOM     53  H   UNL     1      -3.234   7.327  28.181  0.00  0.00    +0.000 HD
ENDBRANCH  51  52
ENDBRANCH   8  51
TORSDOF 13
ENDMDL
