MODEL 1
REMARK VINA RESULT:      -4.4      0.000      0.000
REMARK  Name = 10281_Thymoquinone.pdbqt.pdb
REMARK  1 active torsions:
REMARK  status: ('A' for Active; 'I' for Inactive)
REMARK    1  A    between atoms: C_3  and  C_10
REMARK                            x       y       z     vdW  Elec       q    Type
REMARK                         _______ _______ _______ _____ _____    ______ ____
ROOT
ATOM      1  O   UNL     1       7.453  24.127  27.623  0.00  0.00    +0.000 OA
ATOM      2  O   UNL     1      10.564  28.515  27.493  0.00  0.00    +0.000 OA
ATOM      3  C   UNL     1       8.645  25.797  28.905  0.00  0.00    +0.000 C 
ATOM      4  C   UNL     1       8.155  25.118  27.659  0.00  0.00    +0.000 C 
ATOM      5  C   UNL     1       9.383  26.840  28.616  0.00  0.00    +0.000 C 
ATOM      6  C   UNL     1       9.353  26.822  26.152  0.00  0.00    +0.000 C 
ATOM      7  C   UNL     1       9.861  27.525  27.414  0.00  0.00    +0.000 C 
ATOM      8  C   UNL     1       8.619  25.784  26.447  0.00  0.00    +0.000 C 
ATOM      9  C   UNL     1       9.629  27.229  24.741  0.00  0.00    +0.000 C 
ENDROOT
BRANCH   3  10
ATOM     10  C   UNL     1       8.299  25.290  30.192  0.00  0.00    +0.000 C 
ATOM     11  C   UNL     1       9.108  24.184  30.824  0.00  0.00    +0.000 C 
ATOM     12  C   UNL     1       7.421  26.092  31.121  0.00  0.00    +0.000 C 
ENDBRANCH   3  10
TORSDOF 1
ENDMDL
MODEL 2
REMARK VINA RESULT:      -4.2      6.238      8.500
REMARK  Name = 10281_Thymoquinone.pdbqt.pdb
REMARK  1 active torsions:
REMARK  status: ('A' for Active; 'I' for Inactive)
REMARK    1  A    between atoms: C_3  and  C_10
REMARK                            x       y       z     vdW  Elec       q    Type
REMARK                         _______ _______ _______ _____ _____    ______ ____
ROOT
ATOM      1  O   UNL     1      11.175  20.694  31.841  0.00  0.00    +0.000 OA
ATOM      2  O   UNL     1      11.103  16.571  28.386  0.00  0.00    +0.000 OA
ATOM      3  C   UNL     1       9.829  19.273  30.419  0.00  0.00    +0.000 C 
ATOM      4  C   UNL     1      11.094  19.770  31.056  0.00  0.00    +0.000 C 
ATOM      5  C   UNL     1      10.067  18.264  29.619  0.00  0.00    +0.000 C 
ATOM      6  C   UNL     1      12.509  18.006  29.832  0.00  0.00    +0.000 C 
ATOM      7  C   UNL     1      11.227  17.488  29.174  0.00  0.00    +0.000 C 
ATOM      8  C   UNL     1      12.264  19.011  30.628  0.00  0.00    +0.000 C 
ATOM      9  C   UNL     1      13.887  17.468  29.627  0.00  0.00    +0.000 C 
ENDROOT
BRANCH   3  10
ATOM     10  C   UNL     1       8.578  19.891  30.711  0.00  0.00    +0.000 C 
ATOM     11  C   UNL     1       8.191  21.190  30.048  0.00  0.00    +0.000 C 
ATOM     12  C   UNL     1       7.455  19.096  31.330  0.00  0.00    +0.000 C 
ENDBRANCH   3  10
TORSDOF 1
ENDMDL
MODEL 3
REMARK VINA RESULT:      -4.2     15.045     15.681
REMARK  Name = 10281_Thymoquinone.pdbqt.pdb
REMARK  1 active torsions:
REMARK  status: ('A' for Active; 'I' for Inactive)
REMARK    1  A    between atoms: C_3  and  C_10
REMARK                            x       y       z     vdW  Elec       q    Type
REMARK                         _______ _______ _______ _____ _____    ______ ____
ROOT
ATOM      1  O   UNL     1      22.442  20.242  27.785  0.00  0.00    +0.000 OA
ATOM      2  O   UNL     1      24.027  22.525  23.179  0.00  0.00    +0.000 OA
ATOM      3  C   UNL     1      22.861  19.943  25.421  0.00  0.00    +0.000 C 
ATOM      4  C   UNL     1      22.791  20.701  26.715  0.00  0.00    +0.000 C 
ATOM      5  C   UNL     1      23.273  20.712  24.445  0.00  0.00    +0.000 C 
ATOM      6  C   UNL     1      23.609  22.865  25.595  0.00  0.00    +0.000 C 
ATOM      7  C   UNL     1      23.684  22.106  24.267  0.00  0.00    +0.000 C 
ATOM      8  C   UNL     1      23.197  22.093  26.563  0.00  0.00    +0.000 C 
ATOM      9  C   UNL     1      23.951  24.304  25.811  0.00  0.00    +0.000 C 
ENDROOT
BRANCH   3  10
ATOM     10  C   UNL     1      22.499  18.565  25.367  0.00  0.00    +0.000 C 
ATOM     11  C   UNL     1      21.114  18.152  24.932  0.00  0.00    +0.000 C 
ATOM     12  C   UNL     1      23.561  17.494  25.323  0.00  0.00    +0.000 C 
ENDBRANCH   3  10
TORSDOF 1
ENDMDL
MODEL 4
REMARK VINA RESULT:      -4.2     15.638     16.712
REMARK  Name = 10281_Thymoquinone.pdbqt.pdb
REMARK  1 active torsions:
REMARK  status: ('A' for Active; 'I' for Inactive)
REMARK    1  A    between atoms: C_3  and  C_10
REMARK                            x       y       z     vdW  Elec       q    Type
REMARK                         _______ _______ _______ _____ _____    ______ ____
ROOT
ATOM      1  O   UNL     1      -0.867  29.504  16.717  0.00  0.00    +0.000 OA
ATOM      2  O   UNL     1       0.033  25.458  13.288  0.00  0.00    +0.000 OA
ATOM      3  C   UNL     1       0.139  28.812  14.629  0.00  0.00    +0.000 C 
ATOM      4  C   UNL     1      -0.632  28.632  15.904  0.00  0.00    +0.000 C 
ATOM      5  C   UNL     1       0.224  27.686  13.966  0.00  0.00    +0.000 C 
ATOM      6  C   UNL     1      -1.009  26.134  15.429  0.00  0.00    +0.000 C 
ATOM      7  C   UNL     1      -0.224  26.301  14.125  0.00  0.00    +0.000 C 
ATOM      8  C   UNL     1      -1.090  27.260  16.085  0.00  0.00    +0.000 C 
ATOM      9  C   UNL     1      -1.625  24.870  15.935  0.00  0.00    +0.000 C 
ENDROOT
BRANCH   3  10
ATOM     10  C   UNL     1       0.673  30.086  14.276  0.00  0.00    +0.000 C 
ATOM     11  C   UNL     1       2.080  30.464  14.671  0.00  0.00    +0.000 C 
ATOM     12  C   UNL     1       0.045  30.903  13.174  0.00  0.00    +0.000 C 
ENDBRANCH   3  10
TORSDOF 1
ENDMDL
MODEL 5
REMARK VINA RESULT:      -4.1     25.831     26.708
REMARK  Name = 10281_Thymoquinone.pdbqt.pdb
REMARK  1 active torsions:
REMARK  status: ('A' for Active; 'I' for Inactive)
REMARK    1  A    between atoms: C_3  and  C_10
REMARK                            x       y       z     vdW  Elec       q    Type
REMARK                         _______ _______ _______ _____ _____    ______ ____
ROOT
ATOM      1  O   UNL     1      29.819  14.307  18.584  0.00  0.00    +0.000 OA
ATOM      2  O   UNL     1      27.666  11.107  14.833  0.00  0.00    +0.000 OA
ATOM      3  C   UNL     1      29.128  12.065  17.997  0.00  0.00    +0.000 C 
ATOM      4  C   UNL     1      29.339  13.535  17.778  0.00  0.00    +0.000 C 
ATOM      5  C   UNL     1      28.591  11.503  16.942  0.00  0.00    +0.000 C 
ATOM      6  C   UNL     1      28.364  13.413  15.403  0.00  0.00    +0.000 C 
ATOM      7  C   UNL     1      28.141  11.913  15.611  0.00  0.00    +0.000 C 
ATOM      8  C   UNL     1      28.899  13.967  16.457  0.00  0.00    +0.000 C 
ATOM      9  C   UNL     1      28.033  14.194  14.172  0.00  0.00    +0.000 C 
ENDROOT
BRANCH   3  10
ATOM     10  C   UNL     1      29.494  11.454  19.232  0.00  0.00    +0.000 C 
ATOM     11  C   UNL     1      28.518  11.405  20.382  0.00  0.00    +0.000 C 
ATOM     12  C   UNL     1      30.655  10.493  19.298  0.00  0.00    +0.000 C 
ENDBRANCH   3  10
TORSDOF 1
ENDMDL
MODEL 6
REMARK VINA RESULT:      -4.1      1.762      2.363
REMARK  Name = 10281_Thymoquinone.pdbqt.pdb
REMARK  1 active torsions:
REMARK  status: ('A' for Active; 'I' for Inactive)
REMARK    1  A    between atoms: C_3  and  C_10
REMARK                            x       y       z     vdW  Elec       q    Type
REMARK                         _______ _______ _______ _____ _____    ______ ____
ROOT
ATOM      1  O   UNL     1       7.797  24.130  27.121  0.00  0.00    +0.000 OA
ATOM      2  O   UNL     1       9.251  28.212  30.309  0.00  0.00    +0.000 OA
ATOM      3  C   UNL     1       7.541  25.201  29.274  0.00  0.00    +0.000 C 
ATOM      4  C   UNL     1       8.086  25.028  27.886  0.00  0.00    +0.000 C 
ATOM      5  C   UNL     1       8.043  26.265  29.850  0.00  0.00    +0.000 C 
ATOM      6  C   UNL     1       9.535  27.141  28.095  0.00  0.00    +0.000 C 
ATOM      7  C   UNL     1       8.989  27.331  29.513  0.00  0.00    +0.000 C 
ATOM      8  C   UNL     1       9.030  26.080  27.527  0.00  0.00    +0.000 C 
ATOM      9  C   UNL     1      10.518  28.026  27.400  0.00  0.00    +0.000 C 
ENDROOT
BRANCH   3  10
ATOM     10  C   UNL     1       6.604  24.269  29.808  0.00  0.00    +0.000 C 
ATOM     11  C   UNL     1       5.134  24.389  29.487  0.00  0.00    +0.000 C 
ATOM     12  C   UNL     1       7.066  22.933  30.336  0.00  0.00    +0.000 C 
ENDBRANCH   3  10
TORSDOF 1
ENDMDL
MODEL 7
REMARK VINA RESULT:      -4.0     25.251     26.628
REMARK  Name = 10281_Thymoquinone.pdbqt.pdb
REMARK  1 active torsions:
REMARK  status: ('A' for Active; 'I' for Inactive)
REMARK    1  A    between atoms: C_3  and  C_10
REMARK                            x       y       z     vdW  Elec       q    Type
REMARK                         _______ _______ _______ _____ _____    ______ ____
ROOT
ATOM      1  O   UNL     1       4.533   2.445  22.877  0.00  0.00    +0.000 OA
ATOM      2  O   UNL     1       6.893  -1.709  20.404  0.00  0.00    +0.000 OA
ATOM      3  C   UNL     1       6.032   0.558  23.084  0.00  0.00    +0.000 C 
ATOM      4  C   UNL     1       5.095   1.492  22.374  0.00  0.00    +0.000 C 
ATOM      5  C   UNL     1       6.476  -0.370  22.274  0.00  0.00    +0.000 C 
ATOM      6  C   UNL     1       5.355   0.215  20.159  0.00  0.00    +0.000 C 
ATOM      7  C   UNL     1       6.312  -0.747  20.868  0.00  0.00    +0.000 C 
ATOM      8  C   UNL     1       4.916   1.137  20.971  0.00  0.00    +0.000 C 
ATOM      9  C   UNL     1       4.944   0.155  18.723  0.00  0.00    +0.000 C 
ENDROOT
BRANCH   3  10
ATOM     10  C   UNL     1       6.331   0.740  24.465  0.00  0.00    +0.000 C 
ATOM     11  C   UNL     1       5.871  -0.269  25.490  0.00  0.00    +0.000 C 
ATOM     12  C   UNL     1       7.436   1.673  24.895  0.00  0.00    +0.000 C 
ENDBRANCH   3  10
TORSDOF 1
ENDMDL
MODEL 8
REMARK VINA RESULT:      -3.9     23.699     26.410
REMARK  Name = 10281_Thymoquinone.pdbqt.pdb
REMARK  1 active torsions:
REMARK  status: ('A' for Active; 'I' for Inactive)
REMARK    1  A    between atoms: C_3  and  C_10
REMARK                            x       y       z     vdW  Elec       q    Type
REMARK                         _______ _______ _______ _____ _____    ______ ____
ROOT
ATOM      1  O   UNL     1      23.523  28.915   7.126  0.00  0.00    +0.000 OA
ATOM      2  O   UNL     1      20.740  26.905   2.984  0.00  0.00    +0.000 OA
ATOM      3  C   UNL     1      21.401  28.836   5.966  0.00  0.00    +0.000 C 
ATOM      4  C   UNL     1      22.843  28.494   6.211  0.00  0.00    +0.000 C 
ATOM      5  C   UNL     1      20.946  28.225   4.901  0.00  0.00    +0.000 C 
ATOM      6  C   UNL     1      22.924  26.963   4.148  0.00  0.00    +0.000 C 
ATOM      7  C   UNL     1      21.454  27.302   3.884  0.00  0.00    +0.000 C 
ATOM      8  C   UNL     1      23.371  27.575   5.211  0.00  0.00    +0.000 C 
ATOM      9  C   UNL     1      23.783  26.055   3.329  0.00  0.00    +0.000 C 
ENDROOT
BRANCH   3  10
ATOM     10  C   UNL     1      20.708  29.725   6.838  0.00  0.00    +0.000 C 
ATOM     11  C   UNL     1      20.324  31.109   6.375  0.00  0.00    +0.000 C 
ATOM     12  C   UNL     1      19.978  29.199   8.049  0.00  0.00    +0.000 C 
ENDBRANCH   3  10
TORSDOF 1
ENDMDL
MODEL 9
REMARK VINA RESULT:      -3.8     27.110     28.735
REMARK  Name = 10281_Thymoquinone.pdbqt.pdb
REMARK  1 active torsions:
REMARK  status: ('A' for Active; 'I' for Inactive)
REMARK    1  A    between atoms: C_3  and  C_10
REMARK                            x       y       z     vdW  Elec       q    Type
REMARK                         _______ _______ _______ _____ _____    ______ ____
ROOT
ATOM      1  O   UNL     1      12.793  -2.708  27.916  0.00  0.00    +0.000 OA
ATOM      2  O   UNL     1      13.786  -2.119  22.662  0.00  0.00    +0.000 OA
ATOM      3  C   UNL     1      13.828  -1.360  26.195  0.00  0.00    +0.000 C 
ATOM      4  C   UNL     1      13.049  -2.520  26.743  0.00  0.00    +0.000 C 
ATOM      5  C   UNL     1      13.937  -1.438  24.892  0.00  0.00    +0.000 C 
ATOM      6  C   UNL     1      12.716  -3.520  24.399  0.00  0.00    +0.000 C 
ATOM      7  C   UNL     1      13.509  -2.343  23.824  0.00  0.00    +0.000 C 
ATOM      8  C   UNL     1      12.611  -3.436  25.697  0.00  0.00    +0.000 C 
ATOM      9  C   UNL     1      12.115  -4.646  23.621  0.00  0.00    +0.000 C 
ENDROOT
BRANCH   3  10
ATOM     10  C   UNL     1      14.345  -0.356  27.065  0.00  0.00    +0.000 C 
ATOM     11  C   UNL     1      15.832  -0.229  27.292  0.00  0.00    +0.000 C 
ATOM     12  C   UNL     1      13.507   0.841  27.439  0.00  0.00    +0.000 C 
ENDBRANCH   3  10
TORSDOF 1
ENDMDL
