MODEL 1
REMARK VINA RESULT:      -5.4      0.000      0.000
REMARK  Name = 10288191_Binimetinib.pdbqt.pdb
REMARK  6 active torsions:
REMARK  status: ('A' for Active; 'I' for Inactive)
REMARK    1  A    between atoms: C_6  and  N_21
REMARK    2  A    between atoms: C_7  and  C_14
REMARK    3  A    between atoms: N_13  and  O_16
REMARK    4  A    between atoms: O_16  and  C_17
REMARK    5  A    between atoms: C_18  and  O_19
REMARK    6  A    between atoms: N_21  and  C_25
REMARK                            x       y       z     vdW  Elec       q    Type
REMARK                         _______ _______ _______ _____ _____    ______ ____
ROOT
ATOM      1  F   UNL     1      -3.191  14.761  19.515  0.00  0.00    +0.000 F 
ATOM      2  N   UNL     1      -5.506  18.528  20.457  0.00  0.00    +0.000 N 
ATOM      3  N   UNL     1      -5.558  16.513  19.557  0.00  0.00    +0.000 NA
ATOM      4  C   UNL     1      -4.250  18.031  20.659  0.00  0.00    +0.000 A 
ATOM      5  C   UNL     1      -4.306  16.762  20.089  0.00  0.00    +0.000 A 
ATOM      6  C   UNL     1      -1.958  16.416  20.728  0.00  0.00    +0.000 A 
ATOM      7  C   UNL     1      -1.950  17.724  21.281  0.00  0.00    +0.000 A 
ATOM      8  C   UNL     1      -3.094  18.542  21.252  0.00  0.00    +0.000 A 
ATOM      9  C   UNL     1      -3.152  15.957  20.124  0.00  0.00    +0.000 A 
ATOM     10  C   UNL     1      -6.260  17.604  19.800  0.00  0.00    +0.000 A 
ATOM     11  C   UNL     1      -5.969  19.806  20.884  0.00  0.00    +0.000 C 
ENDROOT
BRANCH   7  14
ATOM     12  O   UNL     1       0.295  18.450  21.205  0.00  0.00    +0.000 OA
ATOM     13  N   UNL     1      -0.784  18.635  23.232  0.00  0.00    +0.000 N 
ATOM     14  C   UNL     1      -0.711  18.301  21.895  0.00  0.00    +0.000 C 
ATOM     15  H   UNL     1      -1.449  18.196  23.857  0.00  0.00    +0.000 HD
BRANCH  13  16
ATOM     16  O   UNL     1       0.471  18.901  23.823  0.00  0.00    +0.000 OA
BRANCH  16  17
ATOM     17  C   UNL     1       0.827  17.787  24.459  0.00  0.00    +0.000 C 
ATOM     18  C   UNL     1       1.226  16.500  25.188  0.00  0.00    +0.000 C 
BRANCH  18  19
ATOM     19  O   UNL     1       1.564  15.380  25.818  0.00  0.00    +0.000 OA
ATOM     20  H   UNL     1       0.911  15.174  26.509  0.00  0.00    +0.000 HD
ENDBRANCH  18  19
ENDBRANCH  16  17
ENDBRANCH  13  16
ENDBRANCH   7  14
BRANCH   6  21
ATOM     21  N   UNL     1      -0.804  15.595  20.811  0.00  0.00    +0.000 N 
ATOM     22  H   UNL     1       0.065  16.129  20.963  0.00  0.00    +0.000 HD
BRANCH  21  25
ATOM     23 BR   UNL     1       0.018   9.795  22.507  0.00  0.00    +0.000 Br
ATOM     24  F   UNL     1      -0.925  14.806  23.451  0.00  0.00    +0.000 F 
ATOM     25  C   UNL     1      -0.649  14.238  21.164  0.00  0.00    +0.000 A 
ATOM     26  C   UNL     1      -0.688  13.868  22.519  0.00  0.00    +0.000 A 
ATOM     27  C   UNL     1      -0.379  13.234  20.232  0.00  0.00    +0.000 A 
ATOM     28  C   UNL     1      -0.494  12.554  22.931  0.00  0.00    +0.000 A 
ATOM     29  C   UNL     1      -0.184  11.910  20.625  0.00  0.00    +0.000 A 
ATOM     30  C   UNL     1      -0.244  11.581  21.974  0.00  0.00    +0.000 A 
ENDBRANCH  21  25
ENDBRANCH   6  21
TORSDOF 6
ENDMDL
MODEL 2
REMARK VINA RESULT:      -5.3     13.162     15.401
REMARK  Name = 10288191_Binimetinib.pdbqt.pdb
REMARK  6 active torsions:
REMARK  status: ('A' for Active; 'I' for Inactive)
REMARK    1  A    between atoms: C_6  and  N_21
REMARK    2  A    between atoms: C_7  and  C_14
REMARK    3  A    between atoms: N_13  and  O_16
REMARK    4  A    between atoms: O_16  and  C_17
REMARK    5  A    between atoms: C_18  and  O_19
REMARK    6  A    between atoms: N_21  and  C_25
REMARK                            x       y       z     vdW  Elec       q    Type
REMARK                         _______ _______ _______ _____ _____    ______ ____
ROOT
ATOM      1  F   UNL     1       0.033  27.574  12.681  0.00  0.00    +0.000 F 
ATOM      2  N   UNL     1      -2.109  24.759  15.495  0.00  0.00    +0.000 N 
ATOM      3  N   UNL     1      -0.745  24.951  13.772  0.00  0.00    +0.000 NA
ATOM      4  C   UNL     1      -1.974  26.106  15.315  0.00  0.00    +0.000 A 
ATOM      5  C   UNL     1      -1.109  26.204  14.229  0.00  0.00    +0.000 A 
ATOM      6  C   UNL     1      -1.245  28.653  14.394  0.00  0.00    +0.000 A 
ATOM      7  C   UNL     1      -2.137  28.497  15.488  0.00  0.00    +0.000 A 
ATOM      8  C   UNL     1      -2.508  27.224  15.958  0.00  0.00    +0.000 A 
ATOM      9  C   UNL     1      -0.748  27.485  13.769  0.00  0.00    +0.000 A 
ATOM     10  C   UNL     1      -1.367  24.099  14.563  0.00  0.00    +0.000 A 
ATOM     11  C   UNL     1      -2.888  24.134  16.512  0.00  0.00    +0.000 C 
ENDROOT
BRANCH   7  14
ATOM     12  O   UNL     1      -2.040  30.653  16.443  0.00  0.00    +0.000 OA
ATOM     13  N   UNL     1      -4.092  29.604  16.461  0.00  0.00    +0.000 N 
ATOM     14  C   UNL     1      -2.744  29.684  16.172  0.00  0.00    +0.000 C 
ATOM     15  H   UNL     1      -4.564  28.715  16.570  0.00  0.00    +0.000 HD
BRANCH  13  16
ATOM     16  O   UNL     1      -4.544  30.608  17.345  0.00  0.00    +0.000 OA
BRANCH  16  17
ATOM     17  C   UNL     1      -4.652  30.031  18.541  0.00  0.00    +0.000 C 
ATOM     18  C   UNL     1      -4.762  29.367  19.917  0.00  0.00    +0.000 C 
BRANCH  18  19
ATOM     19  O   UNL     1      -4.849  28.792  21.112  0.00  0.00    +0.000 OA
ATOM     20  H   UNL     1      -4.436  29.357  21.786  0.00  0.00    +0.000 HD
ENDBRANCH  18  19
ENDBRANCH  16  17
ENDBRANCH  13  16
ENDBRANCH   7  14
BRANCH   6  21
ATOM     21  N   UNL     1      -0.851  29.947  13.969  0.00  0.00    +0.000 N 
ATOM     22  H   UNL     1      -1.563  30.671  14.154  0.00  0.00    +0.000 HD
BRANCH  21  25
ATOM     23 BR   UNL     1       4.656  32.484  13.315  0.00  0.00    +0.000 Br
ATOM     24  F   UNL     1       1.130  29.665  15.866  0.00  0.00    +0.000 F 
ATOM     25  C   UNL     1       0.425  30.514  13.767  0.00  0.00    +0.000 A 
ATOM     26  C   UNL     1       1.407  30.378  14.762  0.00  0.00    +0.000 A 
ATOM     27  C   UNL     1       0.750  31.281  12.645  0.00  0.00    +0.000 A 
ATOM     28  C   UNL     1       2.667  30.955  14.640  0.00  0.00    +0.000 A 
ATOM     29  C   UNL     1       2.008  31.866  12.504  0.00  0.00    +0.000 A 
ATOM     30  C   UNL     1       2.957  31.697  13.504  0.00  0.00    +0.000 A 
ENDBRANCH  21  25
ENDBRANCH   6  21
TORSDOF 6
ENDMDL
MODEL 3
REMARK VINA RESULT:      -5.2     25.292     26.554
REMARK  Name = 10288191_Binimetinib.pdbqt.pdb
REMARK  6 active torsions:
REMARK  status: ('A' for Active; 'I' for Inactive)
REMARK    1  A    between atoms: C_6  and  N_21
REMARK    2  A    between atoms: C_7  and  C_14
REMARK    3  A    between atoms: N_13  and  O_16
REMARK    4  A    between atoms: O_16  and  C_17
REMARK    5  A    between atoms: C_18  and  O_19
REMARK    6  A    between atoms: N_21  and  C_25
REMARK                            x       y       z     vdW  Elec       q    Type
REMARK                         _______ _______ _______ _____ _____    ______ ____
ROOT
ATOM      1  F   UNL     1      22.471  15.634  30.395  0.00  0.00    +0.000 F 
ATOM      2  N   UNL     1      23.371  18.258  26.826  0.00  0.00    +0.000 N 
ATOM      3  N   UNL     1      23.126  18.153  29.017  0.00  0.00    +0.000 NA
ATOM      4  C   UNL     1      23.107  16.942  27.078  0.00  0.00    +0.000 A 
ATOM      5  C   UNL     1      22.961  16.898  28.461  0.00  0.00    +0.000 A 
ATOM      6  C   UNL     1      22.547  14.480  28.299  0.00  0.00    +0.000 A 
ATOM      7  C   UNL     1      22.691  14.583  26.890  0.00  0.00    +0.000 A 
ATOM      8  C   UNL     1      22.972  15.813  26.268  0.00  0.00    +0.000 A 
ATOM      9  C   UNL     1      22.677  15.660  29.069  0.00  0.00    +0.000 A 
ATOM     10  C   UNL     1      23.376  18.953  27.997  0.00  0.00    +0.000 A 
ATOM     11  C   UNL     1      23.624  18.821  25.541  0.00  0.00    +0.000 C 
ENDROOT
BRANCH   7  14
ATOM     12  O   UNL     1      21.437  12.809  25.969  0.00  0.00    +0.000 OA
ATOM     13  N   UNL     1      23.620  13.010  25.260  0.00  0.00    +0.000 N 
ATOM     14  C   UNL     1      22.519  13.389  26.001  0.00  0.00    +0.000 C 
ATOM     15  H   UNL     1      24.563  13.243  25.546  0.00  0.00    +0.000 HD
BRANCH  13  16
ATOM     16  O   UNL     1      23.497  11.734  24.669  0.00  0.00    +0.000 OA
BRANCH  16  17
ATOM     17  C   UNL     1      24.386  11.695  23.678  0.00  0.00    +0.000 C 
ATOM     18  C   UNL     1      25.416  11.639  22.545  0.00  0.00    +0.000 C 
BRANCH  18  19
ATOM     19  O   UNL     1      26.311  11.583  21.565  0.00  0.00    +0.000 OA
ATOM     20  H   UNL     1      26.085  10.870  20.944  0.00  0.00    +0.000 HD
ENDBRANCH  18  19
ENDBRANCH  16  17
ENDBRANCH  13  16
ENDBRANCH   7  14
BRANCH   6  21
ATOM     21  N   UNL     1      22.308  13.220  28.906  0.00  0.00    +0.000 N 
ATOM     22  H   UNL     1      21.669  12.621  28.361  0.00  0.00    +0.000 HD
BRANCH  21  25
ATOM     23 BR   UNL     1      25.589   9.779  32.724  0.00  0.00    +0.000 Br
ATOM     24  F   UNL     1      24.409  11.658  28.038  0.00  0.00    +0.000 F 
ATOM     25  C   UNL     1      23.072  12.467  29.822  0.00  0.00    +0.000 A 
ATOM     26  C   UNL     1      24.119  11.659  29.349  0.00  0.00    +0.000 A 
ATOM     27  C   UNL     1      22.792  12.421  31.190  0.00  0.00    +0.000 A 
ATOM     28  C   UNL     1      24.875  10.858  30.199  0.00  0.00    +0.000 A 
ATOM     29  C   UNL     1      23.540  11.626  32.058  0.00  0.00    +0.000 A 
ATOM     30  C   UNL     1      24.577  10.851  31.554  0.00  0.00    +0.000 A 
ENDBRANCH  21  25
ENDBRANCH   6  21
TORSDOF 6
ENDMDL
MODEL 4
REMARK VINA RESULT:      -5.2     23.541     25.714
REMARK  Name = 10288191_Binimetinib.pdbqt.pdb
REMARK  6 active torsions:
REMARK  status: ('A' for Active; 'I' for Inactive)
REMARK    1  A    between atoms: C_6  and  N_21
REMARK    2  A    between atoms: C_7  and  C_14
REMARK    3  A    between atoms: N_13  and  O_16
REMARK    4  A    between atoms: O_16  and  C_17
REMARK    5  A    between atoms: C_18  and  O_19
REMARK    6  A    between atoms: N_21  and  C_25
REMARK                            x       y       z     vdW  Elec       q    Type
REMARK                         _______ _______ _______ _____ _____    ______ ____
ROOT
ATOM      1  F   UNL     1      23.867  15.761  30.021  0.00  0.00    +0.000 F 
ATOM      2  N   UNL     1      24.625  13.313  26.298  0.00  0.00    +0.000 N 
ATOM      3  N   UNL     1      24.838  13.439  28.491  0.00  0.00    +0.000 NA
ATOM      4  C   UNL     1      24.039  14.500  26.630  0.00  0.00    +0.000 A 
ATOM      5  C   UNL     1      24.180  14.558  28.013  0.00  0.00    +0.000 A 
ATOM      6  C   UNL     1      23.022  16.726  28.000  0.00  0.00    +0.000 A 
ATOM      7  C   UNL     1      22.917  16.625  26.588  0.00  0.00    +0.000 A 
ATOM      8  C   UNL     1      23.424  15.512  25.891  0.00  0.00    +0.000 A 
ATOM      9  C   UNL     1      23.670  15.679  28.696  0.00  0.00    +0.000 A 
ATOM     10  C   UNL     1      25.092  12.705  27.424  0.00  0.00    +0.000 A 
ATOM     11  C   UNL     1      24.721  12.776  24.981  0.00  0.00    +0.000 C 
ENDROOT
BRANCH   7  14
ATOM     12  O   UNL     1      21.152  18.094  26.045  0.00  0.00    +0.000 OA
ATOM     13  N   UNL     1      23.049  18.231  24.744  0.00  0.00    +0.000 N 
ATOM     14  C   UNL     1      22.289  17.714  25.774  0.00  0.00    +0.000 C 
ATOM     15  H   UNL     1      23.792  17.698  24.309  0.00  0.00    +0.000 HD
BRANCH  13  16
ATOM     16  O   UNL     1      22.318  19.038  23.845  0.00  0.00    +0.000 OA
BRANCH  16  17
ATOM     17  C   UNL     1      22.793  20.274  23.984  0.00  0.00    +0.000 C 
ATOM     18  C   UNL     1      23.327  21.702  24.139  0.00  0.00    +0.000 C 
BRANCH  18  19
ATOM     19  O   UNL     1      23.782  22.943  24.272  0.00  0.00    +0.000 OA
ATOM     20  H   UNL     1      24.699  22.999  23.954  0.00  0.00    +0.000 HD
ENDBRANCH  18  19
ENDBRANCH  16  17
ENDBRANCH  13  16
ENDBRANCH   7  14
BRANCH   6  21
ATOM     21  N   UNL     1      22.462  17.836  28.683  0.00  0.00    +0.000 N 
ATOM     22  H   UNL     1      22.836  18.742  28.361  0.00  0.00    +0.000 HD
BRANCH  21  25
ATOM     23 BR   UNL     1      17.250  18.697  31.729  0.00  0.00    +0.000 Br
ATOM     24  F   UNL     1      21.261  20.312  28.867  0.00  0.00    +0.000 F 
ATOM     25  C   UNL     1      21.236  17.992  29.362  0.00  0.00    +0.000 A 
ATOM     26  C   UNL     1      20.660  19.270  29.464  0.00  0.00    +0.000 A 
ATOM     27  C   UNL     1      20.587  16.942  30.015  0.00  0.00    +0.000 A 
ATOM     28  C   UNL     1      19.477  19.493  30.161  0.00  0.00    +0.000 A 
ATOM     29  C   UNL     1      19.400  17.145  30.717  0.00  0.00    +0.000 A 
ATOM     30  C   UNL     1      18.854  18.421  30.783  0.00  0.00    +0.000 A 
ENDBRANCH  21  25
ENDBRANCH   6  21
TORSDOF 6
ENDMDL
MODEL 5
REMARK VINA RESULT:      -5.2     25.227     26.641
REMARK  Name = 10288191_Binimetinib.pdbqt.pdb
REMARK  6 active torsions:
REMARK  status: ('A' for Active; 'I' for Inactive)
REMARK    1  A    between atoms: C_6  and  N_21
REMARK    2  A    between atoms: C_7  and  C_14
REMARK    3  A    between atoms: N_13  and  O_16
REMARK    4  A    between atoms: O_16  and  C_17
REMARK    5  A    between atoms: C_18  and  O_19
REMARK    6  A    between atoms: N_21  and  C_25
REMARK                            x       y       z     vdW  Elec       q    Type
REMARK                         _______ _______ _______ _____ _____    ______ ____
ROOT
ATOM      1  F   UNL     1      22.718  10.436  27.012  0.00  0.00    +0.000 F 
ATOM      2  N   UNL     1      25.137  11.220  23.275  0.00  0.00    +0.000 N 
ATOM      3  N   UNL     1      24.089   9.718  24.506  0.00  0.00    +0.000 NA
ATOM      4  C   UNL     1      24.616  11.934  24.316  0.00  0.00    +0.000 A 
ATOM      5  C   UNL     1      23.958  10.972  25.075  0.00  0.00    +0.000 A 
ATOM      6  C   UNL     1      23.286  12.733  26.652  0.00  0.00    +0.000 A 
ATOM      7  C   UNL     1      23.985  13.673  25.850  0.00  0.00    +0.000 A 
ATOM      8  C   UNL     1      24.656  13.283  24.676  0.00  0.00    +0.000 A 
ATOM      9  C   UNL     1      23.294  11.377  26.249  0.00  0.00    +0.000 A 
ATOM     10  C   UNL     1      24.807   9.906  23.415  0.00  0.00    +0.000 A 
ATOM     11  C   UNL     1      25.892  11.762  22.194  0.00  0.00    +0.000 C 
ENDROOT
BRANCH   7  14
ATOM     12  O   UNL     1      24.863  15.472  27.101  0.00  0.00    +0.000 OA
ATOM     13  N   UNL     1      23.211  15.980  25.576  0.00  0.00    +0.000 N 
ATOM     14  C   UNL     1      24.065  15.118  26.236  0.00  0.00    +0.000 C 
ATOM     15  H   UNL     1      22.347  15.659  25.158  0.00  0.00    +0.000 HD
BRANCH  13  16
ATOM     16  O   UNL     1      23.124  17.259  26.167  0.00  0.00    +0.000 OA
BRANCH  16  17
ATOM     17  C   UNL     1      22.923  18.117  25.170  0.00  0.00    +0.000 C 
ATOM     18  C   UNL     1      22.702  19.099  24.014  0.00  0.00    +0.000 C 
BRANCH  18  19
ATOM     19  O   UNL     1      22.514  19.946  23.008  0.00  0.00    +0.000 OA
ATOM     20  H   UNL     1      22.003  19.518  22.301  0.00  0.00    +0.000 HD
ENDBRANCH  18  19
ENDBRANCH  16  17
ENDBRANCH  13  16
ENDBRANCH   7  14
BRANCH   6  21
ATOM     21  N   UNL     1      22.581  13.159  27.807  0.00  0.00    +0.000 N 
ATOM     22  H   UNL     1      21.556  13.093  27.704  0.00  0.00    +0.000 HD
BRANCH  21  25
ATOM     23 BR   UNL     1      24.363  13.644  33.619  0.00  0.00    +0.000 Br
ATOM     24  F   UNL     1      22.444  15.541  29.191  0.00  0.00    +0.000 F 
ATOM     25  C   UNL     1      22.964  13.227  29.163  0.00  0.00    +0.000 A 
ATOM     26  C   UNL     1      22.910  14.459  29.835  0.00  0.00    +0.000 A 
ATOM     27  C   UNL     1      23.475  12.133  29.865  0.00  0.00    +0.000 A 
ATOM     28  C   UNL     1      23.319  14.597  31.158  0.00  0.00    +0.000 A 
ATOM     29  C   UNL     1      23.889  12.251  31.192  0.00  0.00    +0.000 A 
ATOM     30  C   UNL     1      23.807  13.483  31.828  0.00  0.00    +0.000 A 
ENDBRANCH  21  25
ENDBRANCH   6  21
TORSDOF 6
ENDMDL
MODEL 6
REMARK VINA RESULT:      -5.2     15.784     17.941
REMARK  Name = 10288191_Binimetinib.pdbqt.pdb
REMARK  6 active torsions:
REMARK  status: ('A' for Active; 'I' for Inactive)
REMARK    1  A    between atoms: C_6  and  N_21
REMARK    2  A    between atoms: C_7  and  C_14
REMARK    3  A    between atoms: N_13  and  O_16
REMARK    4  A    between atoms: O_16  and  C_17
REMARK    5  A    between atoms: C_18  and  O_19
REMARK    6  A    between atoms: N_21  and  C_25
REMARK                            x       y       z     vdW  Elec       q    Type
REMARK                         _______ _______ _______ _____ _____    ______ ____
ROOT
ATOM      1  F   UNL     1       2.389  30.355  15.169  0.00  0.00    +0.000 F 
ATOM      2  N   UNL     1       3.959  33.388  12.209  0.00  0.00    +0.000 N 
ATOM      3  N   UNL     1       4.114  32.557  14.247  0.00  0.00    +0.000 NA
ATOM      4  C   UNL     1       3.033  32.385  12.240  0.00  0.00    +0.000 A 
ATOM      5  C   UNL     1       3.150  31.874  13.529  0.00  0.00    +0.000 A 
ATOM      6  C   UNL     1       1.387  30.244  12.998  0.00  0.00    +0.000 A 
ATOM      7  C   UNL     1       1.298  30.813  11.700  0.00  0.00    +0.000 A 
ATOM      8  C   UNL     1       2.119  31.887  11.310  0.00  0.00    +0.000 A 
ATOM      9  C   UNL     1       2.319  30.801  13.905  0.00  0.00    +0.000 A 
ATOM     10  C   UNL     1       4.585  33.466  13.416  0.00  0.00    +0.000 A 
ATOM     11  C   UNL     1       4.247  34.215  11.084  0.00  0.00    +0.000 C 
ENDROOT
BRANCH   7  14
ATOM     12  O   UNL     1      -0.836  30.031  11.063  0.00  0.00    +0.000 OA
ATOM     13  N   UNL     1       0.746  30.196   9.396  0.00  0.00    +0.000 N 
ATOM     14  C   UNL     1       0.303  30.312  10.698  0.00  0.00    +0.000 C 
ATOM     15  H   UNL     1       1.726  30.078   9.173  0.00  0.00    +0.000 HD
BRANCH  13  16
ATOM     16  O   UNL     1      -0.126  29.462   8.561  0.00  0.00    +0.000 OA
BRANCH  16  17
ATOM     17  C   UNL     1       0.626  28.553   7.944  0.00  0.00    +0.000 C 
ATOM     18  C   UNL     1       1.480  27.499   7.231  0.00  0.00    +0.000 C 
BRANCH  18  19
ATOM     19  O   UNL     1       2.214  26.582   6.610  0.00  0.00    +0.000 OA
ATOM     20  H   UNL     1       3.125  26.901   6.499  0.00  0.00    +0.000 HD
ENDBRANCH  18  19
ENDBRANCH  16  17
ENDBRANCH  13  16
ENDBRANCH   7  14
BRANCH   6  21
ATOM     21  N   UNL     1       0.580  29.133  13.351  0.00  0.00    +0.000 N 
ATOM     22  H   UNL     1       0.872  28.256  12.891  0.00  0.00    +0.000 HD
BRANCH  21  25
ATOM     23 BR   UNL     1      -2.938  27.850  18.164  0.00  0.00    +0.000 Br
ATOM     24  F   UNL     1       0.611  26.661  14.575  0.00  0.00    +0.000 F 
ATOM     25  C   UNL     1      -0.217  28.883  14.488  0.00  0.00    +0.000 A 
ATOM     26  C   UNL     1      -0.203  27.606  15.074  0.00  0.00    +0.000 A 
ATOM     27  C   UNL     1      -1.093  29.827  15.027  0.00  0.00    +0.000 A 
ATOM     28  C   UNL     1      -1.003  27.286  16.167  0.00  0.00    +0.000 A 
ATOM     29  C   UNL     1      -1.902  29.527  16.122  0.00  0.00    +0.000 A 
ATOM     30  C   UNL     1      -1.849  28.257  16.684  0.00  0.00    +0.000 A 
ENDBRANCH  21  25
ENDBRANCH   6  21
TORSDOF 6
ENDMDL
MODEL 7
REMARK VINA RESULT:      -5.1     28.802     31.314
REMARK  Name = 10288191_Binimetinib.pdbqt.pdb
REMARK  6 active torsions:
REMARK  status: ('A' for Active; 'I' for Inactive)
REMARK    1  A    between atoms: C_6  and  N_21
REMARK    2  A    between atoms: C_7  and  C_14
REMARK    3  A    between atoms: N_13  and  O_16
REMARK    4  A    between atoms: O_16  and  C_17
REMARK    5  A    between atoms: C_18  and  O_19
REMARK    6  A    between atoms: N_21  and  C_25
REMARK                            x       y       z     vdW  Elec       q    Type
REMARK                         _______ _______ _______ _____ _____    ______ ____
ROOT
ATOM      1  F   UNL     1      31.285   9.030  19.522  0.00  0.00    +0.000 F 
ATOM      2  N   UNL     1      28.752   6.116  21.872  0.00  0.00    +0.000 N 
ATOM      3  N   UNL     1      30.491   6.382  20.539  0.00  0.00    +0.000 NA
ATOM      4  C   UNL     1      28.808   7.461  21.649  0.00  0.00    +0.000 A 
ATOM      5  C   UNL     1      29.911   7.608  20.813  0.00  0.00    +0.000 A 
ATOM      6  C   UNL     1      29.519  10.034  20.788  0.00  0.00    +0.000 A 
ATOM      7  C   UNL     1      28.394   9.828  21.629  0.00  0.00    +0.000 A 
ATOM      8  C   UNL     1      28.029   8.542  22.067  0.00  0.00    +0.000 A 
ATOM      9  C   UNL     1      30.262   8.901  20.381  0.00  0.00    +0.000 A 
ATOM     10  C   UNL     1      29.764   5.501  21.199  0.00  0.00    +0.000 A 
ATOM     11  C   UNL     1      27.797   5.451  22.696  0.00  0.00    +0.000 C 
ENDROOT
BRANCH   7  14
ATOM     12  O   UNL     1      28.048  11.991  22.507  0.00  0.00    +0.000 OA
ATOM     13  N   UNL     1      26.165  10.794  21.935  0.00  0.00    +0.000 N 
ATOM     14  C   UNL     1      27.528  10.971  22.064  0.00  0.00    +0.000 C 
ATOM     15  H   UNL     1      25.744   9.873  21.921  0.00  0.00    +0.000 HD
BRANCH  13  16
ATOM     16  O   UNL     1      25.398  11.767  22.612  0.00  0.00    +0.000 OA
BRANCH  16  17
ATOM     17  C   UNL     1      24.646  11.104  23.489  0.00  0.00    +0.000 C 
ATOM     18  C   UNL     1      23.774  10.337  24.489  0.00  0.00    +0.000 C 
BRANCH  18  19
ATOM     19  O   UNL     1      23.013   9.669  25.349  0.00  0.00    +0.000 OA
ATOM     20  H   UNL     1      23.568   9.230  26.016  0.00  0.00    +0.000 HD
ENDBRANCH  18  19
ENDBRANCH  16  17
ENDBRANCH  13  16
ENDBRANCH   7  14
BRANCH   6  21
ATOM     21  N   UNL     1      29.892  11.346  20.397  0.00  0.00    +0.000 N 
ATOM     22  H   UNL     1      30.736  11.689  20.882  0.00  0.00    +0.000 HD
BRANCH  21  25
ATOM     23 BR   UNL     1      28.644  14.644  15.422  0.00  0.00    +0.000 Br
ATOM     24  F   UNL     1      29.973  14.102  20.405  0.00  0.00    +0.000 F 
ATOM     25  C   UNL     1      29.637  12.076  19.218  0.00  0.00    +0.000 A 
ATOM     26  C   UNL     1      29.658  13.481  19.257  0.00  0.00    +0.000 A 
ATOM     27  C   UNL     1      29.284  11.473  18.009  0.00  0.00    +0.000 A 
ATOM     28  C   UNL     1      29.368  14.255  18.138  0.00  0.00    +0.000 A 
ATOM     29  C   UNL     1      28.991  12.232  16.876  0.00  0.00    +0.000 A 
ATOM     30  C   UNL     1      29.037  13.618  16.951  0.00  0.00    +0.000 A 
ENDBRANCH  21  25
ENDBRANCH   6  21
TORSDOF 6
ENDMDL
MODEL 8
REMARK VINA RESULT:      -5.1     29.395     30.760
REMARK  Name = 10288191_Binimetinib.pdbqt.pdb
REMARK  6 active torsions:
REMARK  status: ('A' for Active; 'I' for Inactive)
REMARK    1  A    between atoms: C_6  and  N_21
REMARK    2  A    between atoms: C_7  and  C_14
REMARK    3  A    between atoms: N_13  and  O_16
REMARK    4  A    between atoms: O_16  and  C_17
REMARK    5  A    between atoms: C_18  and  O_19
REMARK    6  A    between atoms: N_21  and  C_25
REMARK                            x       y       z     vdW  Elec       q    Type
REMARK                         _______ _______ _______ _____ _____    ______ ____
ROOT
ATOM      1  F   UNL     1      21.822  22.993   2.238  0.00  0.00    +0.000 F 
ATOM      2  N   UNL     1      17.471  21.767   2.268  0.00  0.00    +0.000 N 
ATOM      3  N   UNL     1      19.570  21.105   2.433  0.00  0.00    +0.000 NA
ATOM      4  C   UNL     1      18.201  22.915   2.158  0.00  0.00    +0.000 A 
ATOM      5  C   UNL     1      19.517  22.477   2.268  0.00  0.00    +0.000 A 
ATOM      6  C   UNL     1      20.271  24.804   2.022  0.00  0.00    +0.000 A 
ATOM      7  C   UNL     1      18.912  25.197   1.900  0.00  0.00    +0.000 A 
ATOM      8  C   UNL     1      17.866  24.257   1.967  0.00  0.00    +0.000 A 
ATOM      9  C   UNL     1      20.553  23.428   2.197  0.00  0.00    +0.000 A 
ATOM     10  C   UNL     1      18.311  20.708   2.430  0.00  0.00    +0.000 A 
ATOM     11  C   UNL     1      16.048  21.684   2.239  0.00  0.00    +0.000 C 
ENDROOT
BRANCH   7  14
ATOM     12  O   UNL     1      18.938  27.203   0.658  0.00  0.00    +0.000 OA
ATOM     13  N   UNL     1      17.735  27.219   2.623  0.00  0.00    +0.000 N 
ATOM     14  C   UNL     1      18.534  26.627   1.665  0.00  0.00    +0.000 C 
ATOM     15  H   UNL     1      17.710  26.884   3.578  0.00  0.00    +0.000 HD
BRANCH  13  16
ATOM     16  O   UNL     1      17.646  28.623   2.503  0.00  0.00    +0.000 OA
BRANCH  16  17
ATOM     17  C   UNL     1      18.212  29.127   3.597  0.00  0.00    +0.000 C 
ATOM     18  C   UNL     1      18.860  29.697   4.864  0.00  0.00    +0.000 C 
BRANCH  18  19
ATOM     19  O   UNL     1      19.421  30.183   5.966  0.00  0.00    +0.000 OA
ATOM     20  H   UNL     1      19.317  31.150   5.996  0.00  0.00    +0.000 HD
ENDBRANCH  18  19
ENDBRANCH  16  17
ENDBRANCH  13  16
ENDBRANCH   7  14
BRANCH   6  21
ATOM     21  N   UNL     1      21.304  25.776   1.998  0.00  0.00    +0.000 N 
ATOM     22  H   UNL     1      21.297  26.355   1.144  0.00  0.00    +0.000 HD
BRANCH  21  25
ATOM     23 BR   UNL     1      24.486  28.235   6.582  0.00  0.00    +0.000 Br
ATOM     24  F   UNL     1      23.829  24.894   2.671  0.00  0.00    +0.000 F 
ATOM     25  C   UNL     1      22.028  26.394   3.038  0.00  0.00    +0.000 A 
ATOM     26  C   UNL     1      23.301  25.907   3.378  0.00  0.00    +0.000 A 
ATOM     27  C   UNL     1      21.510  27.434   3.814  0.00  0.00    +0.000 A 
ATOM     28  C   UNL     1      24.042  26.445   4.425  0.00  0.00    +0.000 A 
ATOM     29  C   UNL     1      22.238  27.987   4.867  0.00  0.00    +0.000 A 
ATOM     30  C   UNL     1      23.500  27.488   5.163  0.00  0.00    +0.000 A 
ENDBRANCH  21  25
ENDBRANCH   6  21
TORSDOF 6
ENDMDL
MODEL 9
REMARK VINA RESULT:      -5.1     27.548     30.500
REMARK  Name = 10288191_Binimetinib.pdbqt.pdb
REMARK  6 active torsions:
REMARK  status: ('A' for Active; 'I' for Inactive)
REMARK    1  A    between atoms: C_6  and  N_21
REMARK    2  A    between atoms: C_7  and  C_14
REMARK    3  A    between atoms: N_13  and  O_16
REMARK    4  A    between atoms: O_16  and  C_17
REMARK    5  A    between atoms: C_18  and  O_19
REMARK    6  A    between atoms: N_21  and  C_25
REMARK                            x       y       z     vdW  Elec       q    Type
REMARK                         _______ _______ _______ _____ _____    ______ ____
ROOT
ATOM      1  F   UNL     1      28.088  28.596  23.228  0.00  0.00    +0.000 F 
ATOM      2  N   UNL     1      30.572  24.899  22.459  0.00  0.00    +0.000 N 
ATOM      3  N   UNL     1      30.580  27.055  22.930  0.00  0.00    +0.000 NA
ATOM      4  C   UNL     1      29.252  25.235  22.542  0.00  0.00    +0.000 A 
ATOM      5  C   UNL     1      29.279  26.593  22.843  0.00  0.00    +0.000 A 
ATOM      6  C   UNL     1      26.821  26.597  22.868  0.00  0.00    +0.000 A 
ATOM      7  C   UNL     1      26.849  25.214  22.545  0.00  0.00    +0.000 A 
ATOM      8  C   UNL     1      28.062  24.522  22.380  0.00  0.00    +0.000 A 
ATOM      9  C   UNL     1      28.056  27.273  23.003  0.00  0.00    +0.000 A 
ATOM     10  C   UNL     1      31.338  26.000  22.694  0.00  0.00    +0.000 A 
ATOM     11  C   UNL     1      31.079  23.594  22.189  0.00  0.00    +0.000 C 
ENDROOT
BRANCH   7  14
ATOM     12  O   UNL     1      24.749  24.845  21.532  0.00  0.00    +0.000 OA
ATOM     13  N   UNL     1      25.436  23.289  23.086  0.00  0.00    +0.000 N 
ATOM     14  C   UNL     1      25.584  24.439  22.337  0.00  0.00    +0.000 C 
ATOM     15  H   UNL     1      25.920  23.158  23.966  0.00  0.00    +0.000 HD
BRANCH  13  16
ATOM     16  O   UNL     1      24.128  22.759  23.066  0.00  0.00    +0.000 OA
BRANCH  16  17
ATOM     17  C   UNL     1      23.893  22.297  24.292  0.00  0.00    +0.000 C 
ATOM     18  C   UNL     1      23.615  21.755  25.698  0.00  0.00    +0.000 C 
BRANCH  18  19
ATOM     19  O   UNL     1      23.369  21.280  26.914  0.00  0.00    +0.000 OA
ATOM     20  H   UNL     1      22.656  20.620  26.878  0.00  0.00    +0.000 HD
ENDBRANCH  18  19
ENDBRANCH  16  17
ENDBRANCH  13  16
ENDBRANCH   7  14
BRANCH   6  21
ATOM     21  N   UNL     1      25.585  27.261  23.074  0.00  0.00    +0.000 N 
ATOM     22  H   UNL     1      24.892  27.069  22.334  0.00  0.00    +0.000 HD
BRANCH  21  25
ATOM     23 BR   UNL     1      22.723  29.295  28.060  0.00  0.00    +0.000 Br
ATOM     24  F   UNL     1      23.688  25.757  24.394  0.00  0.00    +0.000 F 
ATOM     25  C   UNL     1      24.971  27.746  24.248  0.00  0.00    +0.000 A 
ATOM     26  C   UNL     1      23.988  26.970  24.885  0.00  0.00    +0.000 A 
ATOM     27  C   UNL     1      25.237  29.010  24.780  0.00  0.00    +0.000 A 
ATOM     28  C   UNL     1      23.315  27.416  26.018  0.00  0.00    +0.000 A 
ATOM     29  C   UNL     1      24.574  29.474  25.916  0.00  0.00    +0.000 A 
ATOM     30  C   UNL     1      23.618  28.671  26.526  0.00  0.00    +0.000 A 
ENDBRANCH  21  25
ENDBRANCH   6  21
TORSDOF 6
ENDMDL
