MODEL 1
REMARK VINA RESULT:      -6.1      0.000      0.000
REMARK  Name = 10639_Physcion.pdbqt.pdb
REMARK  3 active torsions:
REMARK  status: ('A' for Active; 'I' for Inactive)
REMARK    1  A    between atoms: C_10  and  O_18
REMARK    2  A    between atoms: C_12  and  O_20
REMARK    3  A    between atoms: C_15  and  O_22
REMARK                            x       y       z     vdW  Elec       q    Type
REMARK                         _______ _______ _______ _____ _____    ______ ____
ROOT
ATOM      1  O   UNL     1      -1.452  26.691  17.512  0.00  0.00    +0.000 OA
ATOM      2  O   UNL     1      -0.800  26.155  12.251  0.00  0.00    +0.000 OA
ATOM      3  C   UNL     1      -1.725  25.315  14.227  0.00  0.00    +0.000 A 
ATOM      4  C   UNL     1      -1.890  25.463  15.602  0.00  0.00    +0.000 A 
ATOM      5  C   UNL     1      -0.478  27.603  15.533  0.00  0.00    +0.000 A 
ATOM      6  C   UNL     1      -0.329  27.429  14.156  0.00  0.00    +0.000 A 
ATOM      7  C   UNL     1      -1.273  26.611  16.302  0.00  0.00    +0.000 C 
ATOM      8  C   UNL     1      -0.942  26.289  13.459  0.00  0.00    +0.000 C 
ATOM      9  C   UNL     1      -2.301  24.238  13.550  0.00  0.00    +0.000 A 
ATOM     10  C   UNL     1      -2.646  24.509  16.297  0.00  0.00    +0.000 A 
ATOM     11  C   UNL     1      -3.048  23.300  14.254  0.00  0.00    +0.000 A 
ATOM     12  C   UNL     1       0.134  28.712  16.130  0.00  0.00    +0.000 A 
ATOM     13  C   UNL     1       0.410  28.337  13.390  0.00  0.00    +0.000 A 
ATOM     14  C   UNL     1      -3.225  23.430  15.627  0.00  0.00    +0.000 A 
ATOM     15  C   UNL     1       1.015  29.437  13.991  0.00  0.00    +0.000 A 
ATOM     16  C   UNL     1       0.872  29.618  15.365  0.00  0.00    +0.000 A 
ATOM     17  C   UNL     1      -3.665  22.144  13.525  0.00  0.00    +0.000 C 
ENDROOT
BRANCH  10  18
ATOM     18  O   UNL     1      -2.864  24.569  17.647  0.00  0.00    +0.000 OA
ATOM     19  H   UNL     1      -3.673  25.107  17.816  0.00  0.00    +0.000 HD
ENDBRANCH  10  18
BRANCH  12  20
ATOM     20  O   UNL     1       0.033  28.948  17.471  0.00  0.00    +0.000 OA
ATOM     21  H   UNL     1       0.839  28.642  17.924  0.00  0.00    +0.000 HD
ENDBRANCH  12  20
BRANCH  15  22
ATOM     22  O   UNL     1       1.718  30.267  13.154  0.00  0.00    +0.000 OA
ATOM     23  C   UNL     1       1.503  30.051  11.785  0.00  0.00    +0.000 C 
ENDBRANCH  15  22
TORSDOF 3
ENDMDL
MODEL 2
REMARK VINA RESULT:      -6.1     21.861     22.910
REMARK  Name = 10639_Physcion.pdbqt.pdb
REMARK  3 active torsions:
REMARK  status: ('A' for Active; 'I' for Inactive)
REMARK    1  A    between atoms: C_10  and  O_18
REMARK    2  A    between atoms: C_12  and  O_20
REMARK    3  A    between atoms: C_15  and  O_22
REMARK                            x       y       z     vdW  Elec       q    Type
REMARK                         _______ _______ _______ _____ _____    ______ ____
ROOT
ATOM      1  O   UNL     1      13.583  13.924  30.732  0.00  0.00    +0.000 OA
ATOM      2  O   UNL     1       9.368  17.079  29.919  0.00  0.00    +0.000 OA
ATOM      3  C   UNL     1      10.174  14.944  30.424  0.00  0.00    +0.000 A 
ATOM      4  C   UNL     1      11.282  14.126  30.635  0.00  0.00    +0.000 A 
ATOM      5  C   UNL     1      12.829  16.127  30.212  0.00  0.00    +0.000 A 
ATOM      6  C   UNL     1      11.701  16.923  30.006  0.00  0.00    +0.000 A 
ATOM      7  C   UNL     1      12.646  14.689  30.536  0.00  0.00    +0.000 C 
ATOM      8  C   UNL     1      10.344  16.365  30.104  0.00  0.00    +0.000 C 
ATOM      9  C   UNL     1       8.879  14.429  30.513  0.00  0.00    +0.000 A 
ATOM     10  C   UNL     1      11.073  12.774  30.939  0.00  0.00    +0.000 A 
ATOM     11  C   UNL     1       8.689  13.085  30.815  0.00  0.00    +0.000 A 
ATOM     12  C   UNL     1      14.090  16.727  30.103  0.00  0.00    +0.000 A 
ATOM     13  C   UNL     1      11.823  18.282  29.699  0.00  0.00    +0.000 A 
ATOM     14  C   UNL     1       9.782  12.252  31.029  0.00  0.00    +0.000 A 
ATOM     15  C   UNL     1      13.080  18.871  29.592  0.00  0.00    +0.000 A 
ATOM     16  C   UNL     1      14.211  18.084  29.796  0.00  0.00    +0.000 A 
ATOM     17  C   UNL     1       7.297  12.535  30.910  0.00  0.00    +0.000 C 
ENDROOT
BRANCH  10  18
ATOM     18  O   UNL     1      12.097  11.893  31.162  0.00  0.00    +0.000 OA
ATOM     19  H   UNL     1      12.884  12.393  31.485  0.00  0.00    +0.000 HD
ENDBRANCH  10  18
BRANCH  12  20
ATOM     20  O   UNL     1      15.238  16.013  30.291  0.00  0.00    +0.000 OA
ATOM     21  H   UNL     1      15.736  15.956  29.456  0.00  0.00    +0.000 HD
ENDBRANCH  12  20
BRANCH  15  22
ATOM     22  O   UNL     1      13.092  20.209  29.287  0.00  0.00    +0.000 OA
ATOM     23  C   UNL     1      13.315  21.063  30.376  0.00  0.00    +0.000 C 
ENDBRANCH  15  22
TORSDOF 3
ENDMDL
MODEL 3
REMARK VINA RESULT:      -6.0      1.183      5.812
REMARK  Name = 10639_Physcion.pdbqt.pdb
REMARK  3 active torsions:
REMARK  status: ('A' for Active; 'I' for Inactive)
REMARK    1  A    between atoms: C_10  and  O_18
REMARK    2  A    between atoms: C_12  and  O_20
REMARK    3  A    between atoms: C_15  and  O_22
REMARK                            x       y       z     vdW  Elec       q    Type
REMARK                         _______ _______ _______ _____ _____    ______ ____
ROOT
ATOM      1  O   UNL     1      -1.550  26.928  17.620  0.00  0.00    +0.000 OA
ATOM      2  O   UNL     1      -0.797  25.972  12.433  0.00  0.00    +0.000 OA
ATOM      3  C   UNL     1      -0.379  27.353  14.272  0.00  0.00    +0.000 A 
ATOM      4  C   UNL     1      -0.582  27.595  15.628  0.00  0.00    +0.000 A 
ATOM      5  C   UNL     1      -2.017  25.476  15.785  0.00  0.00    +0.000 A 
ATOM      6  C   UNL     1      -1.798  25.258  14.424  0.00  0.00    +0.000 A 
ATOM      7  C   UNL     1      -1.406  26.666  16.431  0.00  0.00    +0.000 C 
ATOM      8  C   UNL     1      -0.978  26.181  13.624  0.00  0.00    +0.000 C 
ATOM      9  C   UNL     1       0.397  28.220  13.500  0.00  0.00    +0.000 A 
ATOM     10  C   UNL     1       0.009  28.727  16.207  0.00  0.00    +0.000 A 
ATOM     11  C   UNL     1       0.976  29.338  14.088  0.00  0.00    +0.000 A 
ATOM     12  C   UNL     1      -2.809  24.555  16.483  0.00  0.00    +0.000 A 
ATOM     13  C   UNL     1      -2.352  24.151  13.772  0.00  0.00    +0.000 A 
ATOM     14  C   UNL     1       0.786  29.597  15.441  0.00  0.00    +0.000 A 
ATOM     15  C   UNL     1      -3.138  23.241  14.472  0.00  0.00    +0.000 A 
ATOM     16  C   UNL     1      -3.362  23.451  15.831  0.00  0.00    +0.000 A 
ATOM     17  C   UNL     1       1.809  30.267  13.256  0.00  0.00    +0.000 C 
ENDROOT
BRANCH  10  18
ATOM     18  O   UNL     1      -0.132  29.049  17.530  0.00  0.00    +0.000 OA
ATOM     19  H   UNL     1       0.294  28.347  18.076  0.00  0.00    +0.000 HD
ENDBRANCH  10  18
BRANCH  12  20
ATOM     20  O   UNL     1      -3.068  24.702  17.815  0.00  0.00    +0.000 OA
ATOM     21  H   UNL     1      -3.088  23.830  18.248  0.00  0.00    +0.000 HD
ENDBRANCH  12  20
BRANCH  15  22
ATOM     22  O   UNL     1      -3.634  22.190  13.742  0.00  0.00    +0.000 OA
ATOM     23  C   UNL     1      -4.262  21.189  14.495  0.00  0.00    +0.000 C 
ENDBRANCH  15  22
TORSDOF 3
ENDMDL
MODEL 4
REMARK VINA RESULT:      -5.9     26.649     27.864
REMARK  Name = 10639_Physcion.pdbqt.pdb
REMARK  3 active torsions:
REMARK  status: ('A' for Active; 'I' for Inactive)
REMARK    1  A    between atoms: C_10  and  O_18
REMARK    2  A    between atoms: C_12  and  O_20
REMARK    3  A    between atoms: C_15  and  O_22
REMARK                            x       y       z     vdW  Elec       q    Type
REMARK                         _______ _______ _______ _____ _____    ______ ____
ROOT
ATOM      1  O   UNL     1      23.457  22.038  23.135  0.00  0.00    +0.000 OA
ATOM      2  O   UNL     1      24.285  21.354  28.353  0.00  0.00    +0.000 OA
ATOM      3  C   UNL     1      23.518  20.456  26.336  0.00  0.00    +0.000 A 
ATOM      4  C   UNL     1      23.305  20.643  24.973  0.00  0.00    +0.000 A 
ATOM      5  C   UNL     1      24.255  23.018  25.159  0.00  0.00    +0.000 A 
ATOM      6  C   UNL     1      24.458  22.802  26.523  0.00  0.00    +0.000 A 
ATOM      7  C   UNL     1      23.665  21.929  24.338  0.00  0.00    +0.000 C 
ATOM      8  C   UNL     1      24.100  21.524  27.156  0.00  0.00    +0.000 C 
ATOM      9  C   UNL     1      23.183  19.248  26.952  0.00  0.00    +0.000 A 
ATOM     10  C   UNL     1      22.746  19.595  24.228  0.00  0.00    +0.000 A 
ATOM     11  C   UNL     1      22.630  18.218  26.199  0.00  0.00    +0.000 A 
ATOM     12  C   UNL     1      24.620  24.260  24.624  0.00  0.00    +0.000 A 
ATOM     13  C   UNL     1      25.010  23.797  27.337  0.00  0.00    +0.000 A 
ATOM     14  C   UNL     1      22.410  18.386  24.836  0.00  0.00    +0.000 A 
ATOM     15  C   UNL     1      25.370  25.028  26.798  0.00  0.00    +0.000 A 
ATOM     16  C   UNL     1      25.171  25.252  25.438  0.00  0.00    +0.000 A 
ATOM     17  C   UNL     1      22.272  16.922  26.863  0.00  0.00    +0.000 C 
ENDROOT
BRANCH  10  18
ATOM     18  O   UNL     1      22.499  19.684  22.884  0.00  0.00    +0.000 OA
ATOM     19  H   UNL     1      21.807  20.370  22.732  0.00  0.00    +0.000 HD
ENDBRANCH  10  18
BRANCH  12  20
ATOM     20  O   UNL     1      24.452  24.544  23.300  0.00  0.00    +0.000 OA
ATOM     21  H   UNL     1      23.930  23.841  22.872  0.00  0.00    +0.000 HD
ENDBRANCH  12  20
BRANCH  15  22
ATOM     22  O   UNL     1      25.903  25.936  27.679  0.00  0.00    +0.000 OA
ATOM     23  C   UNL     1      26.852  26.809  27.130  0.00  0.00    +0.000 C 
ENDBRANCH  15  22
TORSDOF 3
ENDMDL
MODEL 5
REMARK VINA RESULT:      -5.9      2.884      4.438
REMARK  Name = 10639_Physcion.pdbqt.pdb
REMARK  3 active torsions:
REMARK  status: ('A' for Active; 'I' for Inactive)
REMARK    1  A    between atoms: C_10  and  O_18
REMARK    2  A    between atoms: C_12  and  O_20
REMARK    3  A    between atoms: C_15  and  O_22
REMARK                            x       y       z     vdW  Elec       q    Type
REMARK                         _______ _______ _______ _____ _____    ______ ____
ROOT
ATOM      1  O   UNL     1      -1.973  25.337  16.970  0.00  0.00    +0.000 OA
ATOM      2  O   UNL     1      -2.197  30.655  16.737  0.00  0.00    +0.000 OA
ATOM      3  C   UNL     1      -2.971  28.682  17.724  0.00  0.00    +0.000 A 
ATOM      4  C   UNL     1      -2.906  27.292  17.778  0.00  0.00    +0.000 A 
ATOM      5  C   UNL     1      -1.140  27.311  15.919  0.00  0.00    +0.000 A 
ATOM      6  C   UNL     1      -1.226  28.703  15.887  0.00  0.00    +0.000 A 
ATOM      7  C   UNL     1      -1.990  26.559  16.879  0.00  0.00    +0.000 C 
ATOM      8  C   UNL     1      -2.137  29.434  16.781  0.00  0.00    +0.000 C 
ATOM      9  C   UNL     1      -3.831  29.391  18.567  0.00  0.00    +0.000 A 
ATOM     10  C   UNL     1      -3.722  26.615  18.696  0.00  0.00    +0.000 A 
ATOM     11  C   UNL     1      -4.633  28.704  19.471  0.00  0.00    +0.000 A 
ATOM     12  C   UNL     1      -0.250  26.682  15.039  0.00  0.00    +0.000 A 
ATOM     13  C   UNL     1      -0.446  29.454  15.001  0.00  0.00    +0.000 A 
ATOM     14  C   UNL     1      -4.583  27.316  19.540  0.00  0.00    +0.000 A 
ATOM     15  C   UNL     1       0.436  28.822  14.129  0.00  0.00    +0.000 A 
ATOM     16  C   UNL     1       0.528  27.432  14.155  0.00  0.00    +0.000 A 
ATOM     17  C   UNL     1      -5.556  29.467  20.374  0.00  0.00    +0.000 C 
ENDROOT
BRANCH  10  18
ATOM     18  O   UNL     1      -3.728  25.251  18.823  0.00  0.00    +0.000 OA
ATOM     19  H   UNL     1      -2.927  24.974  19.327  0.00  0.00    +0.000 HD
ENDBRANCH  10  18
BRANCH  12  20
ATOM     20  O   UNL     1      -0.112  25.324  15.013  0.00  0.00    +0.000 OA
ATOM     21  H   UNL     1      -0.086  25.010  14.091  0.00  0.00    +0.000 HD
ENDBRANCH  12  20
BRANCH  15  22
ATOM     22  O   UNL     1       1.155  29.646  13.300  0.00  0.00    +0.000 OA
ATOM     23  C   UNL     1       1.682  30.791  13.914  0.00  0.00    +0.000 C 
ENDBRANCH  15  22
TORSDOF 3
ENDMDL
MODEL 6
REMARK VINA RESULT:      -5.8     30.668     31.211
REMARK  Name = 10639_Physcion.pdbqt.pdb
REMARK  3 active torsions:
REMARK  status: ('A' for Active; 'I' for Inactive)
REMARK    1  A    between atoms: C_10  and  O_18
REMARK    2  A    between atoms: C_12  and  O_20
REMARK    3  A    between atoms: C_15  and  O_22
REMARK                            x       y       z     vdW  Elec       q    Type
REMARK                         _______ _______ _______ _____ _____    ______ ____
ROOT
ATOM      1  O   UNL     1      23.420  10.127  24.613  0.00  0.00    +0.000 OA
ATOM      2  O   UNL     1      26.102  14.729  24.691  0.00  0.00    +0.000 OA
ATOM      3  C   UNL     1      25.939  12.546  23.870  0.00  0.00    +0.000 A 
ATOM      4  C   UNL     1      25.232  11.347  23.856  0.00  0.00    +0.000 A 
ATOM      5  C   UNL     1      23.525  12.343  25.490  0.00  0.00    +0.000 A 
ATOM      6  C   UNL     1      24.254  13.533  25.485  0.00  0.00    +0.000 A 
ATOM      7  C   UNL     1      24.002  11.204  24.664  0.00  0.00    +0.000 C 
ATOM      8  C   UNL     1      25.477  13.678  24.682  0.00  0.00    +0.000 C 
ATOM      9  C   UNL     1      27.103  12.699  23.113  0.00  0.00    +0.000 A 
ATOM     10  C   UNL     1      25.710  10.292  23.066  0.00  0.00    +0.000 A 
ATOM     11  C   UNL     1      27.564  11.643  22.335  0.00  0.00    +0.000 A 
ATOM     12  C   UNL     1      22.370  12.278  26.279  0.00  0.00    +0.000 A 
ATOM     13  C   UNL     1      23.844  14.634  26.246  0.00  0.00    +0.000 A 
ATOM     14  C   UNL     1      26.872  10.437  22.307  0.00  0.00    +0.000 A 
ATOM     15  C   UNL     1      22.695  14.561  27.027  0.00  0.00    +0.000 A 
ATOM     16  C   UNL     1      21.962  13.377  27.038  0.00  0.00    +0.000 A 
ATOM     17  C   UNL     1      28.813  11.809  21.523  0.00  0.00    +0.000 C 
ENDROOT
BRANCH  10  18
ATOM     18  O   UNL     1      25.085   9.076  22.987  0.00  0.00    +0.000 OA
ATOM     19  H   UNL     1      24.321   9.070  23.611  0.00  0.00    +0.000 HD
ENDBRANCH  10  18
BRANCH  12  20
ATOM     20  O   UNL     1      21.606  11.148  26.334  0.00  0.00    +0.000 OA
ATOM     21  H   UNL     1      20.734  11.354  26.715  0.00  0.00    +0.000 HD
ENDBRANCH  12  20
BRANCH  15  22
ATOM     22  O   UNL     1      22.379  15.693  27.736  0.00  0.00    +0.000 OA
ATOM     23  C   UNL     1      22.667  16.901  27.086  0.00  0.00    +0.000 C 
ENDBRANCH  15  22
TORSDOF 3
ENDMDL
MODEL 7
REMARK VINA RESULT:      -5.7     31.605     32.332
REMARK  Name = 10639_Physcion.pdbqt.pdb
REMARK  3 active torsions:
REMARK  status: ('A' for Active; 'I' for Inactive)
REMARK    1  A    between atoms: C_10  and  O_18
REMARK    2  A    between atoms: C_12  and  O_20
REMARK    3  A    between atoms: C_15  and  O_22
REMARK                            x       y       z     vdW  Elec       q    Type
REMARK                         _______ _______ _______ _____ _____    ______ ____
ROOT
ATOM      1  O   UNL     1      27.911  14.494  14.227  0.00  0.00    +0.000 OA
ATOM      2  O   UNL     1      30.297  15.675  18.841  0.00  0.00    +0.000 OA
ATOM      3  C   UNL     1      29.348  14.042  17.465  0.00  0.00    +0.000 A 
ATOM      4  C   UNL     1      28.724  13.742  16.256  0.00  0.00    +0.000 A 
ATOM      5  C   UNL     1      28.864  16.212  15.581  0.00  0.00    +0.000 A 
ATOM      6  C   UNL     1      29.487  16.483  16.800  0.00  0.00    +0.000 A 
ATOM      7  C   UNL     1      28.461  14.815  15.274  0.00  0.00    +0.000 C 
ATOM      8  C   UNL     1      29.749  15.417  17.778  0.00  0.00    +0.000 C 
ATOM      9  C   UNL     1      29.604  13.040  18.404  0.00  0.00    +0.000 A 
ATOM     10  C   UNL     1      28.357  12.414  15.998  0.00  0.00    +0.000 A 
ATOM     11  C   UNL     1      29.234  11.728  18.133  0.00  0.00    +0.000 A 
ATOM     12  C   UNL     1      28.646  17.277  14.698  0.00  0.00    +0.000 A 
ATOM     13  C   UNL     1      29.884  17.783  17.134  0.00  0.00    +0.000 A 
ATOM     14  C   UNL     1      28.610  11.408  16.932  0.00  0.00    +0.000 A 
ATOM     15  C   UNL     1      29.664  18.836  16.251  0.00  0.00    +0.000 A 
ATOM     16  C   UNL     1      29.043  18.573  15.032  0.00  0.00    +0.000 A 
ATOM     17  C   UNL     1      29.510  10.655  19.144  0.00  0.00    +0.000 C 
ENDROOT
BRANCH  10  18
ATOM     18  O   UNL     1      27.741  12.021  14.841  0.00  0.00    +0.000 OA
ATOM     19  H   UNL     1      27.865  12.724  14.159  0.00  0.00    +0.000 HD
ENDBRANCH  10  18
BRANCH  12  20
ATOM     20  O   UNL     1      28.042  17.089  13.488  0.00  0.00    +0.000 OA
ATOM     21  H   UNL     1      27.187  16.638  13.609  0.00  0.00    +0.000 HD
ENDBRANCH  12  20
BRANCH  15  22
ATOM     22  O   UNL     1      30.090  20.070  16.672  0.00  0.00    +0.000 OA
ATOM     23  C   UNL     1      29.379  21.156  16.141  0.00  0.00    +0.000 C 
ENDBRANCH  15  22
TORSDOF 3
ENDMDL
MODEL 8
REMARK VINA RESULT:      -5.7     16.711     18.339
REMARK  Name = 10639_Physcion.pdbqt.pdb
REMARK  3 active torsions:
REMARK  status: ('A' for Active; 'I' for Inactive)
REMARK    1  A    between atoms: C_10  and  O_18
REMARK    2  A    between atoms: C_12  and  O_20
REMARK    3  A    between atoms: C_15  and  O_22
REMARK                            x       y       z     vdW  Elec       q    Type
REMARK                         _______ _______ _______ _____ _____    ______ ____
ROOT
ATOM      1  O   UNL     1       7.693  23.729  28.086  0.00  0.00    +0.000 OA
ATOM      2  O   UNL     1      11.522  26.300  30.752  0.00  0.00    +0.000 OA
ATOM      3  C   UNL     1      10.033  24.500  30.671  0.00  0.00    +0.000 A 
ATOM      4  C   UNL     1       9.033  23.834  29.967  0.00  0.00    +0.000 A 
ATOM      5  C   UNL     1       9.187  25.589  28.104  0.00  0.00    +0.000 A 
ATOM      6  C   UNL     1      10.187  26.236  28.831  0.00  0.00    +0.000 A 
ATOM      7  C   UNL     1       8.575  24.355  28.661  0.00  0.00    +0.000 C 
ATOM      8  C   UNL     1      10.643  25.719  30.130  0.00  0.00    +0.000 C 
ATOM      9  C   UNL     1      10.477  24.022  31.906  0.00  0.00    +0.000 A 
ATOM     10  C   UNL     1       8.477  22.673  30.522  0.00  0.00    +0.000 A 
ATOM     11  C   UNL     1       9.916  22.868  32.443  0.00  0.00    +0.000 A 
ATOM     12  C   UNL     1       8.802  26.138  26.874  0.00  0.00    +0.000 A 
ATOM     13  C   UNL     1      10.792  27.401  28.347  0.00  0.00    +0.000 A 
ATOM     14  C   UNL     1       8.916  22.189  31.755  0.00  0.00    +0.000 A 
ATOM     15  C   UNL     1      10.406  27.940  27.124  0.00  0.00    +0.000 A 
ATOM     16  C   UNL     1       9.407  27.301  26.392  0.00  0.00    +0.000 A 
ATOM     17  C   UNL     1      10.395  22.358  33.769  0.00  0.00    +0.000 C 
ENDROOT
BRANCH  10  18
ATOM     18  O   UNL     1       7.491  21.950  29.907  0.00  0.00    +0.000 OA
ATOM     19  H   UNL     1       6.695  22.523  29.800  0.00  0.00    +0.000 HD
ENDBRANCH  10  18
BRANCH  12  20
ATOM     20  O   UNL     1       7.831  25.562  26.107  0.00  0.00    +0.000 OA
ATOM     21  H   UNL     1       7.070  26.165  26.026  0.00  0.00    +0.000 HD
ENDBRANCH  12  20
BRANCH  15  22
ATOM     22  O   UNL     1      11.059  29.084  26.739  0.00  0.00    +0.000 OA
ATOM     23  C   UNL     1      11.411  29.948  27.785  0.00  0.00    +0.000 C 
ENDBRANCH  15  22
TORSDOF 3
ENDMDL
MODEL 9
REMARK VINA RESULT:      -5.5     31.842     32.933
REMARK  Name = 10639_Physcion.pdbqt.pdb
REMARK  3 active torsions:
REMARK  status: ('A' for Active; 'I' for Inactive)
REMARK    1  A    between atoms: C_10  and  O_18
REMARK    2  A    between atoms: C_12  and  O_20
REMARK    3  A    between atoms: C_15  and  O_22
REMARK                            x       y       z     vdW  Elec       q    Type
REMARK                         _______ _______ _______ _____ _____    ______ ____
ROOT
ATOM      1  O   UNL     1      27.887  14.642  14.187  0.00  0.00    +0.000 OA
ATOM      2  O   UNL     1      30.353  15.620  18.806  0.00  0.00    +0.000 OA
ATOM      3  C   UNL     1      29.521  16.461  16.790  0.00  0.00    +0.000 A 
ATOM      4  C   UNL     1      28.876  16.195  15.585  0.00  0.00    +0.000 A 
ATOM      5  C   UNL     1      28.715  13.718  16.225  0.00  0.00    +0.000 A 
ATOM      6  C   UNL     1      29.363  14.012  17.425  0.00  0.00    +0.000 A 
ATOM      7  C   UNL     1      28.451  14.817  15.261  0.00  0.00    +0.000 C 
ATOM      8  C   UNL     1      29.786  15.383  17.749  0.00  0.00    +0.000 C 
ATOM      9  C   UNL     1      29.929  17.757  17.112  0.00  0.00    +0.000 A 
ATOM     10  C   UNL     1      28.643  17.256  14.698  0.00  0.00    +0.000 A 
ATOM     11  C   UNL     1      29.690  18.798  16.222  0.00  0.00    +0.000 A 
ATOM     12  C   UNL     1      28.340  12.389  15.983  0.00  0.00    +0.000 A 
ATOM     13  C   UNL     1      29.633  13.011  18.364  0.00  0.00    +0.000 A 
ATOM     14  C   UNL     1      29.047  18.553  15.013  0.00  0.00    +0.000 A 
ATOM     15  C   UNL     1      29.258  11.694  18.117  0.00  0.00    +0.000 A 
ATOM     16  C   UNL     1      28.611  11.391  16.921  0.00  0.00    +0.000 A 
ATOM     17  C   UNL     1      30.129  20.188  16.570  0.00  0.00    +0.000 C 
ENDROOT
BRANCH  10  18
ATOM     18  O   UNL     1      28.017  17.095  13.491  0.00  0.00    +0.000 OA
ATOM     19  H   UNL     1      27.670  17.969  13.193  0.00  0.00    +0.000 HD
ENDBRANCH  10  18
BRANCH  12  20
ATOM     20  O   UNL     1      27.703  12.025  14.833  0.00  0.00    +0.000 OA
ATOM     21  H   UNL     1      26.951  12.621  14.666  0.00  0.00    +0.000 HD
ENDBRANCH  12  20
BRANCH  15  22
ATOM     22  O   UNL     1      29.568  10.787  19.100  0.00  0.00    +0.000 OA
ATOM     23  C   UNL     1      28.479  10.063  19.604  0.00  0.00    +0.000 C 
ENDBRANCH  15  22
TORSDOF 3
ENDMDL
