MODEL 1
REMARK VINA RESULT:      -6.8      0.000      0.000
REMARK  Name = 10940649_MilnamideD.pdbqt.pdb
REMARK  7 active torsions:
REMARK  status: ('A' for Active; 'I' for Inactive)
REMARK    1  A    between atoms: C_3  and  C_8
REMARK    2  A    between atoms: C_22  and  C_25
REMARK    3  A    between atoms: C_22  and  C_38
REMARK    4  A    between atoms: N_24  and  C_27
REMARK    5  A    between atoms: C_27  and  C_28
REMARK    6  A    between atoms: C_32  and  C_35
REMARK    7  A    between atoms: C_35  and  O_36
REMARK                            x       y       z     vdW  Elec       q    Type
REMARK                         _______ _______ _______ _____ _____    ______ ____
ROOT
ATOM      1  O   UNL     1      12.209  11.161  32.313  0.00  0.00    +0.000 OA
ATOM      2  N   UNL     1      10.443  11.033  30.891  0.00  0.00    +0.000 N 
ATOM      3  C   UNL     1      11.485  11.713  31.492  0.00  0.00    +0.000 C 
ATOM      4  H   UNL     1       9.799  11.558  30.289  0.00  0.00    +0.000 HD
ATOM      5  C   UNL     1      10.138   9.665  31.096  0.00  0.00    +0.000 C 
ENDROOT
BRANCH   3   9
ATOM      6  N   UNL     1      13.009  13.641  30.726  0.00  0.00    +0.000 NA
ATOM      7  N   UNL     1      11.794  17.316  30.089  0.00  0.00    +0.000 N 
ATOM      8  C   UNL     1      10.451  14.074  31.360  0.00  0.00    +0.000 C 
ATOM      9  C   UNL     1      11.670  13.143  31.086  0.00  0.00    +0.000 C 
ATOM     10  C   UNL     1      10.660  15.546  30.885  0.00  0.00    +0.000 A 
ATOM     11  C   UNL     1      11.875  16.008  30.420  0.00  0.00    +0.000 A 
ATOM     12  C   UNL     1      10.220  14.202  32.895  0.00  0.00    +0.000 C 
ATOM     13  C   UNL     1       9.219  13.571  30.554  0.00  0.00    +0.000 C 
ATOM     14  C   UNL     1       9.783  16.688  30.838  0.00  0.00    +0.000 A 
ATOM     15  C   UNL     1      12.881  15.037  30.400  0.00  0.00    +0.000 C 
ATOM     16  C   UNL     1      10.521  17.777  30.332  0.00  0.00    +0.000 A 
ATOM     17  C   UNL     1      13.520  12.964  29.545  0.00  0.00    +0.000 C 
ATOM     18  C   UNL     1       8.433  16.895  31.183  0.00  0.00    +0.000 A 
ATOM     19  C   UNL     1      12.878  18.087  29.585  0.00  0.00    +0.000 C 
ATOM     20  C   UNL     1       9.953  19.049  30.160  0.00  0.00    +0.000 A 
ATOM     21  C   UNL     1       7.863  18.158  31.015  0.00  0.00    +0.000 A 
ATOM     22  C   UNL     1       8.612  19.213  30.510  0.00  0.00    +0.000 A 
ENDBRANCH   3   9
BRANCH   5  25
ATOM     23  O   UNL     1      11.996   8.271  31.255  0.00  0.00    +0.000 OA
ATOM     24  N   UNL     1      10.827   8.739  33.254  0.00  0.00    +0.000 N 
ATOM     25  C   UNL     1      11.069   8.800  31.861  0.00  0.00    +0.000 C 
ATOM     26  C   UNL     1       9.676   9.356  33.923  0.00  0.00    +0.000 C 
BRANCH  24  27
ATOM     27  C   UNL     1      11.729   8.075  34.105  0.00  0.00    +0.000 C 
ATOM     28  C   UNL     1      12.882   8.748  34.638  0.00  0.00    +0.000 C 
ATOM     29  C   UNL     1      13.928   9.350  35.123  0.00  0.00    +0.000 C 
ATOM     30  C   UNL     1      13.908   9.584  36.619  0.00  0.00    +0.000 C 
BRANCH  27  31
ATOM     31  C   UNL     1      11.526   6.690  34.504  0.00  0.00    +0.000 C 
ATOM     32  C   UNL     1      11.596   6.293  35.965  0.00  0.00    +0.000 C 
ATOM     33  C   UNL     1      10.671   5.782  33.639  0.00  0.00    +0.000 C 
ENDBRANCH  27  31
BRANCH  29  35
ATOM     34  O   UNL     1      15.241  10.890  33.810  0.00  0.00    +0.000 OA
ATOM     35  C   UNL     1      15.038   9.755  34.218  0.00  0.00    +0.000 C 
BRANCH  35  36
ATOM     36  O   UNL     1      15.854   8.747  33.845  0.00  0.00    +0.000 OA
ATOM     37  H   UNL     1      16.584   8.752  34.498  0.00  0.00    +0.000 HD
ENDBRANCH  35  36
ENDBRANCH  29  35
ENDBRANCH  24  27
ENDBRANCH   5  25
BRANCH   5  38
ATOM     38  C   UNL     1       9.033   8.923  30.360  0.00  0.00    +0.000 C 
ATOM     39  C   UNL     1       7.905   9.966  30.076  0.00  0.00    +0.000 C 
ATOM     40  C   UNL     1       9.608   8.443  28.997  0.00  0.00    +0.000 C 
ATOM     41  C   UNL     1       8.439   7.741  31.164  0.00  0.00    +0.000 C 
ENDBRANCH   5  38
TORSDOF 7
ENDMDL
MODEL 2
REMARK VINA RESULT:      -6.4      9.135     14.016
REMARK  Name = 10940649_MilnamideD.pdbqt.pdb
REMARK  7 active torsions:
REMARK  status: ('A' for Active; 'I' for Inactive)
REMARK    1  A    between atoms: C_3  and  C_8
REMARK    2  A    between atoms: C_22  and  C_25
REMARK    3  A    between atoms: C_22  and  C_38
REMARK    4  A    between atoms: N_24  and  C_27
REMARK    5  A    between atoms: C_27  and  C_28
REMARK    6  A    between atoms: C_32  and  C_35
REMARK    7  A    between atoms: C_35  and  O_36
REMARK                            x       y       z     vdW  Elec       q    Type
REMARK                         _______ _______ _______ _____ _____    ______ ____
ROOT
ATOM      1  O   UNL     1      10.159  24.395  29.225  0.00  0.00    +0.000 OA
ATOM      2  N   UNL     1       8.179  25.404  29.693  0.00  0.00    +0.000 N 
ATOM      3  C   UNL     1       9.489  25.421  29.254  0.00  0.00    +0.000 C 
ATOM      4  H   UNL     1       7.687  26.299  29.799  0.00  0.00    +0.000 HD
ATOM      5  C   UNL     1       7.468  24.245  30.087  0.00  0.00    +0.000 C 
ENDROOT
BRANCH   3   9
ATOM      6  N   UNL     1      10.229  27.039  27.394  0.00  0.00    +0.000 NA
ATOM      7  N   UNL     1      11.699  30.622  28.017  0.00  0.00    +0.000 N 
ATOM      8  C   UNL     1      10.618  27.629  29.968  0.00  0.00    +0.000 C 
ATOM      9  C   UNL     1      10.031  26.751  28.824  0.00  0.00    +0.000 C 
ATOM     10  C   UNL     1      11.133  29.025  29.493  0.00  0.00    +0.000 A 
ATOM     11  C   UNL     1      11.208  29.371  28.159  0.00  0.00    +0.000 A 
ATOM     12  C   UNL     1      11.884  26.943  30.564  0.00  0.00    +0.000 C 
ATOM     13  C   UNL     1       9.503  27.953  31.004  0.00  0.00    +0.000 C 
ATOM     14  C   UNL     1      11.638  30.171  30.206  0.00  0.00    +0.000 A 
ATOM     15  C   UNL     1      10.769  28.369  27.288  0.00  0.00    +0.000 C 
ATOM     16  C   UNL     1      11.980  31.153  29.254  0.00  0.00    +0.000 A 
ATOM     17  C   UNL     1       8.965  27.025  26.675  0.00  0.00    +0.000 C 
ATOM     18  C   UNL     1      11.839  30.460  31.570  0.00  0.00    +0.000 A 
ATOM     19  C   UNL     1      11.907  31.268  26.766  0.00  0.00    +0.000 C 
ATOM     20  C   UNL     1      12.506  32.400  29.625  0.00  0.00    +0.000 A 
ATOM     21  C   UNL     1      12.362  31.698  31.944  0.00  0.00    +0.000 A 
ATOM     22  C   UNL     1      12.687  32.650  30.986  0.00  0.00    +0.000 A 
ENDBRANCH   3   9
BRANCH   5  25
ATOM     23  O   UNL     1       7.951  22.398  28.755  0.00  0.00    +0.000 OA
ATOM     24  N   UNL     1       8.757  22.363  30.976  0.00  0.00    +0.000 N 
ATOM     25  C   UNL     1       8.055  22.901  29.870  0.00  0.00    +0.000 C 
ATOM     26  C   UNL     1       8.815  22.987  32.303  0.00  0.00    +0.000 C 
BRANCH  24  27
ATOM     27  C   UNL     1       9.484  21.166  30.845  0.00  0.00    +0.000 C 
ATOM     28  C   UNL     1      10.900  21.126  31.083  0.00  0.00    +0.000 C 
ATOM     29  C   UNL     1      12.183  21.082  31.296  0.00  0.00    +0.000 C 
ATOM     30  C   UNL     1      12.613  20.291  32.514  0.00  0.00    +0.000 C 
BRANCH  27  31
ATOM     31  C   UNL     1       8.835  19.913  30.488  0.00  0.00    +0.000 C 
ATOM     32  C   UNL     1       9.646  18.756  29.939  0.00  0.00    +0.000 C 
ATOM     33  C   UNL     1       7.550  19.512  31.188  0.00  0.00    +0.000 C 
ENDBRANCH  27  31
BRANCH  29  35
ATOM     34  O   UNL     1      14.267  21.447  30.138  0.00  0.00    +0.000 OA
ATOM     35  C   UNL     1      13.114  21.780  30.368  0.00  0.00    +0.000 C 
BRANCH  35  36
ATOM     36  O   UNL     1      12.590  22.866  29.761  0.00  0.00    +0.000 OA
ATOM     37  H   UNL     1      11.619  22.759  29.833  0.00  0.00    +0.000 HD
ENDBRANCH  35  36
ENDBRANCH  29  35
ENDBRANCH  24  27
ENDBRANCH   5  25
BRANCH   5  38
ATOM     38  C   UNL     1       6.002  24.245  30.491  0.00  0.00    +0.000 C 
ATOM     39  C   UNL     1       5.883  25.165  31.748  0.00  0.00    +0.000 C 
ATOM     40  C   UNL     1       5.189  24.894  29.334  0.00  0.00    +0.000 C 
ATOM     41  C   UNL     1       5.454  22.840  30.839  0.00  0.00    +0.000 C 
ENDBRANCH   5  38
TORSDOF 7
ENDMDL
MODEL 3
REMARK VINA RESULT:      -6.4      6.752     13.303
REMARK  Name = 10940649_MilnamideD.pdbqt.pdb
REMARK  7 active torsions:
REMARK  status: ('A' for Active; 'I' for Inactive)
REMARK    1  A    between atoms: C_3  and  C_8
REMARK    2  A    between atoms: C_22  and  C_25
REMARK    3  A    between atoms: C_22  and  C_38
REMARK    4  A    between atoms: N_24  and  C_27
REMARK    5  A    between atoms: C_27  and  C_28
REMARK    6  A    between atoms: C_32  and  C_35
REMARK    7  A    between atoms: C_35  and  O_36
REMARK                            x       y       z     vdW  Elec       q    Type
REMARK                         _______ _______ _______ _____ _____    ______ ____
ROOT
ATOM      1  O   UNL     1       9.803  22.810  30.548  0.00  0.00    +0.000 OA
ATOM      2  N   UNL     1      11.292  22.656  32.255  0.00  0.00    +0.000 N 
ATOM      3  C   UNL     1      10.648  22.151  31.141  0.00  0.00    +0.000 C 
ATOM      4  H   UNL     1      11.916  22.035  32.782  0.00  0.00    +0.000 HD
ATOM      5  C   UNL     1      11.105  23.956  32.784  0.00  0.00    +0.000 C 
ENDROOT
BRANCH   3   9
ATOM      6  N   UNL     1      12.263  20.563  29.917  0.00  0.00    +0.000 NA
ATOM      7  N   UNL     1      11.754  16.687  29.598  0.00  0.00    +0.000 N 
ATOM      8  C   UNL     1       9.947  19.678  30.908  0.00  0.00    +0.000 C 
ATOM      9  C   UNL     1      11.041  20.769  30.713  0.00  0.00    +0.000 C 
ATOM     10  C   UNL     1      10.404  18.244  30.494  0.00  0.00    +0.000 A 
ATOM     11  C   UNL     1      11.607  18.004  29.861  0.00  0.00    +0.000 A 
ATOM     12  C   UNL     1       8.736  19.972  29.975  0.00  0.00    +0.000 C 
ATOM     13  C   UNL     1       9.594  19.558  32.419  0.00  0.00    +0.000 C 
ATOM     14  C   UNL     1       9.777  16.951  30.605  0.00  0.00    +0.000 A 
ATOM     15  C   UNL     1      12.372  19.154  29.644  0.00  0.00    +0.000 C 
ATOM     16  C   UNL     1      10.648  16.000  30.039  0.00  0.00    +0.000 A 
ATOM     17  C   UNL     1      13.448  20.955  30.664  0.00  0.00    +0.000 C 
ATOM     18  C   UNL     1       8.547  16.507  31.131  0.00  0.00    +0.000 A 
ATOM     19  C   UNL     1      12.883  16.118  28.945  0.00  0.00    +0.000 C 
ATOM     20  C   UNL     1      10.331  14.633  29.989  0.00  0.00    +0.000 A 
ATOM     21  C   UNL     1       8.226  15.150  31.082  0.00  0.00    +0.000 A 
ATOM     22  C   UNL     1       9.105  14.232  30.523  0.00  0.00    +0.000 A 
ENDBRANCH   3   9
BRANCH   5  25
ATOM     23  O   UNL     1      10.876  25.616  31.168  0.00  0.00    +0.000 OA
ATOM     24  N   UNL     1       8.929  24.992  32.353  0.00  0.00    +0.000 N 
ATOM     25  C   UNL     1      10.308  24.958  32.035  0.00  0.00    +0.000 C 
ATOM     26  C   UNL     1       8.308  24.213  33.430  0.00  0.00    +0.000 C 
BRANCH  24  27
ATOM     27  C   UNL     1       8.045  25.791  31.606  0.00  0.00    +0.000 C 
ATOM     28  C   UNL     1       7.673  25.435  30.264  0.00  0.00    +0.000 C 
ATOM     29  C   UNL     1       7.333  25.120  29.049  0.00  0.00    +0.000 C 
ATOM     30  C   UNL     1       5.885  24.719  28.863  0.00  0.00    +0.000 C 
BRANCH  27  31
ATOM     31  C   UNL     1       7.449  26.997  32.162  0.00  0.00    +0.000 C 
ATOM     32  C   UNL     1       8.153  28.333  32.035  0.00  0.00    +0.000 C 
ATOM     33  C   UNL     1       5.940  27.085  32.307  0.00  0.00    +0.000 C 
ENDBRANCH  27  31
BRANCH  29  35
ATOM     34  O   UNL     1       8.120  25.488  26.799  0.00  0.00    +0.000 OA
ATOM     35  C   UNL     1       8.344  25.172  27.958  0.00  0.00    +0.000 C 
BRANCH  35  36
ATOM     36  O   UNL     1       9.594  24.829  28.335  0.00  0.00    +0.000 OA
ATOM     37  H   UNL     1       9.834  24.065  27.772  0.00  0.00    +0.000 HD
ENDBRANCH  35  36
ENDBRANCH  29  35
ENDBRANCH  24  27
ENDBRANCH   5  25
BRANCH   5  38
ATOM     38  C   UNL     1      11.885  24.512  33.964  0.00  0.00    +0.000 C 
ATOM     39  C   UNL     1      11.267  25.908  34.294  0.00  0.00    +0.000 C 
ATOM     40  C   UNL     1      11.643  23.573  35.180  0.00  0.00    +0.000 C 
ATOM     41  C   UNL     1      13.398  24.683  33.682  0.00  0.00    +0.000 C 
ENDBRANCH   5  38
TORSDOF 7
ENDMDL
MODEL 4
REMARK VINA RESULT:      -6.3     12.816     16.517
REMARK  Name = 10940649_MilnamideD.pdbqt.pdb
REMARK  7 active torsions:
REMARK  status: ('A' for Active; 'I' for Inactive)
REMARK    1  A    between atoms: C_3  and  C_8
REMARK    2  A    between atoms: C_22  and  C_25
REMARK    3  A    between atoms: C_22  and  C_38
REMARK    4  A    between atoms: N_24  and  C_27
REMARK    5  A    between atoms: C_27  and  C_28
REMARK    6  A    between atoms: C_32  and  C_35
REMARK    7  A    between atoms: C_35  and  O_36
REMARK                            x       y       z     vdW  Elec       q    Type
REMARK                         _______ _______ _______ _____ _____    ______ ____
ROOT
ATOM      1  O   UNL     1      22.650  16.937  25.807  0.00  0.00    +0.000 OA
ATOM      2  N   UNL     1      23.486  16.402  27.849  0.00  0.00    +0.000 N 
ATOM      3  C   UNL     1      23.336  16.188  26.492  0.00  0.00    +0.000 C 
ATOM      4  H   UNL     1      23.983  15.695  28.403  0.00  0.00    +0.000 HD
ATOM      5  C   UNL     1      22.940  17.494  28.566  0.00  0.00    +0.000 C 
ENDROOT
BRANCH   3   9
ATOM      6  N   UNL     1      24.987  15.175  24.796  0.00  0.00    +0.000 NA
ATOM      7  N   UNL     1      25.810  11.351  24.507  0.00  0.00    +0.000 N 
ATOM      8  C   UNL     1      23.517  13.616  26.389  0.00  0.00    +0.000 C 
ATOM      9  C   UNL     1      24.052  15.001  25.921  0.00  0.00    +0.000 C 
ATOM     10  C   UNL     1      24.312  12.403  25.811  0.00  0.00    +0.000 A 
ATOM     11  C   UNL     1      25.289  12.550  24.846  0.00  0.00    +0.000 A 
ATOM     12  C   UNL     1      22.067  13.403  25.860  0.00  0.00    +0.000 C 
ATOM     13  C   UNL     1      23.674  13.490  27.932  0.00  0.00    +0.000 C 
ATOM     14  C   UNL     1      24.240  10.985  26.055  0.00  0.00    +0.000 A 
ATOM     15  C   UNL     1      25.504  13.876  24.455  0.00  0.00    +0.000 C 
ATOM     16  C   UNL     1      25.192  10.356  25.228  0.00  0.00    +0.000 A 
ATOM     17  C   UNL     1      26.118  16.006  25.179  0.00  0.00    +0.000 C 
ATOM     18  C   UNL     1      23.450  10.180  26.901  0.00  0.00    +0.000 A 
ATOM     19  C   UNL     1      26.831  11.163  23.534  0.00  0.00    +0.000 C 
ATOM     20  C   UNL     1      25.376   8.965  25.225  0.00  0.00    +0.000 A 
ATOM     21  C   UNL     1      23.629   8.796  26.902  0.00  0.00    +0.000 A 
ATOM     22  C   UNL     1      24.577   8.203  26.079  0.00  0.00    +0.000 A 
ENDBRANCH   3   9
BRANCH   5  25
ATOM     23  O   UNL     1      21.074  18.650  27.792  0.00  0.00    +0.000 OA
ATOM     24  N   UNL     1      23.191  19.595  27.334  0.00  0.00    +0.000 N 
ATOM     25  C   UNL     1      22.300  18.617  27.840  0.00  0.00    +0.000 C 
ATOM     26  C   UNL     1      24.653  19.485  27.379  0.00  0.00    +0.000 C 
BRANCH  24  27
ATOM     27  C   UNL     1      22.697  20.780  26.760  0.00  0.00    +0.000 C 
ATOM     28  C   UNL     1      22.074  21.793  27.566  0.00  0.00    +0.000 C 
ATOM     29  C   UNL     1      21.507  22.715  28.289  0.00  0.00    +0.000 C 
ATOM     30  C   UNL     1      22.274  24.016  28.401  0.00  0.00    +0.000 C 
BRANCH  27  31
ATOM     31  C   UNL     1      22.816  21.046  25.334  0.00  0.00    +0.000 C 
ATOM     32  C   UNL     1      23.713  22.160  24.832  0.00  0.00    +0.000 C 
ATOM     33  C   UNL     1      22.586  19.920  24.343  0.00  0.00    +0.000 C 
ENDBRANCH  27  31
BRANCH  29  35
ATOM     34  O   UNL     1      19.353  23.293  29.207  0.00  0.00    +0.000 OA
ATOM     35  C   UNL     1      20.193  22.448  28.935  0.00  0.00    +0.000 C 
BRANCH  35  36
ATOM     36  O   UNL     1      19.964  21.149  29.223  0.00  0.00    +0.000 OA
ATOM     37  H   UNL     1      18.989  21.056  29.232  0.00  0.00    +0.000 HD
ENDBRANCH  35  36
ENDBRANCH  29  35
ENDBRANCH  24  27
ENDBRANCH   5  25
BRANCH   5  38
ATOM     38  C   UNL     1      23.188  17.746  30.045  0.00  0.00    +0.000 C 
ATOM     39  C   UNL     1      22.662  19.186  30.349  0.00  0.00    +0.000 C 
ATOM     40  C   UNL     1      22.326  16.733  30.851  0.00  0.00    +0.000 C 
ATOM     41  C   UNL     1      24.680  17.657  30.447  0.00  0.00    +0.000 C 
ENDBRANCH   5  38
TORSDOF 7
ENDMDL
MODEL 5
REMARK VINA RESULT:      -6.1     13.978     17.768
REMARK  Name = 10940649_MilnamideD.pdbqt.pdb
REMARK  7 active torsions:
REMARK  status: ('A' for Active; 'I' for Inactive)
REMARK    1  A    between atoms: C_3  and  C_8
REMARK    2  A    between atoms: C_22  and  C_25
REMARK    3  A    between atoms: C_22  and  C_38
REMARK    4  A    between atoms: N_24  and  C_27
REMARK    5  A    between atoms: C_27  and  C_28
REMARK    6  A    between atoms: C_32  and  C_35
REMARK    7  A    between atoms: C_35  and  O_36
REMARK                            x       y       z     vdW  Elec       q    Type
REMARK                         _______ _______ _______ _____ _____    ______ ____
ROOT
ATOM      1  O   UNL     1      -0.749  14.637  22.313  0.00  0.00    +0.000 OA
ATOM      2  N   UNL     1      -0.300  12.739  23.476  0.00  0.00    +0.000 N 
ATOM      3  C   UNL     1      -0.761  13.413  22.361  0.00  0.00    +0.000 C 
ATOM      4  H   UNL     1      -0.421  11.721  23.517  0.00  0.00    +0.000 HD
ATOM      5  C   UNL     1       0.268  13.351  24.619  0.00  0.00    +0.000 C 
ENDROOT
BRANCH   3   9
ATOM      6  N   UNL     1      -0.322  11.800  20.403  0.00  0.00    +0.000 NA
ATOM      7  N   UNL     1      -3.103  10.360  18.042  0.00  0.00    +0.000 N 
ATOM      8  C   UNL     1      -2.758  12.799  20.846  0.00  0.00    +0.000 C 
ATOM      9  C   UNL     1      -1.267  12.566  21.232  0.00  0.00    +0.000 C 
ATOM     10  C   UNL     1      -3.265  11.870  19.698  0.00  0.00    +0.000 A 
ATOM     11  C   UNL     1      -2.420  11.043  18.987  0.00  0.00    +0.000 A 
ATOM     12  C   UNL     1      -2.937  14.237  20.275  0.00  0.00    +0.000 C 
ATOM     13  C   UNL     1      -3.671  12.459  22.059  0.00  0.00    +0.000 C 
ATOM     14  C   UNL     1      -4.566  11.668  19.111  0.00  0.00    +0.000 A 
ATOM     15  C   UNL     1      -1.086  11.104  19.401  0.00  0.00    +0.000 C 
ATOM     16  C   UNL     1      -4.431  10.715  18.082  0.00  0.00    +0.000 A 
ATOM     17  C   UNL     1       0.375  10.797  21.192  0.00  0.00    +0.000 C 
ATOM     18  C   UNL     1      -5.842  12.212  19.360  0.00  0.00    +0.000 A 
ATOM     19  C   UNL     1      -2.516   9.431  17.138  0.00  0.00    +0.000 C 
ATOM     20  C   UNL     1      -5.523  10.293  17.308  0.00  0.00    +0.000 A 
ATOM     21  C   UNL     1      -6.931  11.796  18.593  0.00  0.00    +0.000 A 
ATOM     22  C   UNL     1      -6.771  10.852  17.587  0.00  0.00    +0.000 A 
ENDBRANCH   3   9
BRANCH   5  25
ATOM     23  O   UNL     1       1.669  15.153  24.162  0.00  0.00    +0.000 OA
ATOM     24  N   UNL     1      -0.461  15.646  25.059  0.00  0.00    +0.000 N 
ATOM     25  C   UNL     1       0.582  14.800  24.611  0.00  0.00    +0.000 C 
ATOM     26  C   UNL     1      -1.727  15.170  25.626  0.00  0.00    +0.000 C 
BRANCH  24  27
ATOM     27  C   UNL     1      -0.340  17.043  24.955  0.00  0.00    +0.000 C 
ATOM     28  C   UNL     1      -0.793  17.745  23.786  0.00  0.00    +0.000 C 
ATOM     29  C   UNL     1      -1.200  18.388  22.730  0.00  0.00    +0.000 C 
ATOM     30  C   UNL     1      -2.395  19.294  22.941  0.00  0.00    +0.000 C 
BRANCH  27  31
ATOM     31  C   UNL     1       0.226  17.843  26.032  0.00  0.00    +0.000 C 
ATOM     32  C   UNL     1      -0.458  19.119  26.482  0.00  0.00    +0.000 C 
ATOM     33  C   UNL     1       1.079  17.172  27.092  0.00  0.00    +0.000 C 
ENDBRANCH  27  31
BRANCH  29  35
ATOM     34  O   UNL     1      -0.871  18.641  20.354  0.00  0.00    +0.000 OA
ATOM     35  C   UNL     1      -0.496  18.203  21.432  0.00  0.00    +0.000 C 
BRANCH  35  36
ATOM     36  O   UNL     1       0.642  17.482  21.509  0.00  0.00    +0.000 OA
ATOM     37  H   UNL     1       0.880  17.275  20.581  0.00  0.00    +0.000 HD
ENDBRANCH  35  36
ENDBRANCH  29  35
ENDBRANCH  24  27
ENDBRANCH   5  25
BRANCH   5  38
ATOM     38  C   UNL     1       0.839  12.580  25.799  0.00  0.00    +0.000 C 
ATOM     39  C   UNL     1      -0.154  11.409  26.092  0.00  0.00    +0.000 C 
ATOM     40  C   UNL     1       2.197  11.966  25.355  0.00  0.00    +0.000 C 
ATOM     41  C   UNL     1       1.003  13.436  27.078  0.00  0.00    +0.000 C 
ENDBRANCH   5  38
TORSDOF 7
ENDMDL
MODEL 6
REMARK VINA RESULT:      -6.0     15.842     18.779
REMARK  Name = 10940649_MilnamideD.pdbqt.pdb
REMARK  7 active torsions:
REMARK  status: ('A' for Active; 'I' for Inactive)
REMARK    1  A    between atoms: C_3  and  C_8
REMARK    2  A    between atoms: C_22  and  C_25
REMARK    3  A    between atoms: C_22  and  C_38
REMARK    4  A    between atoms: N_24  and  C_27
REMARK    5  A    between atoms: C_27  and  C_28
REMARK    6  A    between atoms: C_32  and  C_35
REMARK    7  A    between atoms: C_35  and  O_36
REMARK                            x       y       z     vdW  Elec       q    Type
REMARK                         _______ _______ _______ _____ _____    ______ ____
ROOT
ATOM      1  O   UNL     1      27.857  10.972  24.376  0.00  0.00    +0.000 OA
ATOM      2  N   UNL     1      26.246  12.533  24.726  0.00  0.00    +0.000 N 
ATOM      3  C   UNL     1      27.351  12.042  24.058  0.00  0.00    +0.000 C 
ATOM      4  H   UNL     1      25.916  13.478  24.497  0.00  0.00    +0.000 HD
ATOM      5  C   UNL     1      25.562  11.864  25.770  0.00  0.00    +0.000 C 
ENDROOT
BRANCH   3   9
ATOM      6  N   UNL     1      28.072  14.333  23.133  0.00  0.00    +0.000 NA
ATOM      7  N   UNL     1      29.322  14.958  19.468  0.00  0.00    +0.000 N 
ATOM      8  C   UNL     1      27.925  12.191  21.546  0.00  0.00    +0.000 C 
ATOM      9  C   UNL     1      27.884  12.886  22.940  0.00  0.00    +0.000 C 
ATOM     10  C   UNL     1      28.526  13.081  20.414  0.00  0.00    +0.000 A 
ATOM     11  C   UNL     1      28.833  14.413  20.604  0.00  0.00    +0.000 A 
ATOM     12  C   UNL     1      26.475  11.892  21.062  0.00  0.00    +0.000 C 
ATOM     13  C   UNL     1      28.861  10.949  21.609  0.00  0.00    +0.000 C 
ATOM     14  C   UNL     1      28.849  12.817  19.034  0.00  0.00    +0.000 A 
ATOM     15  C   UNL     1      28.573  14.876  21.898  0.00  0.00    +0.000 C 
ATOM     16  C   UNL     1      29.348  14.009  18.473  0.00  0.00    +0.000 A 
ATOM     17  C   UNL     1      29.065  14.601  24.161  0.00  0.00    +0.000 C 
ATOM     18  C   UNL     1      28.759  11.675  18.214  0.00  0.00    +0.000 A 
ATOM     19  C   UNL     1      29.725  16.316  19.335  0.00  0.00    +0.000 C 
ATOM     20  C   UNL     1      29.758  14.089  17.133  0.00  0.00    +0.000 A 
ATOM     21  C   UNL     1      29.164  11.748  16.881  0.00  0.00    +0.000 A 
ATOM     22  C   UNL     1      29.656  12.935  16.353  0.00  0.00    +0.000 A 
ENDBRANCH   3   9
BRANCH   5  25
ATOM     23  O   UNL     1      26.603  10.244  27.078  0.00  0.00    +0.000 OA
ATOM     24  N   UNL     1      25.285   9.483  25.271  0.00  0.00    +0.000 N 
ATOM     25  C   UNL     1      25.896  10.457  26.098  0.00  0.00    +0.000 C 
ATOM     26  C   UNL     1      24.481   9.792  24.083  0.00  0.00    +0.000 C 
BRANCH  24  27
ATOM     27  C   UNL     1      25.403   8.115  25.574  0.00  0.00    +0.000 C 
ATOM     28  C   UNL     1      26.083   7.212  24.688  0.00  0.00    +0.000 C 
ATOM     29  C   UNL     1      26.697   6.387  23.890  0.00  0.00    +0.000 C 
ATOM     30  C   UNL     1      27.994   5.814  24.420  0.00  0.00    +0.000 C 
BRANCH  27  31
ATOM     31  C   UNL     1      24.866   7.557  26.807  0.00  0.00    +0.000 C 
ATOM     32  C   UNL     1      23.370   7.390  26.987  0.00  0.00    +0.000 C 
ATOM     33  C   UNL     1      25.715   6.604  27.627  0.00  0.00    +0.000 C 
ENDBRANCH  27  31
BRANCH  29  35
ATOM     34  O   UNL     1      26.015   4.950  22.077  0.00  0.00    +0.000 OA
ATOM     35  C   UNL     1      26.112   6.069  22.559  0.00  0.00    +0.000 C 
BRANCH  35  36
ATOM     36  O   UNL     1      25.669   7.142  21.870  0.00  0.00    +0.000 OA
ATOM     37  H   UNL     1      24.704   7.175  22.035  0.00  0.00    +0.000 HD
ENDBRANCH  35  36
ENDBRANCH  29  35
ENDBRANCH  24  27
ENDBRANCH   5  25
BRANCH   5  38
ATOM     38  C   UNL     1      24.301  12.394  26.434  0.00  0.00    +0.000 C 
ATOM     39  C   UNL     1      24.742  13.572  27.360  0.00  0.00    +0.000 C 
ATOM     40  C   UNL     1      23.381  12.969  25.319  0.00  0.00    +0.000 C 
ATOM     41  C   UNL     1      23.555  11.335  27.283  0.00  0.00    +0.000 C 
ENDBRANCH   5  38
TORSDOF 7
ENDMDL
MODEL 7
REMARK VINA RESULT:      -5.9     13.976     17.003
REMARK  Name = 10940649_MilnamideD.pdbqt.pdb
REMARK  7 active torsions:
REMARK  status: ('A' for Active; 'I' for Inactive)
REMARK    1  A    between atoms: C_3  and  C_8
REMARK    2  A    between atoms: C_22  and  C_25
REMARK    3  A    between atoms: C_22  and  C_38
REMARK    4  A    between atoms: N_24  and  C_27
REMARK    5  A    between atoms: C_27  and  C_28
REMARK    6  A    between atoms: C_32  and  C_35
REMARK    7  A    between atoms: C_35  and  O_36
REMARK                            x       y       z     vdW  Elec       q    Type
REMARK                         _______ _______ _______ _____ _____    ______ ____
ROOT
ATOM      1  O   UNL     1      26.338  13.573  24.596  0.00  0.00    +0.000 OA
ATOM      2  N   UNL     1      25.527  11.688  25.567  0.00  0.00    +0.000 N 
ATOM      3  C   UNL     1      25.801  13.042  25.561  0.00  0.00    +0.000 C 
ATOM      4  H   UNL     1      25.171  11.265  26.432  0.00  0.00    +0.000 HD
ATOM      5  C   UNL     1      25.767  10.803  24.487  0.00  0.00    +0.000 C 
ENDROOT
BRANCH   3   9
ATOM      6  N   UNL     1      25.910  13.393  28.109  0.00  0.00    +0.000 NA
ATOM      7  N   UNL     1      23.964  16.188  30.054  0.00  0.00    +0.000 N 
ATOM      8  C   UNL     1      24.246  14.826  26.591  0.00  0.00    +0.000 C 
ATOM      9  C   UNL     1      25.408  13.807  26.788  0.00  0.00    +0.000 C 
ATOM     10  C   UNL     1      23.892  15.638  27.877  0.00  0.00    +0.000 A 
ATOM     11  C   UNL     1      24.448  15.354  29.107  0.00  0.00    +0.000 A 
ATOM     12  C   UNL     1      22.930  14.067  26.249  0.00  0.00    +0.000 C 
ATOM     13  C   UNL     1      24.668  15.903  25.549  0.00  0.00    +0.000 C 
ATOM     14  C   UNL     1      22.987  16.733  28.119  0.00  0.00    +0.000 A 
ATOM     15  C   UNL     1      25.359  14.293  29.087  0.00  0.00    +0.000 C 
ATOM     16  C   UNL     1      23.059  17.055  29.489  0.00  0.00    +0.000 A 
ATOM     17  C   UNL     1      27.358  13.509  28.179  0.00  0.00    +0.000 C 
ATOM     18  C   UNL     1      22.112  17.474  27.300  0.00  0.00    +0.000 A 
ATOM     19  C   UNL     1      24.334  16.148  31.427  0.00  0.00    +0.000 C 
ATOM     20  C   UNL     1      22.294  18.087  30.054  0.00  0.00    +0.000 A 
ATOM     21  C   UNL     1      21.348  18.500  27.856  0.00  0.00    +0.000 A 
ATOM     22  C   UNL     1      21.442  18.801  29.209  0.00  0.00    +0.000 A 
ENDBRANCH   3   9
BRANCH   5  25
ATOM     23  O   UNL     1      25.299  11.724  22.401  0.00  0.00    +0.000 OA
ATOM     24  N   UNL     1      27.575  11.413  22.953  0.00  0.00    +0.000 N 
ATOM     25  C   UNL     1      26.177  11.336  23.166  0.00  0.00    +0.000 C 
ATOM     26  C   UNL     1      28.584  10.894  23.884  0.00  0.00    +0.000 C 
BRANCH  24  27
ATOM     27  C   UNL     1      28.088  12.039  21.803  0.00  0.00    +0.000 C 
ATOM     28  C   UNL     1      28.667  13.353  21.866  0.00  0.00    +0.000 C 
ATOM     29  C   UNL     1      29.191  14.542  21.915  0.00  0.00    +0.000 C 
ATOM     30  C   UNL     1      30.682  14.606  21.658  0.00  0.00    +0.000 C 
BRANCH  27  31
ATOM     31  C   UNL     1      28.078  11.379  20.506  0.00  0.00    +0.000 C 
ATOM     32  C   UNL     1      28.732  12.034  19.305  0.00  0.00    +0.000 C 
ATOM     33  C   UNL     1      28.000   9.865  20.439  0.00  0.00    +0.000 C 
ENDBRANCH  27  31
BRANCH  29  35
ATOM     34  O   UNL     1      28.025  16.116  23.322  0.00  0.00    +0.000 OA
ATOM     35  C   UNL     1      28.331  15.721  22.206  0.00  0.00    +0.000 C 
BRANCH  35  36
ATOM     36  O   UNL     1      27.876  16.368  21.113  0.00  0.00    +0.000 OA
ATOM     37  H   UNL     1      27.575  17.242  21.436  0.00  0.00    +0.000 HD
ENDBRANCH  35  36
ENDBRANCH  29  35
ENDBRANCH  24  27
ENDBRANCH   5  25
BRANCH   5  38
ATOM     38  C   UNL     1      25.383   9.332  24.494  0.00  0.00    +0.000 C 
ATOM     39  C   UNL     1      26.122   8.681  25.706  0.00  0.00    +0.000 C 
ATOM     40  C   UNL     1      23.851   9.242  24.751  0.00  0.00    +0.000 C 
ATOM     41  C   UNL     1      25.778   8.583  23.198  0.00  0.00    +0.000 C 
ENDBRANCH   5  38
TORSDOF 7
ENDMDL
MODEL 8
REMARK VINA RESULT:      -5.9     11.694     16.951
REMARK  Name = 10940649_MilnamideD.pdbqt.pdb
REMARK  7 active torsions:
REMARK  status: ('A' for Active; 'I' for Inactive)
REMARK    1  A    between atoms: C_3  and  C_8
REMARK    2  A    between atoms: C_22  and  C_25
REMARK    3  A    between atoms: C_22  and  C_38
REMARK    4  A    between atoms: N_24  and  C_27
REMARK    5  A    between atoms: C_27  and  C_28
REMARK    6  A    between atoms: C_32  and  C_35
REMARK    7  A    between atoms: C_35  and  O_36
REMARK                            x       y       z     vdW  Elec       q    Type
REMARK                         _______ _______ _______ _____ _____    ______ ____
ROOT
ATOM      1  O   UNL     1       7.555  27.049  31.929  0.00  0.00    +0.000 OA
ATOM      2  N   UNL     1       8.730  26.416  30.092  0.00  0.00    +0.000 N 
ATOM      3  C   UNL     1       7.819  26.182  31.104  0.00  0.00    +0.000 C 
ATOM      4  H   UNL     1       8.999  25.633  29.485  0.00  0.00    +0.000 HD
ATOM      5  C   UNL     1       9.394  27.645  29.862  0.00  0.00    +0.000 C 
ENDROOT
BRANCH   3   9
ATOM      6  N   UNL     1       7.946  23.662  31.614  0.00  0.00    +0.000 NA
ATOM      7  N   UNL     1       5.048  21.107  30.937  0.00  0.00    +0.000 N 
ATOM      8  C   UNL     1       5.837  24.708  30.355  0.00  0.00    +0.000 C 
ATOM      9  C   UNL     1       7.184  24.825  31.129  0.00  0.00    +0.000 C 
ATOM     10  C   UNL     1       5.181  23.294  30.438  0.00  0.00    +0.000 A 
ATOM     11  C   UNL     1       5.823  22.212  31.006  0.00  0.00    +0.000 A 
ATOM     12  C   UNL     1       6.084  24.920  28.831  0.00  0.00    +0.000 C 
ATOM     13  C   UNL     1       4.787  25.667  30.986  0.00  0.00    +0.000 C 
ATOM     14  C   UNL     1       3.915  22.779  29.980  0.00  0.00    +0.000 A 
ATOM     15  C   UNL     1       7.095  22.507  31.507  0.00  0.00    +0.000 C 
ATOM     16  C   UNL     1       3.862  21.410  30.311  0.00  0.00    +0.000 A 
ATOM     17  C   UNL     1       8.298  23.814  33.017  0.00  0.00    +0.000 C 
ATOM     18  C   UNL     1       2.815  23.351  29.311  0.00  0.00    +0.000 A 
ATOM     19  C   UNL     1       5.428  19.826  31.428  0.00  0.00    +0.000 C 
ATOM     20  C   UNL     1       2.753  20.609  29.999  0.00  0.00    +0.000 A 
ATOM     21  C   UNL     1       1.709  22.559  28.998  0.00  0.00    +0.000 A 
ATOM     22  C   UNL     1       1.681  21.213  29.340  0.00  0.00    +0.000 A 
ENDBRANCH   3   9
BRANCH   5  25
ATOM     23  O   UNL     1       8.022  29.492  30.218  0.00  0.00    +0.000 OA
ATOM     24  N   UNL     1       9.752  29.119  31.784  0.00  0.00    +0.000 N 
ATOM     25  C   UNL     1       8.996  28.859  30.615  0.00  0.00    +0.000 C 
ATOM     26  C   UNL     1      10.936  28.354  32.191  0.00  0.00    +0.000 C 
BRANCH  24  27
ATOM     27  C   UNL     1       9.375  30.151  32.661  0.00  0.00    +0.000 C 
ATOM     28  C   UNL     1       8.373  29.943  33.669  0.00  0.00    +0.000 C 
ATOM     29  C   UNL     1       7.465  29.762  34.584  0.00  0.00    +0.000 C 
ATOM     30  C   UNL     1       7.966  29.795  36.012  0.00  0.00    +0.000 C 
BRANCH  27  31
ATOM     31  C   UNL     1       9.998  31.466  32.606  0.00  0.00    +0.000 C 
ATOM     32  C   UNL     1       9.717  32.402  31.447  0.00  0.00    +0.000 C 
ATOM     33  C   UNL     1      10.400  32.157  33.896  0.00  0.00    +0.000 C 
ENDBRANCH  27  31
BRANCH  29  35
ATOM     34  O   UNL     1       5.160  30.383  34.239  0.00  0.00    +0.000 OA
ATOM     35  C   UNL     1       6.047  29.543  34.189  0.00  0.00    +0.000 C 
BRANCH  35  36
ATOM     36  O   UNL     1       5.773  28.297  33.749  0.00  0.00    +0.000 OA
ATOM     37  H   UNL     1       5.412  28.416  32.846  0.00  0.00    +0.000 HD
ENDBRANCH  35  36
ENDBRANCH  29  35
ENDBRANCH  24  27
ENDBRANCH   5  25
BRANCH   5  38
ATOM     38  C   UNL     1      10.334  27.896  28.693  0.00  0.00    +0.000 C 
ATOM     39  C   UNL     1      11.600  27.015  28.938  0.00  0.00    +0.000 C 
ATOM     40  C   UNL     1       9.631  27.391  27.401  0.00  0.00    +0.000 C 
ATOM     41  C   UNL     1      10.766  29.376  28.553  0.00  0.00    +0.000 C 
ENDBRANCH   5  38
TORSDOF 7
ENDMDL
MODEL 9
REMARK VINA RESULT:      -5.9     17.134     20.279
REMARK  Name = 10940649_MilnamideD.pdbqt.pdb
REMARK  7 active torsions:
REMARK  status: ('A' for Active; 'I' for Inactive)
REMARK    1  A    between atoms: C_3  and  C_8
REMARK    2  A    between atoms: C_22  and  C_25
REMARK    3  A    between atoms: C_22  and  C_38
REMARK    4  A    between atoms: N_24  and  C_27
REMARK    5  A    between atoms: C_27  and  C_28
REMARK    6  A    between atoms: C_32  and  C_35
REMARK    7  A    between atoms: C_35  and  O_36
REMARK                            x       y       z     vdW  Elec       q    Type
REMARK                         _______ _______ _______ _____ _____    ______ ____
ROOT
ATOM      1  O   UNL     1      28.365  11.985  23.068  0.00  0.00    +0.000 OA
ATOM      2  N   UNL     1      28.177   9.803  22.472  0.00  0.00    +0.000 N 
ATOM      3  C   UNL     1      28.688  11.077  22.312  0.00  0.00    +0.000 C 
ATOM      4  H   UNL     1      28.392   9.097  21.758  0.00  0.00    +0.000 HD
ATOM      5  C   UNL     1      27.307   9.399  23.513  0.00  0.00    +0.000 C 
ENDROOT
BRANCH   3   9
ATOM      6  N   UNL     1      31.092  11.349  21.434  0.00  0.00    +0.000 NA
ATOM      7  N   UNL     1      32.031  11.954  17.673  0.00  0.00    +0.000 N 
ATOM      8  C   UNL     1      28.990  11.678  19.821  0.00  0.00    +0.000 C 
ATOM      9  C   UNL     1      29.644  11.274  21.175  0.00  0.00    +0.000 C 
ATOM     10  C   UNL     1      30.009  11.832  18.648  0.00  0.00    +0.000 A 
ATOM     11  C   UNL     1      31.375  11.776  18.842  0.00  0.00    +0.000 A 
ATOM     12  C   UNL     1      28.344  13.090  19.947  0.00  0.00    +0.000 C 
ATOM     13  C   UNL     1      28.020  10.555  19.354  0.00  0.00    +0.000 C 
ATOM     14  C   UNL     1      29.842  12.077  17.238  0.00  0.00    +0.000 A 
ATOM     15  C   UNL     1      31.750  11.556  20.170  0.00  0.00    +0.000 C 
ATOM     16  C   UNL     1      31.124  12.144  16.657  0.00  0.00    +0.000 A 
ATOM     17  C   UNL     1      31.592  10.098  21.984  0.00  0.00    +0.000 C 
ATOM     18  C   UNL     1      28.718  12.253  16.405  0.00  0.00    +0.000 A 
ATOM     19  C   UNL     1      33.447  11.959  17.539  0.00  0.00    +0.000 C 
ATOM     20  C   UNL     1      31.312  12.374  15.285  0.00  0.00    +0.000 A 
ATOM     21  C   UNL     1      28.899  12.482  15.041  0.00  0.00    +0.000 A 
ATOM     22  C   UNL     1      30.174  12.539  14.494  0.00  0.00    +0.000 A 
ENDBRANCH   3   9
BRANCH   5  25
ATOM     23  O   UNL     1      27.801  10.310  25.598  0.00  0.00    +0.000 OA
ATOM     24  N   UNL     1      25.912  11.170  24.468  0.00  0.00    +0.000 N 
ATOM     25  C   UNL     1      27.026  10.314  24.646  0.00  0.00    +0.000 C 
ATOM     26  C   UNL     1      24.991  11.104  23.328  0.00  0.00    +0.000 C 
BRANCH  24  27
ATOM     27  C   UNL     1      25.636  12.183  25.403  0.00  0.00    +0.000 C 
ATOM     28  C   UNL     1      24.531  12.074  26.315  0.00  0.00    +0.000 C 
ATOM     29  C   UNL     1      23.531  11.983  27.143  0.00  0.00    +0.000 C 
ATOM     30  C   UNL     1      23.908  11.825  28.601  0.00  0.00    +0.000 C 
BRANCH  27  31
ATOM     31  C   UNL     1      26.468  13.373  25.508  0.00  0.00    +0.000 C 
ATOM     32  C   UNL     1      26.259  14.542  24.566  0.00  0.00    +0.000 C 
ATOM     33  C   UNL     1      27.084  13.738  26.846  0.00  0.00    +0.000 C 
ENDBRANCH  27  31
BRANCH  29  35
ATOM     34  O   UNL     1      21.514  13.061  26.378  0.00  0.00    +0.000 OA
ATOM     35  C   UNL     1      22.135  12.039  26.630  0.00  0.00    +0.000 C 
BRANCH  35  36
ATOM     36  O   UNL     1      21.556  10.833  26.448  0.00  0.00    +0.000 OA
ATOM     37  H   UNL     1      21.952  10.251  27.128  0.00  0.00    +0.000 HD
ENDBRANCH  35  36
ENDBRANCH  29  35
ENDBRANCH  24  27
ENDBRANCH   5  25
BRANCH   5  38
ATOM     38  C   UNL     1      26.823   7.971  23.709  0.00  0.00    +0.000 C 
ATOM     39  C   UNL     1      26.322   7.472  22.316  0.00  0.00    +0.000 C 
ATOM     40  C   UNL     1      28.047   7.106  24.124  0.00  0.00    +0.000 C 
ATOM     41  C   UNL     1      25.672   7.842  24.736  0.00  0.00    +0.000 C 
ENDBRANCH   5  38
TORSDOF 7
ENDMDL
