MODEL 1
REMARK VINA RESULT:      -6.5      0.000      0.000
REMARK  Name = 11167602_Regorafenib.pdbqt.pdb
REMARK  6 active torsions:
REMARK  status: ('A' for Active; 'I' for Inactive)
REMARK    1  A    between atoms: C_2  and  N_10
REMARK    2  A    between atoms: C_3  and  O_25
REMARK    3  A    between atoms: N_9  and  C_15
REMARK    4  A    between atoms: C_16  and  C_24
REMARK    5  A    between atoms: O_25  and  C_27
REMARK    6  A    between atoms: C_29  and  C_34
REMARK                            x       y       z     vdW  Elec       q    Type
REMARK                         _______ _______ _______ _____ _____    ______ ____
ROOT
ATOM      1  F   UNL     1       9.607  30.235  30.892  0.00  0.00    +0.000 F 
ATOM      2  C   UNL     1       9.632  28.806  29.005  0.00  0.00    +0.000 A 
ATOM      3  C   UNL     1       8.868  26.696  30.671  0.00  0.00    +0.000 A 
ATOM      4  C   UNL     1       9.434  29.009  30.374  0.00  0.00    +0.000 A 
ATOM      5  C   UNL     1       9.462  27.524  28.485  0.00  0.00    +0.000 A 
ATOM      6  C   UNL     1       9.067  27.964  31.216  0.00  0.00    +0.000 A 
ATOM      7  C   UNL     1       9.094  26.466  29.316  0.00  0.00    +0.000 A 
ENDROOT
BRANCH   2  10
ATOM      8  O   UNL     1      12.230  29.442  27.873  0.00  0.00    +0.000 OA
ATOM      9  N   UNL     1      11.260  31.316  26.929  0.00  0.00    +0.000 N 
ATOM     10  N   UNL     1       9.995  29.914  28.210  0.00  0.00    +0.000 N 
ATOM     11  C   UNL     1      11.254  30.156  27.687  0.00  0.00    +0.000 C 
ATOM     12  H   UNL     1      10.388  31.813  26.819  0.00  0.00    +0.000 HD
ATOM     13  H   UNL     1       9.259  30.583  28.031  0.00  0.00    +0.000 HD
BRANCH   9  15
ATOM     14 CL   UNL     1      15.901  33.567  24.021  0.00  0.00    +0.000 Cl
ATOM     15  C   UNL     1      12.380  31.853  26.267  0.00  0.00    +0.000 A 
ATOM     16  C   UNL     1      13.371  32.533  24.144  0.00  0.00    +0.000 A 
ATOM     17  C   UNL     1      12.304  32.007  24.883  0.00  0.00    +0.000 A 
ATOM     18  C   UNL     1      13.544  32.235  26.927  0.00  0.00    +0.000 A 
ATOM     19  C   UNL     1      14.530  32.908  24.826  0.00  0.00    +0.000 A 
ATOM     20  C   UNL     1      14.615  32.759  26.210  0.00  0.00    +0.000 A 
BRANCH  16  24
ATOM     21  F   UNL     1      14.140  31.940  21.966  0.00  0.00    +0.000 F 
ATOM     22  F   UNL     1      12.010  32.254  22.207  0.00  0.00    +0.000 F 
ATOM     23  F   UNL     1      13.380  33.952  22.228  0.00  0.00    +0.000 F 
ATOM     24  C   UNL     1      13.223  32.672  22.662  0.00  0.00    +0.000 C 
ENDBRANCH  16  24
ENDBRANCH   9  15
ENDBRANCH   2  10
BRANCH   3  25
ATOM     25  O   UNL     1       8.578  25.603  31.454  0.00  0.00    +0.000 OA
BRANCH  25  27
ATOM     26  N   UNL     1       5.346  23.208  30.347  0.00  0.00    +0.000 NA
ATOM     27  C   UNL     1       7.465  24.859  31.133  0.00  0.00    +0.000 A 
ATOM     28  C   UNL     1       6.226  25.422  30.842  0.00  0.00    +0.000 A 
ATOM     29  C   UNL     1       5.210  24.559  30.468  0.00  0.00    +0.000 A 
ATOM     30  C   UNL     1       7.659  23.488  31.001  0.00  0.00    +0.000 A 
ATOM     31  C   UNL     1       6.576  22.714  30.615  0.00  0.00    +0.000 A 
BRANCH  29  34
ATOM     32  O   UNL     1       3.600  26.281  30.435  0.00  0.00    +0.000 OA
ATOM     33  N   UNL     1       3.009  24.167  29.629  0.00  0.00    +0.000 N 
ATOM     34  C   UNL     1       3.860  25.109  30.181  0.00  0.00    +0.000 C 
ATOM     35  C   UNL     1       1.638  24.253  29.206  0.00  0.00    +0.000 C 
ATOM     36  H   UNL     1       3.427  23.246  29.504  0.00  0.00    +0.000 HD
ENDBRANCH  29  34
ENDBRANCH  25  27
ENDBRANCH   3  25
TORSDOF 6
ENDMDL
MODEL 2
REMARK VINA RESULT:      -6.5     18.343     21.182
REMARK  Name = 11167602_Regorafenib.pdbqt.pdb
REMARK  6 active torsions:
REMARK  status: ('A' for Active; 'I' for Inactive)
REMARK    1  A    between atoms: C_2  and  N_10
REMARK    2  A    between atoms: C_3  and  O_25
REMARK    3  A    between atoms: N_9  and  C_15
REMARK    4  A    between atoms: C_16  and  C_24
REMARK    5  A    between atoms: O_25  and  C_27
REMARK    6  A    between atoms: C_29  and  C_34
REMARK                            x       y       z     vdW  Elec       q    Type
REMARK                         _______ _______ _______ _____ _____    ______ ____
ROOT
ATOM      1  F   UNL     1      22.467  18.134  28.489  0.00  0.00    +0.000 F 
ATOM      2  C   UNL     1      22.416  18.054  26.124  0.00  0.00    +0.000 A 
ATOM      3  C   UNL     1      22.857  20.814  26.082  0.00  0.00    +0.000 A 
ATOM      4  C   UNL     1      22.547  18.777  27.313  0.00  0.00    +0.000 A 
ATOM      5  C   UNL     1      22.488  18.738  24.912  0.00  0.00    +0.000 A 
ATOM      6  C   UNL     1      22.753  20.152  27.306  0.00  0.00    +0.000 A 
ATOM      7  C   UNL     1      22.695  20.116  24.887  0.00  0.00    +0.000 A 
ENDROOT
BRANCH   2  10
ATOM      8  O   UNL     1      24.407  15.941  26.049  0.00  0.00    +0.000 OA
ATOM      9  N   UNL     1      22.680  14.426  26.310  0.00  0.00    +0.000 N 
ATOM     10  N   UNL     1      22.218  16.659  26.207  0.00  0.00    +0.000 N 
ATOM     11  C   UNL     1      23.215  15.698  26.177  0.00  0.00    +0.000 C 
ATOM     12  H   UNL     1      21.682  14.345  26.439  0.00  0.00    +0.000 HD
ATOM     13  H   UNL     1      21.256  16.358  26.279  0.00  0.00    +0.000 HD
BRANCH   9  15
ATOM     14 CL   UNL     1      25.786   9.388  26.167  0.00  0.00    +0.000 Cl
ATOM     15  C   UNL     1      23.415  13.227  26.309  0.00  0.00    +0.000 A 
ATOM     16  C   UNL     1      24.583  11.543  24.985  0.00  0.00    +0.000 A 
ATOM     17  C   UNL     1      23.845  12.729  25.079  0.00  0.00    +0.000 A 
ATOM     18  C   UNL     1      23.730  12.526  27.469  0.00  0.00    +0.000 A 
ATOM     19  C   UNL     1      24.886  10.855  26.161  0.00  0.00    +0.000 A 
ATOM     20  C   UNL     1      24.461  11.344  27.396  0.00  0.00    +0.000 A 
BRANCH  16  24
ATOM     21  F   UNL     1      24.776  11.978  22.648  0.00  0.00    +0.000 F 
ATOM     22  F   UNL     1      26.346  10.799  23.565  0.00  0.00    +0.000 F 
ATOM     23  F   UNL     1      24.370   9.933  23.240  0.00  0.00    +0.000 F 
ATOM     24  C   UNL     1      25.013  11.065  23.634  0.00  0.00    +0.000 C 
ENDBRANCH  16  24
ENDBRANCH   9  15
ENDBRANCH   2  10
BRANCH   3  25
ATOM     25  O   UNL     1      22.985  22.181  26.000  0.00  0.00    +0.000 OA
BRANCH  25  27
ATOM     26  N   UNL     1      26.626  23.838  24.817  0.00  0.00    +0.000 NA
ATOM     27  C   UNL     1      24.180  22.688  25.541  0.00  0.00    +0.000 A 
ATOM     28  C   UNL     1      24.376  23.120  24.233  0.00  0.00    +0.000 A 
ATOM     29  C   UNL     1      25.608  23.672  23.926  0.00  0.00    +0.000 A 
ATOM     30  C   UNL     1      25.181  22.857  26.492  0.00  0.00    +0.000 A 
ATOM     31  C   UNL     1      26.376  23.426  26.081  0.00  0.00    +0.000 A 
BRANCH  29  34
ATOM     32  O   UNL     1      24.956  24.477  21.808  0.00  0.00    +0.000 OA
ATOM     33  N   UNL     1      27.222  24.061  22.210  0.00  0.00    +0.000 N 
ATOM     34  C   UNL     1      25.877  24.117  22.534  0.00  0.00    +0.000 C 
ATOM     35  C   UNL     1      27.924  24.386  20.998  0.00  0.00    +0.000 C 
ATOM     36  H   UNL     1      27.821  23.727  22.963  0.00  0.00    +0.000 HD
ENDBRANCH  29  34
ENDBRANCH  25  27
ENDBRANCH   3  25
TORSDOF 6
ENDMDL
MODEL 3
REMARK VINA RESULT:      -6.4     29.759     32.646
REMARK  Name = 11167602_Regorafenib.pdbqt.pdb
REMARK  6 active torsions:
REMARK  status: ('A' for Active; 'I' for Inactive)
REMARK    1  A    between atoms: C_2  and  N_10
REMARK    2  A    between atoms: C_3  and  O_25
REMARK    3  A    between atoms: N_9  and  C_15
REMARK    4  A    between atoms: C_16  and  C_24
REMARK    5  A    between atoms: O_25  and  C_27
REMARK    6  A    between atoms: C_29  and  C_34
REMARK                            x       y       z     vdW  Elec       q    Type
REMARK                         _______ _______ _______ _____ _____    ______ ____
ROOT
ATOM      1  F   UNL     1      16.956  -4.780  22.130  0.00  0.00    +0.000 F 
ATOM      2  C   UNL     1      15.209  -4.002  20.735  0.00  0.00    +0.000 A 
ATOM      3  C   UNL     1      13.675  -3.531  23.024  0.00  0.00    +0.000 A 
ATOM      4  C   UNL     1      15.715  -4.283  22.008  0.00  0.00    +0.000 A 
ATOM      5  C   UNL     1      13.914  -3.499  20.624  0.00  0.00    +0.000 A 
ATOM      6  C   UNL     1      14.956  -4.066  23.153  0.00  0.00    +0.000 A 
ATOM      7  C   UNL     1      13.141  -3.275  21.763  0.00  0.00    +0.000 A 
ENDROOT
BRANCH   2  10
ATOM      8  O   UNL     1      15.899  -2.179  18.582  0.00  0.00    +0.000 OA
ATOM      9  N   UNL     1      17.205  -3.866  17.692  0.00  0.00    +0.000 N 
ATOM     10  N   UNL     1      16.038  -4.238  19.618  0.00  0.00    +0.000 N 
ATOM     11  C   UNL     1      16.340  -3.319  18.627  0.00  0.00    +0.000 C 
ATOM     12  H   UNL     1      17.528  -4.810  17.844  0.00  0.00    +0.000 HD
ATOM     13  H   UNL     1      16.423  -5.170  19.548  0.00  0.00    +0.000 HD
BRANCH   9  15
ATOM     14 CL   UNL     1      19.360  -0.995  12.983  0.00  0.00    +0.000 Cl
ATOM     15  C   UNL     1      17.700  -3.205  16.553  0.00  0.00    +0.000 A 
ATOM     16  C   UNL     1      19.063  -1.382  15.676  0.00  0.00    +0.000 A 
ATOM     17  C   UNL     1      18.526  -2.099  16.752  0.00  0.00    +0.000 A 
ATOM     18  C   UNL     1      17.407  -3.605  15.253  0.00  0.00    +0.000 A 
ATOM     19  C   UNL     1      18.755  -1.799  14.380  0.00  0.00    +0.000 A 
ATOM     20  C   UNL     1      17.931  -2.904  14.171  0.00  0.00    +0.000 A 
BRANCH  16  24
ATOM     21  F   UNL     1      20.193  -0.039  17.291  0.00  0.00    +0.000 F 
ATOM     22  F   UNL     1      21.166  -0.302  15.372  0.00  0.00    +0.000 F 
ATOM     23  F   UNL     1      19.405   0.974  15.545  0.00  0.00    +0.000 F 
ATOM     24  C   UNL     1      19.943  -0.205  15.960  0.00  0.00    +0.000 C 
ENDBRANCH  16  24
ENDBRANCH   9  15
ENDBRANCH   2  10
BRANCH   3  25
ATOM     25  O   UNL     1      12.843  -3.361  24.106  0.00  0.00    +0.000 OA
BRANCH  25  27
ATOM     26  N   UNL     1      13.894  -0.844  27.263  0.00  0.00    +0.000 NA
ATOM     27  C   UNL     1      13.257  -2.514  25.109  0.00  0.00    +0.000 A 
ATOM     28  C   UNL     1      13.882  -1.294  24.872  0.00  0.00    +0.000 A 
ATOM     29  C   UNL     1      14.184  -0.511  25.973  0.00  0.00    +0.000 A 
ATOM     30  C   UNL     1      12.920  -2.888  26.406  0.00  0.00    +0.000 A 
ATOM     31  C   UNL     1      13.264  -2.029  27.438  0.00  0.00    +0.000 A 
BRANCH  29  34
ATOM     32  O   UNL     1      14.247   1.835  25.751  0.00  0.00    +0.000 OA
ATOM     33  N   UNL     1      16.249   0.635  25.623  0.00  0.00    +0.000 N 
ATOM     34  C   UNL     1      14.882   0.785  25.773  0.00  0.00    +0.000 C 
ATOM     35  C   UNL     1      17.296   1.596  25.406  0.00  0.00    +0.000 C 
ATOM     36  H   UNL     1      16.573  -0.331  25.670  0.00  0.00    +0.000 HD
ENDBRANCH  29  34
ENDBRANCH  25  27
ENDBRANCH   3  25
TORSDOF 6
ENDMDL
MODEL 4
REMARK VINA RESULT:      -6.1     26.808     28.306
REMARK  Name = 11167602_Regorafenib.pdbqt.pdb
REMARK  6 active torsions:
REMARK  status: ('A' for Active; 'I' for Inactive)
REMARK    1  A    between atoms: C_2  and  N_10
REMARK    2  A    between atoms: C_3  and  O_25
REMARK    3  A    between atoms: N_9  and  C_15
REMARK    4  A    between atoms: C_16  and  C_24
REMARK    5  A    between atoms: O_25  and  C_27
REMARK    6  A    between atoms: C_29  and  C_34
REMARK                            x       y       z     vdW  Elec       q    Type
REMARK                         _______ _______ _______ _____ _____    ______ ____
ROOT
ATOM      1  F   UNL     1      27.331   8.392  20.221  0.00  0.00    +0.000 F 
ATOM      2  C   UNL     1      26.418   7.275  22.097  0.00  0.00    +0.000 A 
ATOM      3  C   UNL     1      28.130   5.128  21.572  0.00  0.00    +0.000 A 
ATOM      4  C   UNL     1      27.301   7.310  21.014  0.00  0.00    +0.000 A 
ATOM      5  C   UNL     1      26.390   6.138  22.903  0.00  0.00    +0.000 A 
ATOM      6  C   UNL     1      28.148   6.243  20.734  0.00  0.00    +0.000 A 
ATOM      7  C   UNL     1      27.233   5.059  22.636  0.00  0.00    +0.000 A 
ENDROOT
BRANCH   2  10
ATOM      8  O   UNL     1      26.779   9.413  24.029  0.00  0.00    +0.000 OA
ATOM      9  N   UNL     1      24.840  10.364  23.205  0.00  0.00    +0.000 N 
ATOM     10  N   UNL     1      25.595   8.397  22.326  0.00  0.00    +0.000 N 
ATOM     11  C   UNL     1      25.828   9.394  23.259  0.00  0.00    +0.000 C 
ATOM     12  H   UNL     1      24.116  10.262  22.508  0.00  0.00    +0.000 HD
ATOM     13  H   UNL     1      24.761   8.451  21.758  0.00  0.00    +0.000 HD
BRANCH   9  15
ATOM     14 CL   UNL     1      24.439  15.113  26.718  0.00  0.00    +0.000 Cl
ATOM     15  C   UNL     1      24.770  11.506  24.023  0.00  0.00    +0.000 A 
ATOM     16  C   UNL     1      23.633  12.643  25.857  0.00  0.00    +0.000 A 
ATOM     17  C   UNL     1      23.774  11.547  24.999  0.00  0.00    +0.000 A 
ATOM     18  C   UNL     1      25.643  12.583  23.903  0.00  0.00    +0.000 A 
ATOM     19  C   UNL     1      24.519  13.714  25.719  0.00  0.00    +0.000 A 
ATOM     20  C   UNL     1      25.518  13.683  24.746  0.00  0.00    +0.000 A 
BRANCH  16  24
ATOM     21  F   UNL     1      23.019  12.560  28.161  0.00  0.00    +0.000 F 
ATOM     22  F   UNL     1      21.756  13.730  26.845  0.00  0.00    +0.000 F 
ATOM     23  F   UNL     1      21.714  11.551  26.755  0.00  0.00    +0.000 F 
ATOM     24  C   UNL     1      22.544  12.621  26.883  0.00  0.00    +0.000 C 
ENDBRANCH  16  24
ENDBRANCH   9  15
ENDBRANCH   2  10
BRANCH   3  25
ATOM     25  O   UNL     1      28.884   4.008  21.313  0.00  0.00    +0.000 OA
BRANCH  25  27
ATOM     26  N   UNL     1      28.126   1.781  17.867  0.00  0.00    +0.000 NA
ATOM     27  C   UNL     1      28.561   3.258  20.204  0.00  0.00    +0.000 A 
ATOM     28  C   UNL     1      27.324   3.320  19.572  0.00  0.00    +0.000 A 
ATOM     29  C   UNL     1      27.158   2.562  18.425  0.00  0.00    +0.000 A 
ATOM     30  C   UNL     1      29.588   2.493  19.659  0.00  0.00    +0.000 A 
ATOM     31  C   UNL     1      29.319   1.776  18.505  0.00  0.00    +0.000 A 
BRANCH  29  34
ATOM     32  O   UNL     1      25.397   3.608  17.258  0.00  0.00    +0.000 OA
ATOM     33  N   UNL     1      25.247   1.320  17.714  0.00  0.00    +0.000 N 
ATOM     34  C   UNL     1      25.844   2.569  17.733  0.00  0.00    +0.000 C 
ATOM     35  C   UNL     1      23.995   0.870  17.169  0.00  0.00    +0.000 C 
ATOM     36  H   UNL     1      25.789   0.589  18.173  0.00  0.00    +0.000 HD
ENDBRANCH  29  34
ENDBRANCH  25  27
ENDBRANCH   3  25
TORSDOF 6
ENDMDL
MODEL 5
REMARK VINA RESULT:      -6.1     17.671     20.004
REMARK  Name = 11167602_Regorafenib.pdbqt.pdb
REMARK  6 active torsions:
REMARK  status: ('A' for Active; 'I' for Inactive)
REMARK    1  A    between atoms: C_2  and  N_10
REMARK    2  A    between atoms: C_3  and  O_25
REMARK    3  A    between atoms: N_9  and  C_15
REMARK    4  A    between atoms: C_16  and  C_24
REMARK    5  A    between atoms: O_25  and  C_27
REMARK    6  A    between atoms: C_29  and  C_34
REMARK                            x       y       z     vdW  Elec       q    Type
REMARK                         _______ _______ _______ _____ _____    ______ ____
ROOT
ATOM      1  F   UNL     1      24.085  18.049  28.111  0.00  0.00    +0.000 F 
ATOM      2  C   UNL     1      22.550  17.776  26.330  0.00  0.00    +0.000 A 
ATOM      3  C   UNL     1      23.171  20.366  25.481  0.00  0.00    +0.000 A 
ATOM      4  C   UNL     1      23.479  18.555  27.026  0.00  0.00    +0.000 A 
ATOM      5  C   UNL     1      21.920  18.321  25.213  0.00  0.00    +0.000 A 
ATOM      6  C   UNL     1      23.786  19.850  26.621  0.00  0.00    +0.000 A 
ATOM      7  C   UNL     1      22.217  19.618  24.794  0.00  0.00    +0.000 A 
ENDROOT
BRANCH   2  10
ATOM      8  O   UNL     1      24.184  15.397  26.009  0.00  0.00    +0.000 OA
ATOM      9  N   UNL     1      22.587  14.245  27.220  0.00  0.00    +0.000 N 
ATOM     10  N   UNL     1      22.294  16.468  26.792  0.00  0.00    +0.000 N 
ATOM     11  C   UNL     1      23.123  15.372  26.617  0.00  0.00    +0.000 C 
ATOM     12  H   UNL     1      21.716  14.346  27.721  0.00  0.00    +0.000 HD
ATOM     13  H   UNL     1      21.418  16.340  27.279  0.00  0.00    +0.000 HD
BRANCH   9  15
ATOM     14 CL   UNL     1      25.029   8.852  27.079  0.00  0.00    +0.000 Cl
ATOM     15  C   UNL     1      23.169  12.964  27.220  0.00  0.00    +0.000 A 
ATOM     16  C   UNL     1      23.924  11.059  25.896  0.00  0.00    +0.000 A 
ATOM     17  C   UNL     1      23.352  12.333  25.989  0.00  0.00    +0.000 A 
ATOM     18  C   UNL     1      23.567  12.308  28.381  0.00  0.00    +0.000 A 
ATOM     19  C   UNL     1      24.315  10.419  27.073  0.00  0.00    +0.000 A 
ATOM     20  C   UNL     1      24.136  11.041  28.308  0.00  0.00    +0.000 A 
BRANCH  16  24
ATOM     21  F   UNL     1      25.375  10.047  24.296  0.00  0.00    +0.000 F 
ATOM     22  F   UNL     1      23.334   9.324  24.372  0.00  0.00    +0.000 F 
ATOM     23  F   UNL     1      23.773  11.287  23.527  0.00  0.00    +0.000 F 
ATOM     24  C   UNL     1      24.093  10.441  24.544  0.00  0.00    +0.000 C 
ENDBRANCH  16  24
ENDBRANCH   9  15
ENDBRANCH   2  10
BRANCH   3  25
ATOM     25  O   UNL     1      23.370  21.662  25.067  0.00  0.00    +0.000 OA
BRANCH  25  27
ATOM     26  N   UNL     1      22.940  24.730  27.861  0.00  0.00    +0.000 NA
ATOM     27  C   UNL     1      23.149  22.669  25.980  0.00  0.00    +0.000 A 
ATOM     28  C   UNL     1      22.132  22.634  26.928  0.00  0.00    +0.000 A 
ATOM     29  C   UNL     1      22.068  23.684  27.828  0.00  0.00    +0.000 A 
ATOM     30  C   UNL     1      24.078  23.705  25.988  0.00  0.00    +0.000 A 
ATOM     31  C   UNL     1      23.926  24.704  26.935  0.00  0.00    +0.000 A 
BRANCH  29  34
ATOM     32  O   UNL     1      20.838  24.675  29.579  0.00  0.00    +0.000 OA
ATOM     33  N   UNL     1      20.211  22.555  28.818  0.00  0.00    +0.000 N 
ATOM     34  C   UNL     1      20.978  23.707  28.839  0.00  0.00    +0.000 C 
ATOM     35  C   UNL     1      19.078  22.150  29.606  0.00  0.00    +0.000 C 
ATOM     36  H   UNL     1      20.503  21.869  28.123  0.00  0.00    +0.000 HD
ENDBRANCH  29  34
ENDBRANCH  25  27
ENDBRANCH   3  25
TORSDOF 6
ENDMDL
MODEL 6
REMARK VINA RESULT:      -6.0     20.545     21.866
REMARK  Name = 11167602_Regorafenib.pdbqt.pdb
REMARK  6 active torsions:
REMARK  status: ('A' for Active; 'I' for Inactive)
REMARK    1  A    between atoms: C_2  and  N_10
REMARK    2  A    between atoms: C_3  and  O_25
REMARK    3  A    between atoms: N_9  and  C_15
REMARK    4  A    between atoms: C_16  and  C_24
REMARK    5  A    between atoms: O_25  and  C_27
REMARK    6  A    between atoms: C_29  and  C_34
REMARK                            x       y       z     vdW  Elec       q    Type
REMARK                         _______ _______ _______ _____ _____    ______ ____
ROOT
ATOM      1  F   UNL     1      23.787  12.884  29.779  0.00  0.00    +0.000 F 
ATOM      2  C   UNL     1      22.832  12.835  27.614  0.00  0.00    +0.000 A 
ATOM      3  C   UNL     1      23.968  10.309  27.237  0.00  0.00    +0.000 A 
ATOM      4  C   UNL     1      23.600  12.238  28.618  0.00  0.00    +0.000 A 
ATOM      5  C   UNL     1      22.658  12.157  26.408  0.00  0.00    +0.000 A 
ATOM      6  C   UNL     1      24.182  10.987  28.437  0.00  0.00    +0.000 A 
ATOM      7  C   UNL     1      23.235  10.903  26.212  0.00  0.00    +0.000 A 
ENDROOT
BRANCH   2  10
ATOM      8  O   UNL     1      23.924  15.458  27.011  0.00  0.00    +0.000 OA
ATOM      9  N   UNL     1      21.998  16.368  27.910  0.00  0.00    +0.000 N 
ATOM     10  N   UNL     1      22.264  14.101  27.870  0.00  0.00    +0.000 N 
ATOM     11  C   UNL     1      22.832  15.322  27.545  0.00  0.00    +0.000 C 
ATOM     12  H   UNL     1      21.104  16.138  28.319  0.00  0.00    +0.000 HD
ATOM     13  H   UNL     1      21.372  14.093  28.344  0.00  0.00    +0.000 HD
BRANCH   9  15
ATOM     14 CL   UNL     1      23.151  22.107  27.020  0.00  0.00    +0.000 Cl
ATOM     15  C   UNL     1      22.278  17.735  27.731  0.00  0.00    +0.000 A 
ATOM     16  C   UNL     1      22.491  19.593  26.165  0.00  0.00    +0.000 A 
ATOM     17  C   UNL     1      22.228  18.245  26.434  0.00  0.00    +0.000 A 
ATOM     18  C   UNL     1      22.596  18.591  28.781  0.00  0.00    +0.000 A 
ATOM     19  C   UNL     1      22.810  20.433  27.233  0.00  0.00    +0.000 A 
ATOM     20  C   UNL     1      22.862  19.934  28.534  0.00  0.00    +0.000 A 
BRANCH  16  24
ATOM     21  F   UNL     1      23.578  20.660  24.329  0.00  0.00    +0.000 F 
ATOM     22  F   UNL     1      22.178  19.073  23.860  0.00  0.00    +0.000 F 
ATOM     23  F   UNL     1      21.451  21.009  24.554  0.00  0.00    +0.000 F 
ATOM     24  C   UNL     1      22.420  20.074  24.750  0.00  0.00    +0.000 C 
ENDBRANCH  16  24
ENDBRANCH   9  15
ENDBRANCH   2  10
BRANCH   3  25
ATOM     25  O   UNL     1      24.573   9.105  26.961  0.00  0.00    +0.000 OA
BRANCH  25  27
ATOM     26  N   UNL     1      27.490   9.266  23.983  0.00  0.00    +0.000 NA
ATOM     27  C   UNL     1      25.531   9.079  25.973  0.00  0.00    +0.000 A 
ATOM     28  C   UNL     1      25.450   8.263  24.850  0.00  0.00    +0.000 A 
ATOM     29  C   UNL     1      26.451   8.388  23.900  0.00  0.00    +0.000 A 
ATOM     30  C   UNL     1      26.561  10.008  26.091  0.00  0.00    +0.000 A 
ATOM     31  C   UNL     1      27.509  10.056  25.081  0.00  0.00    +0.000 A 
BRANCH  29  34
ATOM     32  O   UNL     1      25.860   6.426  22.735  0.00  0.00    +0.000 OA
ATOM     33  N   UNL     1      27.091   8.073  21.622  0.00  0.00    +0.000 N 
ATOM     34  C   UNL     1      26.426   7.514  22.699  0.00  0.00    +0.000 C 
ATOM     35  C   UNL     1      27.318   7.590  20.287  0.00  0.00    +0.000 C 
ATOM     36  H   UNL     1      27.495   8.990  21.808  0.00  0.00    +0.000 HD
ENDBRANCH  29  34
ENDBRANCH  25  27
ENDBRANCH   3  25
TORSDOF 6
ENDMDL
MODEL 7
REMARK VINA RESULT:      -5.8     12.284     16.410
REMARK  Name = 11167602_Regorafenib.pdbqt.pdb
REMARK  6 active torsions:
REMARK  status: ('A' for Active; 'I' for Inactive)
REMARK    1  A    between atoms: C_2  and  N_10
REMARK    2  A    between atoms: C_3  and  O_25
REMARK    3  A    between atoms: N_9  and  C_15
REMARK    4  A    between atoms: C_16  and  C_24
REMARK    5  A    between atoms: O_25  and  C_27
REMARK    6  A    between atoms: C_29  and  C_34
REMARK                            x       y       z     vdW  Elec       q    Type
REMARK                         _______ _______ _______ _____ _____    ______ ____
ROOT
ATOM      1  F   UNL     1      14.528  20.537  31.471  0.00  0.00    +0.000 F 
ATOM      2  C   UNL     1      14.862  18.335  30.670  0.00  0.00    +0.000 A 
ATOM      3  C   UNL     1      17.466  18.428  31.681  0.00  0.00    +0.000 A 
ATOM      4  C   UNL     1      15.337  19.476  31.323  0.00  0.00    +0.000 A 
ATOM      5  C   UNL     1      15.718  17.246  30.512  0.00  0.00    +0.000 A 
ATOM      6  C   UNL     1      16.635  19.539  31.818  0.00  0.00    +0.000 A 
ATOM      7  C   UNL     1      17.022  17.294  31.004  0.00  0.00    +0.000 A 
ENDROOT
BRANCH   2  10
ATOM      8  O   UNL     1      12.489  17.274  31.966  0.00  0.00    +0.000 OA
ATOM      9  N   UNL     1      11.272  18.014  30.145  0.00  0.00    +0.000 N 
ATOM     10  N   UNL     1      13.531  18.337  30.201  0.00  0.00    +0.000 N 
ATOM     11  C   UNL     1      12.435  17.824  30.875  0.00  0.00    +0.000 C 
ATOM     12  H   UNL     1      11.341  18.508  29.267  0.00  0.00    +0.000 HD
ATOM     13  H   UNL     1      13.391  18.741  29.285  0.00  0.00    +0.000 HD
BRANCH   9  15
ATOM     14 CL   UNL     1       5.889  16.149  31.757  0.00  0.00    +0.000 Cl
ATOM     15  C   UNL     1       9.985  17.602  30.538  0.00  0.00    +0.000 A 
ATOM     16  C   UNL     1       8.387  15.768  30.706  0.00  0.00    +0.000 A 
ATOM     17  C   UNL     1       9.645  16.264  30.344  0.00  0.00    +0.000 A 
ATOM     18  C   UNL     1       9.051  18.462  31.106  0.00  0.00    +0.000 A 
ATOM     19  C   UNL     1       7.464  16.648  31.274  0.00  0.00    +0.000 A 
ATOM     20  C   UNL     1       7.795  17.988  31.472  0.00  0.00    +0.000 A 
BRANCH  16  24
ATOM     21  F   UNL     1       7.753  13.655  31.615  0.00  0.00    +0.000 F 
ATOM     22  F   UNL     1       7.041  14.126  29.623  0.00  0.00    +0.000 F 
ATOM     23  F   UNL     1       9.141  13.636  29.951  0.00  0.00    +0.000 F 
ATOM     24  C   UNL     1       8.087  14.321  30.472  0.00  0.00    +0.000 C 
ENDBRANCH  16  24
ENDBRANCH   9  15
ENDBRANCH   2  10
BRANCH   3  25
ATOM     25  O   UNL     1      18.782  18.447  32.080  0.00  0.00    +0.000 OA
BRANCH  25  27
ATOM     26  N   UNL     1      21.770  16.869  29.632  0.00  0.00    +0.000 NA
ATOM     27  C   UNL     1      19.724  17.947  31.209  0.00  0.00    +0.000 A 
ATOM     28  C   UNL     1      20.089  18.584  30.027  0.00  0.00    +0.000 A 
ATOM     29  C   UNL     1      21.100  18.003  29.280  0.00  0.00    +0.000 A 
ATOM     30  C   UNL     1      20.395  16.800  31.622  0.00  0.00    +0.000 A 
ATOM     31  C   UNL     1      21.396  16.304  30.802  0.00  0.00    +0.000 A 
BRANCH  29  34
ATOM     32  O   UNL     1      21.152  18.133  26.926  0.00  0.00    +0.000 OA
ATOM     33  N   UNL     1      22.273  19.763  28.173  0.00  0.00    +0.000 N 
ATOM     34  C   UNL     1      21.501  18.628  27.993  0.00  0.00    +0.000 C 
ATOM     35  C   UNL     1      22.874  20.666  27.229  0.00  0.00    +0.000 C 
ATOM     36  H   UNL     1      22.451  19.999  29.148  0.00  0.00    +0.000 HD
ENDBRANCH  29  34
ENDBRANCH  25  27
ENDBRANCH   3  25
TORSDOF 6
ENDMDL
MODEL 8
REMARK VINA RESULT:      -5.8      7.505     10.990
REMARK  Name = 11167602_Regorafenib.pdbqt.pdb
REMARK  6 active torsions:
REMARK  status: ('A' for Active; 'I' for Inactive)
REMARK    1  A    between atoms: C_2  and  N_10
REMARK    2  A    between atoms: C_3  and  O_25
REMARK    3  A    between atoms: N_9  and  C_15
REMARK    4  A    between atoms: C_16  and  C_24
REMARK    5  A    between atoms: O_25  and  C_27
REMARK    6  A    between atoms: C_29  and  C_34
REMARK                            x       y       z     vdW  Elec       q    Type
REMARK                         _______ _______ _______ _____ _____    ______ ____
ROOT
ATOM      1  F   UNL     1      14.468  36.171  21.540  0.00  0.00    +0.000 F 
ATOM      2  C   UNL     1      13.522  34.031  21.182  0.00  0.00    +0.000 A 
ATOM      3  C   UNL     1      14.733  33.168  23.549  0.00  0.00    +0.000 A 
ATOM      4  C   UNL     1      14.304  34.902  21.947  0.00  0.00    +0.000 A 
ATOM      5  C   UNL     1      13.373  32.713  21.611  0.00  0.00    +0.000 A 
ATOM      6  C   UNL     1      14.923  34.481  23.119  0.00  0.00    +0.000 A 
ATOM      7  C   UNL     1      13.986  32.275  22.784  0.00  0.00    +0.000 A 
ENDROOT
BRANCH   2  10
ATOM      8  O   UNL     1      14.612  34.136  18.492  0.00  0.00    +0.000 OA
ATOM      9  N   UNL     1      12.610  35.073  17.814  0.00  0.00    +0.000 N 
ATOM     10  N   UNL     1      12.916  34.529  20.009  0.00  0.00    +0.000 N 
ATOM     11  C   UNL     1      13.486  34.540  18.747  0.00  0.00    +0.000 C 
ATOM     12  H   UNL     1      11.693  35.349  18.131  0.00  0.00    +0.000 HD
ATOM     13  H   UNL     1      11.991  34.919  20.127  0.00  0.00    +0.000 HD
BRANCH   9  15
ATOM     14 CL   UNL     1      13.676  35.644  12.018  0.00  0.00    +0.000 Cl
ATOM     15  C   UNL     1      12.880  35.238  16.443  0.00  0.00    +0.000 A 
ATOM     16  C   UNL     1      12.655  34.329  14.190  0.00  0.00    +0.000 A 
ATOM     17  C   UNL     1      12.432  34.246  15.569  0.00  0.00    +0.000 A 
ATOM     18  C   UNL     1      13.564  36.334  15.927  0.00  0.00    +0.000 A 
ATOM     19  C   UNL     1      13.345  35.437  13.694  0.00  0.00    +0.000 A 
ATOM     20  C   UNL     1      13.797  36.433  14.559  0.00  0.00    +0.000 A 
BRANCH  16  24
ATOM     21  F   UNL     1      11.156  33.644  12.466  0.00  0.00    +0.000 F 
ATOM     22  F   UNL     1      13.110  32.708  12.504  0.00  0.00    +0.000 F 
ATOM     23  F   UNL     1      11.616  32.192  14.007  0.00  0.00    +0.000 F 
ATOM     24  C   UNL     1      12.147  33.232  13.309  0.00  0.00    +0.000 C 
ENDBRANCH  16  24
ENDBRANCH   9  15
ENDBRANCH   2  10
BRANCH   3  25
ATOM     25  O   UNL     1      15.375  32.663  24.656  0.00  0.00    +0.000 OA
BRANCH  25  27
ATOM     26  N   UNL     1      13.236  31.828  28.140  0.00  0.00    +0.000 NA
ATOM     27  C   UNL     1      14.627  32.453  25.793  0.00  0.00    +0.000 A 
ATOM     28  C   UNL     1      13.253  32.664  25.854  0.00  0.00    +0.000 A 
ATOM     29  C   UNL     1      12.616  32.348  27.043  0.00  0.00    +0.000 A 
ATOM     30  C   UNL     1      15.301  31.904  26.878  0.00  0.00    +0.000 A 
ATOM     31  C   UNL     1      14.567  31.618  28.019  0.00  0.00    +0.000 A 
BRANCH  29  34
ATOM     32  O   UNL     1      10.519  32.081  28.088  0.00  0.00    +0.000 OA
ATOM     33  N   UNL     1      10.662  33.401  26.163  0.00  0.00    +0.000 N 
ATOM     34  C   UNL     1      11.155  32.587  27.168  0.00  0.00    +0.000 C 
ATOM     35  C   UNL     1       9.335  33.882  25.891  0.00  0.00    +0.000 C 
ATOM     36  H   UNL     1      11.364  33.711  25.493  0.00  0.00    +0.000 HD
ENDBRANCH  29  34
ENDBRANCH  25  27
ENDBRANCH   3  25
TORSDOF 6
ENDMDL
MODEL 9
REMARK VINA RESULT:      -5.8     26.068     27.738
REMARK  Name = 11167602_Regorafenib.pdbqt.pdb
REMARK  6 active torsions:
REMARK  status: ('A' for Active; 'I' for Inactive)
REMARK    1  A    between atoms: C_2  and  N_10
REMARK    2  A    between atoms: C_3  and  O_25
REMARK    3  A    between atoms: N_9  and  C_15
REMARK    4  A    between atoms: C_16  and  C_24
REMARK    5  A    between atoms: O_25  and  C_27
REMARK    6  A    between atoms: C_29  and  C_34
REMARK                            x       y       z     vdW  Elec       q    Type
REMARK                         _______ _______ _______ _____ _____    ______ ____
ROOT
ATOM      1  F   UNL     1       1.193  13.150   3.950  0.00  0.00    +0.000 F 
ATOM      2  C   UNL     1       2.861  14.248   5.219  0.00  0.00    +0.000 A 
ATOM      3  C   UNL     1       3.064  11.962   6.815  0.00  0.00    +0.000 A 
ATOM      4  C   UNL     1       2.063  13.128   4.972  0.00  0.00    +0.000 A 
ATOM      5  C   UNL     1       3.750  14.214   6.293  0.00  0.00    +0.000 A 
ATOM      6  C   UNL     1       2.145  11.989   5.767  0.00  0.00    +0.000 A 
ATOM      7  C   UNL     1       3.844  13.081   7.099  0.00  0.00    +0.000 A 
ENDROOT
BRANCH   2  10
ATOM      8  O   UNL     1       4.318  14.830   2.775  0.00  0.00    +0.000 OA
ATOM      9  N   UNL     1       3.057  16.759   2.589  0.00  0.00    +0.000 N 
ATOM     10  N   UNL     1       2.732  15.364   4.366  0.00  0.00    +0.000 N 
ATOM     11  C   UNL     1       3.451  15.580   3.202  0.00  0.00    +0.000 C 
ATOM     12  H   UNL     1       2.309  17.286   3.015  0.00  0.00    +0.000 HD
ATOM     13  H   UNL     1       2.060  16.061   4.657  0.00  0.00    +0.000 HD
BRANCH   9  15
ATOM     14 CL   UNL     1       5.429  18.984  -2.359  0.00  0.00    +0.000 Cl
ATOM     15  C   UNL     1       3.594  17.277   1.396  0.00  0.00    +0.000 A 
ATOM     16  C   UNL     1       5.443  18.455   0.326  0.00  0.00    +0.000 A 
ATOM     17  C   UNL     1       4.835  17.911   1.463  0.00  0.00    +0.000 A 
ATOM     18  C   UNL     1       2.948  17.184   0.167  0.00  0.00    +0.000 A 
ATOM     19  C   UNL     1       4.777  18.352  -0.897  0.00  0.00    +0.000 A 
ATOM     20  C   UNL     1       3.536  17.720  -0.975  0.00  0.00    +0.000 A 
BRANCH  16  24
ATOM     21  F   UNL     1       6.751  20.438   0.114  0.00  0.00    +0.000 F 
ATOM     22  F   UNL     1       7.246  19.099   1.745  0.00  0.00    +0.000 F 
ATOM     23  F   UNL     1       7.738  18.557  -0.310  0.00  0.00    +0.000 F 
ATOM     24  C   UNL     1       6.775  19.121   0.468  0.00  0.00    +0.000 C 
ENDBRANCH  16  24
ENDBRANCH   9  15
ENDBRANCH   2  10
BRANCH   3  25
ATOM     25  O   UNL     1       3.146  10.901   7.687  0.00  0.00    +0.000 OA
BRANCH  25  27
ATOM     26  N   UNL     1       2.487  11.429  11.773  0.00  0.00    +0.000 NA
ATOM     27  C   UNL     1       2.889  11.142   9.018  0.00  0.00    +0.000 A 
ATOM     28  C   UNL     1       1.664  11.601   9.490  0.00  0.00    +0.000 A 
ATOM     29  C   UNL     1       1.522  11.735  10.861  0.00  0.00    +0.000 A 
ATOM     30  C   UNL     1       3.897  10.794   9.911  0.00  0.00    +0.000 A 
ATOM     31  C   UNL     1       3.651  10.961  11.264  0.00  0.00    +0.000 A 
BRANCH  29  34
ATOM     32  O   UNL     1       0.034  12.239  12.620  0.00  0.00    +0.000 OA
ATOM     33  N   UNL     1      -0.610  12.717  10.424  0.00  0.00    +0.000 N 
ATOM     34  C   UNL     1       0.243  12.254  11.411  0.00  0.00    +0.000 C 
ATOM     35  C   UNL     1      -1.927  13.290  10.493  0.00  0.00    +0.000 C 
ATOM     36  H   UNL     1      -0.241  12.634   9.477  0.00  0.00    +0.000 HD
ENDBRANCH  29  34
ENDBRANCH  25  27
ENDBRANCH   3  25
TORSDOF 6
ENDMDL
