MODEL 1
REMARK VINA RESULT:      -5.3      0.000      0.000
REMARK  Name = 114778_Kahweol.pdbqt.pdb
REMARK  3 active torsions:
REMARK  status: ('A' for Active; 'I' for Inactive)
REMARK    1  A    between atoms: C_8  and  O_21
REMARK    2  A    between atoms: C_8  and  C_23
REMARK    3  A    between atoms: C_23  and  O_24
REMARK                            x       y       z     vdW  Elec       q    Type
REMARK                         _______ _______ _______ _____ _____    ______ ____
ROOT
ATOM      1  O   UNL     1       3.325  22.766  29.303  0.00  0.00    +0.000 OA
ATOM      2  C   UNL     1       1.241  17.099  27.640  0.00  0.00    +0.000 C 
ATOM      3  C   UNL     1       0.456  18.482  27.678  0.00  0.00    +0.000 C 
ATOM      4  C   UNL     1      -0.321  16.047  26.163  0.00  0.00    +0.000 C 
ATOM      5  C   UNL     1       0.211  16.030  27.536  0.00  0.00    +0.000 C 
ATOM      6  C   UNL     1       1.803  16.918  26.284  0.00  0.00    +0.000 C 
ATOM      7  C   UNL     1       0.632  19.485  28.824  0.00  0.00    +0.000 C 
ATOM      8  C   UNL     1       1.003  16.163  25.299  0.00  0.00    +0.000 C 
ATOM      9  C   UNL     1       2.189  17.062  28.723  0.00  0.00    +0.000 C 
ATOM     10  C   UNL     1      -0.725  18.455  26.831  0.00  0.00    +0.000 C 
ATOM     11  C   UNL     1      -1.197  17.206  26.075  0.00  0.00    +0.000 C 
ATOM     12  C   UNL     1       2.037  19.391  29.636  0.00  0.00    +0.000 C 
ATOM     13  C   UNL     1       2.632  18.110  29.693  0.00  0.00    +0.000 C 
ATOM     14  C   UNL     1      -0.500  19.259  29.879  0.00  0.00    +0.000 C 
ATOM     15  C   UNL     1       0.588  20.868  28.274  0.00  0.00    +0.000 C 
ATOM     16  C   UNL     1       2.830  20.594  29.743  0.00  0.00    +0.000 A 
ATOM     17  C   UNL     1       1.274  21.848  28.357  0.00  0.00    +0.000 C 
ATOM     18  C   UNL     1       2.449  21.767  29.125  0.00  0.00    +0.000 A 
ATOM     19  C   UNL     1       4.060  20.894  30.362  0.00  0.00    +0.000 A 
ATOM     20  C   UNL     1       4.321  22.228  30.080  0.00  0.00    +0.000 A 
ENDROOT
BRANCH   8  21
ATOM     21  O   UNL     1       1.578  14.882  25.111  0.00  0.00    +0.000 OA
ATOM     22  H   UNL     1       2.082  14.696  25.921  0.00  0.00    +0.000 HD
ENDBRANCH   8  21
BRANCH   8  23
ATOM     23  C   UNL     1       0.818  16.818  23.998  0.00  0.00    +0.000 C 
BRANCH  23  24
ATOM     24  O   UNL     1       0.651  17.397  22.808  0.00  0.00    +0.000 OA
ATOM     25  H   UNL     1       0.125  18.212  22.889  0.00  0.00    +0.000 HD
ENDBRANCH  23  24
ENDBRANCH   8  23
TORSDOF 3
ENDMDL
MODEL 2
REMARK VINA RESULT:      -5.1     30.472     31.840
REMARK  Name = 114778_Kahweol.pdbqt.pdb
REMARK  3 active torsions:
REMARK  status: ('A' for Active; 'I' for Inactive)
REMARK    1  A    between atoms: C_8  and  O_21
REMARK    2  A    between atoms: C_8  and  C_23
REMARK    3  A    between atoms: C_23  and  O_24
REMARK                            x       y       z     vdW  Elec       q    Type
REMARK                         _______ _______ _______ _____ _____    ______ ____
ROOT
ATOM      1  O   UNL     1      28.124  17.485  10.488  0.00  0.00    +0.000 OA
ATOM      2  C   UNL     1      30.324  13.286  14.579  0.00  0.00    +0.000 C 
ATOM      3  C   UNL     1      28.840  13.833  14.407  0.00  0.00    +0.000 C 
ATOM      4  C   UNL     1      29.654  11.327  15.783  0.00  0.00    +0.000 C 
ATOM      5  C   UNL     1      30.374  12.606  15.902  0.00  0.00    +0.000 C 
ATOM      6  C   UNL     1      30.467  12.062  13.761  0.00  0.00    +0.000 C 
ATOM      7  C   UNL     1      28.546  15.314  14.142  0.00  0.00    +0.000 C 
ATOM      8  C   UNL     1      30.217  10.760  14.414  0.00  0.00    +0.000 C 
ATOM      9  C   UNL     1      31.256  14.345  14.294  0.00  0.00    +0.000 C 
ATOM     10  C   UNL     1      27.861  12.928  14.989  0.00  0.00    +0.000 C 
ATOM     11  C   UNL     1      28.236  11.654  15.757  0.00  0.00    +0.000 C 
ATOM     12  C   UNL     1      29.748  16.159  13.448  0.00  0.00    +0.000 C 
ATOM     13  C   UNL     1      31.059  15.719  13.738  0.00  0.00    +0.000 C 
ATOM     14  C   UNL     1      28.236  16.025  15.499  0.00  0.00    +0.000 C 
ATOM     15  C   UNL     1      27.396  15.422  13.201  0.00  0.00    +0.000 C 
ATOM     16  C   UNL     1      29.447  16.872  12.227  0.00  0.00    +0.000 A 
ATOM     17  C   UNL     1      27.176  16.004  12.176  0.00  0.00    +0.000 C 
ATOM     18  C   UNL     1      28.207  16.789  11.630  0.00  0.00    +0.000 A 
ATOM     19  C   UNL     1      30.206  17.697  11.373  0.00  0.00    +0.000 A 
ATOM     20  C   UNL     1      29.361  18.059  10.333  0.00  0.00    +0.000 A 
ENDROOT
BRANCH   8  21
ATOM     21  O   UNL     1      31.452  10.099  14.629  0.00  0.00    +0.000 OA
ATOM     22  H   UNL     1      32.022  10.743  15.082  0.00  0.00    +0.000 HD
ENDBRANCH   8  21
BRANCH   8  23
ATOM     23  C   UNL     1      29.293   9.865  13.706  0.00  0.00    +0.000 C 
BRANCH  23  24
ATOM     24  O   UNL     1      28.440   9.060  13.072  0.00  0.00    +0.000 OA
ATOM     25  H   UNL     1      28.914   8.442  12.487  0.00  0.00    +0.000 HD
ENDBRANCH  23  24
ENDBRANCH   8  23
TORSDOF 3
ENDMDL
MODEL 3
REMARK VINA RESULT:      -4.8     16.863     19.050
REMARK  Name = 114778_Kahweol.pdbqt.pdb
REMARK  3 active torsions:
REMARK  status: ('A' for Active; 'I' for Inactive)
REMARK    1  A    between atoms: C_8  and  O_21
REMARK    2  A    between atoms: C_8  and  C_23
REMARK    3  A    between atoms: C_23  and  O_24
REMARK                            x       y       z     vdW  Elec       q    Type
REMARK                         _______ _______ _______ _____ _____    ______ ____
ROOT
ATOM      1  O   UNL     1       4.463   0.538  28.486  0.00  0.00    +0.000 OA
ATOM      2  C   UNL     1       4.450   1.410  22.284  0.00  0.00    +0.000 C 
ATOM      3  C   UNL     1       5.509   0.634  23.184  0.00  0.00    +0.000 C 
ATOM      4  C   UNL     1       5.128   0.344  20.251  0.00  0.00    +0.000 C 
ATOM      5  C   UNL     1       5.098   1.633  20.963  0.00  0.00    +0.000 C 
ATOM      6  C   UNL     1       3.441   0.438  21.810  0.00  0.00    +0.000 C 
ATOM      7  C   UNL     1       5.973   1.175  24.541  0.00  0.00    +0.000 C 
ATOM      8  C   UNL     1       3.660  -0.201  20.496  0.00  0.00    +0.000 C 
ATOM      9  C   UNL     1       3.940   2.538  23.019  0.00  0.00    +0.000 C 
ATOM     10  C   UNL     1       6.295  -0.305  22.400  0.00  0.00    +0.000 C 
ATOM     11  C   UNL     1       6.174  -0.450  20.878  0.00  0.00    +0.000 C 
ATOM     12  C   UNL     1       4.941   2.185  25.289  0.00  0.00    +0.000 C 
ATOM     13  C   UNL     1       4.111   2.956  24.444  0.00  0.00    +0.000 C 
ATOM     14  C   UNL     1       7.303   1.972  24.346  0.00  0.00    +0.000 C 
ATOM     15  C   UNL     1       6.159   0.036  25.482  0.00  0.00    +0.000 C 
ATOM     16  C   UNL     1       4.542   1.855  26.638  0.00  0.00    +0.000 A 
ATOM     17  C   UNL     1       5.796  -0.228  26.594  0.00  0.00    +0.000 C 
ATOM     18  C   UNL     1       4.963   0.694  27.252  0.00  0.00    +0.000 A 
ATOM     19  C   UNL     1       3.700   2.478  27.580  0.00  0.00    +0.000 A 
ATOM     20  C   UNL     1       3.687   1.651  28.695  0.00  0.00    +0.000 A 
ENDROOT
BRANCH   8  21
ATOM     21  O   UNL     1       2.766   0.357  19.549  0.00  0.00    +0.000 OA
ATOM     22  H   UNL     1       2.710  -0.288  18.824  0.00  0.00    +0.000 HD
ENDBRANCH   8  21
BRANCH   8  23
ATOM     23  C   UNL     1       3.549  -1.665  20.479  0.00  0.00    +0.000 C 
BRANCH  23  24
ATOM     24  O   UNL     1       3.465  -2.995  20.455  0.00  0.00    +0.000 OA
ATOM     25  H   UNL     1       4.172  -3.378  19.905  0.00  0.00    +0.000 HD
ENDBRANCH  23  24
ENDBRANCH   8  23
TORSDOF 3
ENDMDL
MODEL 4
REMARK VINA RESULT:      -4.8     28.157     30.979
REMARK  Name = 114778_Kahweol.pdbqt.pdb
REMARK  3 active torsions:
REMARK  status: ('A' for Active; 'I' for Inactive)
REMARK    1  A    between atoms: C_8  and  O_21
REMARK    2  A    between atoms: C_8  and  C_23
REMARK    3  A    between atoms: C_23  and  O_24
REMARK                            x       y       z     vdW  Elec       q    Type
REMARK                         _______ _______ _______ _____ _____    ______ ____
ROOT
ATOM      1  O   UNL     1      20.142  -4.378  11.316  0.00  0.00    +0.000 OA
ATOM      2  C   UNL     1      19.525  -0.994  16.549  0.00  0.00    +0.000 C 
ATOM      3  C   UNL     1      19.189  -2.529  16.305  0.00  0.00    +0.000 C 
ATOM      4  C   UNL     1      19.627  -1.209  18.931  0.00  0.00    +0.000 C 
ATOM      5  C   UNL     1      18.861  -0.612  17.825  0.00  0.00    +0.000 C 
ATOM      6  C   UNL     1      20.913  -0.895  17.051  0.00  0.00    +0.000 C 
ATOM      7  C   UNL     1      18.508  -3.018  15.021  0.00  0.00    +0.000 C 
ATOM      8  C   UNL     1      21.120  -0.877  18.514  0.00  0.00    +0.000 C 
ATOM      9  C   UNL     1      19.236  -0.248  15.352  0.00  0.00    +0.000 C 
ATOM     10  C   UNL     1      19.145  -3.276  17.552  0.00  0.00    +0.000 C 
ATOM     11  C   UNL     1      19.309  -2.630  18.934  0.00  0.00    +0.000 C 
ATOM     12  C   UNL     1      18.701  -2.070  13.715  0.00  0.00    +0.000 C 
ATOM     13  C   UNL     1      18.861  -0.689  13.973  0.00  0.00    +0.000 C 
ATOM     14  C   UNL     1      16.968  -3.120  15.266  0.00  0.00    +0.000 C 
ATOM     15  C   UNL     1      19.082  -4.337  14.636  0.00  0.00    +0.000 C 
ATOM     16  C   UNL     1      19.237  -2.678  12.519  0.00  0.00    +0.000 A 
ATOM     17  C   UNL     1      19.546  -4.815  13.639  0.00  0.00    +0.000 C 
ATOM     18  C   UNL     1      19.636  -3.998  12.498  0.00  0.00    +0.000 A 
ATOM     19  C   UNL     1      19.524  -2.192  11.228  0.00  0.00    +0.000 A 
ATOM     20  C   UNL     1      20.062  -3.260  10.523  0.00  0.00    +0.000 A 
ENDROOT
BRANCH   8  21
ATOM     21  O   UNL     1      21.462   0.436  18.923  0.00  0.00    +0.000 OA
ATOM     22  H   UNL     1      20.620   0.881  19.118  0.00  0.00    +0.000 HD
ENDBRANCH   8  21
BRANCH   8  23
ATOM     23  C   UNL     1      22.115  -1.829  19.024  0.00  0.00    +0.000 C 
BRANCH  23  24
ATOM     24  O   UNL     1      23.029  -2.690  19.472  0.00  0.00    +0.000 OA
ATOM     25  H   UNL     1      22.971  -2.786  20.439  0.00  0.00    +0.000 HD
ENDBRANCH  23  24
ENDBRANCH   8  23
TORSDOF 3
ENDMDL
MODEL 5
REMARK VINA RESULT:      -4.7     28.924     31.655
REMARK  Name = 114778_Kahweol.pdbqt.pdb
REMARK  3 active torsions:
REMARK  status: ('A' for Active; 'I' for Inactive)
REMARK    1  A    between atoms: C_8  and  O_21
REMARK    2  A    between atoms: C_8  and  C_23
REMARK    3  A    between atoms: C_23  and  O_24
REMARK                            x       y       z     vdW  Elec       q    Type
REMARK                         _______ _______ _______ _____ _____    ______ ____
ROOT
ATOM      1  O   UNL     1      19.388  -6.931  12.664  0.00  0.00    +0.000 OA
ATOM      2  C   UNL     1      19.950  -1.126  14.946  0.00  0.00    +0.000 C 
ATOM      3  C   UNL     1      19.310  -2.412  15.629  0.00  0.00    +0.000 C 
ATOM      4  C   UNL     1      20.252   0.043  17.013  0.00  0.00    +0.000 C 
ATOM      5  C   UNL     1      19.502   0.046  15.746  0.00  0.00    +0.000 C 
ATOM      6  C   UNL     1      21.376  -1.053  15.333  0.00  0.00    +0.000 C 
ATOM      7  C   UNL     1      18.423  -3.390  14.850  0.00  0.00    +0.000 C 
ATOM      8  C   UNL     1      21.730  -0.246  16.519  0.00  0.00    +0.000 C 
ATOM      9  C   UNL     1      19.684  -1.158  13.531  0.00  0.00    +0.000 C 
ATOM     10  C   UNL     1      19.255  -2.282  17.076  0.00  0.00    +0.000 C 
ATOM     11  C   UNL     1      19.676  -1.014  17.831  0.00  0.00    +0.000 C 
ATOM     12  C   UNL     1      18.655  -3.425  13.241  0.00  0.00    +0.000 C 
ATOM     13  C   UNL     1      19.095  -2.217  12.654  0.00  0.00    +0.000 C 
ATOM     14  C   UNL     1      16.924  -3.006  15.069  0.00  0.00    +0.000 C 
ATOM     15  C   UNL     1      18.699  -4.777  15.316  0.00  0.00    +0.000 C 
ATOM     16  C   UNL     1      18.944  -4.704  12.635  0.00  0.00    +0.000 A 
ATOM     17  C   UNL     1      18.961  -5.823  14.794  0.00  0.00    +0.000 C 
ATOM     18  C   UNL     1      19.086  -5.847  13.393  0.00  0.00    +0.000 A 
ATOM     19  C   UNL     1      19.183  -5.117  11.308  0.00  0.00    +0.000 A 
ATOM     20  C   UNL     1      19.438  -6.481  11.368  0.00  0.00    +0.000 A 
ENDROOT
BRANCH   8  21
ATOM     21  O   UNL     1      22.351   0.956  16.099  0.00  0.00    +0.000 OA
ATOM     22  H   UNL     1      22.572   0.828  15.162  0.00  0.00    +0.000 HD
ENDBRANCH   8  21
BRANCH   8  23
ATOM     23  C   UNL     1      22.577  -0.920  17.512  0.00  0.00    +0.000 C 
BRANCH  23  24
ATOM     24  O   UNL     1      23.331  -1.540  18.420  0.00  0.00    +0.000 OA
ATOM     25  H   UNL     1      24.231  -1.689  18.081  0.00  0.00    +0.000 HD
ENDBRANCH  23  24
ENDBRANCH   8  23
TORSDOF 3
ENDMDL
MODEL 6
REMARK VINA RESULT:      -4.7      8.903     11.032
REMARK  Name = 114778_Kahweol.pdbqt.pdb
REMARK  3 active torsions:
REMARK  status: ('A' for Active; 'I' for Inactive)
REMARK    1  A    between atoms: C_8  and  O_21
REMARK    2  A    between atoms: C_8  and  C_23
REMARK    3  A    between atoms: C_23  and  O_24
REMARK                            x       y       z     vdW  Elec       q    Type
REMARK                         _______ _______ _______ _____ _____    ______ ____
ROOT
ATOM      1  O   UNL     1       9.373  15.540  36.724  0.00  0.00    +0.000 OA
ATOM      2  C   UNL     1       9.926  17.277  30.733  0.00  0.00    +0.000 C 
ATOM      3  C   UNL     1      10.745  17.780  32.001  0.00  0.00    +0.000 C 
ATOM      4  C   UNL     1      11.560  18.029  29.154  0.00  0.00    +0.000 C 
ATOM      5  C   UNL     1      10.190  18.254  29.642  0.00  0.00    +0.000 C 
ATOM      6  C   UNL     1      10.661  16.148  30.122  0.00  0.00    +0.000 C 
ATOM      7  C   UNL     1      10.067  18.061  33.347  0.00  0.00    +0.000 C 
ATOM      8  C   UNL     1      11.610  16.449  29.031  0.00  0.00    +0.000 C 
ATOM      9  C   UNL     1       8.568  17.004  31.124  0.00  0.00    +0.000 C 
ATOM     10  C   UNL     1      12.015  18.378  31.619  0.00  0.00    +0.000 C 
ATOM     11  C   UNL     1      12.454  18.579  30.163  0.00  0.00    +0.000 C 
ATOM     12  C   UNL     1       8.673  17.270  33.614  0.00  0.00    +0.000 C 
ATOM     13  C   UNL     1       7.908  16.961  32.465  0.00  0.00    +0.000 C 
ATOM     14  C   UNL     1       9.733  19.585  33.443  0.00  0.00    +0.000 C 
ATOM     15  C   UNL     1      10.976  17.638  34.448  0.00  0.00    +0.000 C 
ATOM     16  C   UNL     1       8.572  16.479  34.818  0.00  0.00    +0.000 A 
ATOM     17  C   UNL     1      10.877  16.957  35.430  0.00  0.00    +0.000 C 
ATOM     18  C   UNL     1       9.639  16.340  35.682  0.00  0.00    +0.000 A 
ATOM     19  C   UNL     1       7.548  15.689  35.378  0.00  0.00    +0.000 A 
ATOM     20  C   UNL     1       8.071  15.144  36.543  0.00  0.00    +0.000 A 
ENDROOT
BRANCH   8  21
ATOM     21  O   UNL     1      11.051  16.037  27.796  0.00  0.00    +0.000 OA
ATOM     22  H   UNL     1      10.158  15.712  28.003  0.00  0.00    +0.000 HD
ENDBRANCH   8  21
BRANCH   8  23
ATOM     23  C   UNL     1      12.952  15.875  29.183  0.00  0.00    +0.000 C 
BRANCH  23  24
ATOM     24  O   UNL     1      14.173  15.351  29.303  0.00  0.00    +0.000 OA
ATOM     25  H   UNL     1      14.654  15.394  28.457  0.00  0.00    +0.000 HD
ENDBRANCH  23  24
ENDBRANCH   8  23
TORSDOF 3
ENDMDL
MODEL 7
REMARK VINA RESULT:      -4.7     27.332     30.399
REMARK  Name = 114778_Kahweol.pdbqt.pdb
REMARK  3 active torsions:
REMARK  status: ('A' for Active; 'I' for Inactive)
REMARK    1  A    between atoms: C_8  and  O_21
REMARK    2  A    between atoms: C_8  and  C_23
REMARK    3  A    between atoms: C_23  and  O_24
REMARK                            x       y       z     vdW  Elec       q    Type
REMARK                         _______ _______ _______ _____ _____    ______ ____
ROOT
ATOM      1  O   UNL     1       9.930  21.052   1.292  0.00  0.00    +0.000 OA
ATOM      2  C   UNL     1      16.189  21.053   1.495  0.00  0.00    +0.000 C 
ATOM      3  C   UNL     1      15.224  21.668   0.390  0.00  0.00    +0.000 C 
ATOM      4  C   UNL     1      18.075  22.374   0.840  0.00  0.00    +0.000 C 
ATOM      5  C   UNL     1      17.547  21.000   0.889  0.00  0.00    +0.000 C 
ATOM      6  C   UNL     1      16.494  22.106   2.487  0.00  0.00    +0.000 C 
ATOM      7  C   UNL     1      13.969  20.932  -0.094  0.00  0.00    +0.000 C 
ATOM      8  C   UNL     1      17.712  22.916   2.285  0.00  0.00    +0.000 C 
ATOM      9  C   UNL     1      15.603  19.847   2.018  0.00  0.00    +0.000 C 
ATOM     10  C   UNL     1      15.893  22.688  -0.402  0.00  0.00    +0.000 C 
ATOM     11  C   UNL     1      17.376  23.046  -0.245  0.00  0.00    +0.000 C 
ATOM     12  C   UNL     1      13.337  19.855   0.947  0.00  0.00    +0.000 C 
ATOM     13  C   UNL     1      14.255  19.230   1.821  0.00  0.00    +0.000 C 
ATOM     14  C   UNL     1      14.313  20.136  -1.394  0.00  0.00    +0.000 C 
ATOM     15  C   UNL     1      12.885  21.924  -0.338  0.00  0.00    +0.000 C 
ATOM     16  C   UNL     1      11.944  20.004   1.300  0.00  0.00    +0.000 A 
ATOM     17  C   UNL     1      11.737  22.040  -0.013  0.00  0.00    +0.000 C 
ATOM     18  C   UNL     1      11.188  21.057   0.830  0.00  0.00    +0.000 A 
ATOM     19  C   UNL     1      11.072  19.276   2.135  0.00  0.00    +0.000 A 
ATOM     20  C   UNL     1       9.853  19.941   2.094  0.00  0.00    +0.000 A 
ENDROOT
BRANCH   8  21
ATOM     21  O   UNL     1      18.700  22.519   3.219  0.00  0.00    +0.000 OA
ATOM     22  H   UNL     1      18.426  22.896   4.072  0.00  0.00    +0.000 HD
ENDBRANCH   8  21
BRANCH   8  23
ATOM     23  C   UNL     1      17.523  24.371   2.352  0.00  0.00    +0.000 C 
BRANCH  23  24
ATOM     24  O   UNL     1      17.346  25.692   2.397  0.00  0.00    +0.000 OA
ATOM     25  H   UNL     1      18.169  26.161   2.173  0.00  0.00    +0.000 HD
ENDBRANCH  23  24
ENDBRANCH   8  23
TORSDOF 3
ENDMDL
MODEL 8
REMARK VINA RESULT:      -4.6     16.775     18.975
REMARK  Name = 114778_Kahweol.pdbqt.pdb
REMARK  3 active torsions:
REMARK  status: ('A' for Active; 'I' for Inactive)
REMARK    1  A    between atoms: C_8  and  O_21
REMARK    2  A    between atoms: C_8  and  C_23
REMARK    3  A    between atoms: C_23  and  O_24
REMARK                            x       y       z     vdW  Elec       q    Type
REMARK                         _______ _______ _______ _____ _____    ______ ____
ROOT
ATOM      1  O   UNL     1       3.128   0.811  20.241  0.00  0.00    +0.000 OA
ATOM      2  C   UNL     1       6.028   0.932  25.790  0.00  0.00    +0.000 C 
ATOM      3  C   UNL     1       4.964   1.953  25.195  0.00  0.00    +0.000 C 
ATOM      4  C   UNL     1       5.686   1.617  28.058  0.00  0.00    +0.000 C 
ATOM      5  C   UNL     1       6.661   1.609  26.955  0.00  0.00    +0.000 C 
ATOM      6  C   UNL     1       5.304  -0.095  26.571  0.00  0.00    +0.000 C 
ATOM      7  C   UNL     1       5.004   2.407  23.731  0.00  0.00    +0.000 C 
ATOM      8  C   UNL     1       5.136   0.131  28.021  0.00  0.00    +0.000 C 
ATOM      9  C   UNL     1       6.861   0.438  24.724  0.00  0.00    +0.000 C 
ATOM     10  C   UNL     1       4.317   2.728  26.242  0.00  0.00    +0.000 C 
ATOM     11  C   UNL     1       4.695   2.630  27.725  0.00  0.00    +0.000 C 
ATOM     12  C   UNL     1       5.736   1.390  22.696  0.00  0.00    +0.000 C 
ATOM     13  C   UNL     1       6.771   0.596  23.239  0.00  0.00    +0.000 C 
ATOM     14  C   UNL     1       5.778   3.762  23.637  0.00  0.00    +0.000 C 
ATOM     15  C   UNL     1       3.610   2.546  23.225  0.00  0.00    +0.000 C 
ATOM     16  C   UNL     1       4.985   0.958  21.539  0.00  0.00    +0.000 A 
ATOM     17  C   UNL     1       3.000   2.157  22.270  0.00  0.00    +0.000 C 
ATOM     18  C   UNL     1       3.673   1.336  21.347  0.00  0.00    +0.000 A 
ATOM     19  C   UNL     1       5.283   0.116  20.448  0.00  0.00    +0.000 A 
ATOM     20  C   UNL     1       4.130   0.061  19.676  0.00  0.00    +0.000 A 
ENDROOT
BRANCH   8  21
ATOM     21  O   UNL     1       6.006  -0.731  28.733  0.00  0.00    +0.000 OA
ATOM     22  H   UNL     1       6.443  -0.175  29.400  0.00  0.00    +0.000 HD
ENDBRANCH   8  21
BRANCH   8  23
ATOM     23  C   UNL     1       3.766  -0.018  28.530  0.00  0.00    +0.000 C 
BRANCH  23  24
ATOM     24  O   UNL     1       2.527  -0.143  29.006  0.00  0.00    +0.000 OA
ATOM     25  H   UNL     1       1.878   0.236  28.387  0.00  0.00    +0.000 HD
ENDBRANCH  23  24
ENDBRANCH   8  23
TORSDOF 3
ENDMDL
MODEL 9
REMARK VINA RESULT:      -4.4     28.839     30.820
REMARK  Name = 114778_Kahweol.pdbqt.pdb
REMARK  3 active torsions:
REMARK  status: ('A' for Active; 'I' for Inactive)
REMARK    1  A    between atoms: C_8  and  O_21
REMARK    2  A    between atoms: C_8  and  C_23
REMARK    3  A    between atoms: C_23  and  O_24
REMARK                            x       y       z     vdW  Elec       q    Type
REMARK                         _______ _______ _______ _____ _____    ______ ____
ROOT
ATOM      1  O   UNL     1      12.497  -5.592  14.440  0.00  0.00    +0.000 OA
ATOM      2  C   UNL     1      18.131  -2.986  15.267  0.00  0.00    +0.000 C 
ATOM      3  C   UNL     1      17.721  -4.210  14.336  0.00  0.00    +0.000 C 
ATOM      4  C   UNL     1      20.171  -2.544  14.094  0.00  0.00    +0.000 C 
ATOM      5  C   UNL     1      19.615  -3.014  15.374  0.00  0.00    +0.000 C 
ATOM      6  C   UNL     1      18.048  -1.744  14.468  0.00  0.00    +0.000 C 
ATOM      7  C   UNL     1      16.742  -5.293  14.802  0.00  0.00    +0.000 C 
ATOM      8  C   UNL     1      19.275  -1.271  13.795  0.00  0.00    +0.000 C 
ATOM      9  C   UNL     1      17.336  -3.016  16.467  0.00  0.00    +0.000 C 
ATOM     10  C   UNL     1      18.693  -4.430  13.277  0.00  0.00    +0.000 C 
ATOM     11  C   UNL     1      19.998  -3.634  13.145  0.00  0.00    +0.000 C 
ATOM     12  C   UNL     1      15.701  -4.850  15.969  0.00  0.00    +0.000 C 
ATOM     13  C   UNL     1      16.161  -3.853  16.860  0.00  0.00    +0.000 C 
ATOM     14  C   UNL     1      17.553  -6.502  15.373  0.00  0.00    +0.000 C 
ATOM     15  C   UNL     1      15.891  -5.709  13.654  0.00  0.00    +0.000 C 
ATOM     16  C   UNL     1      14.292  -5.040  15.716  0.00  0.00    +0.000 A 
ATOM     17  C   UNL     1      14.715  -5.837  13.458  0.00  0.00    +0.000 C 
ATOM     18  C   UNL     1      13.834  -5.517  14.506  0.00  0.00    +0.000 A 
ATOM     19  C   UNL     1      13.128  -4.794  16.473  0.00  0.00    +0.000 A 
ATOM     20  C   UNL     1      12.058  -5.154  15.665  0.00  0.00    +0.000 A 
ENDROOT
BRANCH   8  21
ATOM     21  O   UNL     1      19.782  -0.143  14.484  0.00  0.00    +0.000 OA
ATOM     22  H   UNL     1      19.203  -0.018  15.254  0.00  0.00    +0.000 HD
ENDBRANCH   8  21
BRANCH   8  23
ATOM     23  C   UNL     1      19.132  -0.957  12.368  0.00  0.00    +0.000 C 
BRANCH  23  24
ATOM     24  O   UNL     1      19.004  -0.654  11.075  0.00  0.00    +0.000 OA
ATOM     25  H   UNL     1      18.099  -0.353  10.877  0.00  0.00    +0.000 HD
ENDBRANCH  23  24
ENDBRANCH   8  23
TORSDOF 3
ENDMDL
