MODEL 1
REMARK VINA RESULT:      -3.6      0.000      0.000
REMARK  Name = 1174_Uracil.pdbqt.pdb
REMARK  0 active torsions:
REMARK  status: ('A' for Active; 'I' for Inactive)
REMARK                            x       y       z     vdW  Elec       q    Type
REMARK                         _______ _______ _______ _____ _____    ______ ____
ROOT
ATOM      1  O   UNL     1      13.144  20.111  29.151  0.00  0.00    +0.000 OA
ATOM      2  O   UNL     1      14.014  15.814  30.653  0.00  0.00    +0.000 OA
ATOM      3  N   UNL     1      13.642  17.989  29.919  0.00  0.00    +0.000 N 
ATOM      4  N   UNL     1      11.535  18.458  29.006  0.00  0.00    +0.000 N 
ATOM      5  C   UNL     1      12.801  18.951  29.342  0.00  0.00    +0.000 A 
ATOM      6  C   UNL     1      13.289  16.661  30.152  0.00  0.00    +0.000 A 
ATOM      7  C   UNL     1      11.211  17.175  29.238  0.00  0.00    +0.000 A 
ATOM      8  C   UNL     1      11.943  16.374  29.730  0.00  0.00    +0.000 A 
ATOM      9  H   UNL     1      14.569  18.280  30.184  0.00  0.00    +0.000 HD
ATOM     10  H   UNL     1      10.869  19.093  28.584  0.00  0.00    +0.000 HD
ENDROOT
TORSDOF 0
ENDMDL
MODEL 2
REMARK VINA RESULT:      -3.5      9.211     10.028
REMARK  Name = 1174_Uracil.pdbqt.pdb
REMARK  0 active torsions:
REMARK  status: ('A' for Active; 'I' for Inactive)
REMARK                            x       y       z     vdW  Elec       q    Type
REMARK                         _______ _______ _______ _____ _____    ______ ____
ROOT
ATOM      1  O   UNL     1       9.547  27.951  29.632  0.00  0.00    +0.000 OA
ATOM      2  O   UNL     1       7.847  24.284  27.367  0.00  0.00    +0.000 OA
ATOM      3  N   UNL     1       8.683  26.093  28.564  0.00  0.00    +0.000 N 
ATOM      4  N   UNL     1       9.565  27.874  27.323  0.00  0.00    +0.000 N 
ATOM      5  C   UNL     1       9.288  27.358  28.593  0.00  0.00    +0.000 A 
ATOM      6  C   UNL     1       8.372  25.386  27.404  0.00  0.00    +0.000 A 
ATOM      7  C   UNL     1       9.259  27.180  26.214  0.00  0.00    +0.000 A 
ATOM      8  C   UNL     1       8.745  26.105  26.213  0.00  0.00    +0.000 A 
ATOM      9  H   UNL     1       8.457  25.665  29.447  0.00  0.00    +0.000 HD
ATOM     10  H   UNL     1      10.002  28.785  27.259  0.00  0.00    +0.000 HD
ENDROOT
TORSDOF 0
ENDMDL
MODEL 3
REMARK VINA RESULT:      -3.4      2.040      2.550
REMARK  Name = 1174_Uracil.pdbqt.pdb
REMARK  0 active torsions:
REMARK  status: ('A' for Active; 'I' for Inactive)
REMARK                            x       y       z     vdW  Elec       q    Type
REMARK                         _______ _______ _______ _____ _____    ______ ____
ROOT
ATOM      1  O   UNL     1      10.776  17.401  28.797  0.00  0.00    +0.000 OA
ATOM      2  O   UNL     1      13.483  13.790  29.850  0.00  0.00    +0.000 OA
ATOM      3  N   UNL     1      12.074  15.557  29.304  0.00  0.00    +0.000 N 
ATOM      4  N   UNL     1      12.939  17.722  29.544  0.00  0.00    +0.000 N 
ATOM      5  C   UNL     1      11.841  16.935  29.183  0.00  0.00    +0.000 A 
ATOM      6  C   UNL     1      13.269  14.988  29.739  0.00  0.00    +0.000 A 
ATOM      7  C   UNL     1      14.085  17.158  29.961  0.00  0.00    +0.000 A 
ATOM      8  C   UNL     1      14.261  15.983  30.057  0.00  0.00    +0.000 A 
ATOM      9  H   UNL     1      11.321  14.935  29.059  0.00  0.00    +0.000 HD
ATOM     10  H   UNL     1      12.850  18.729  29.484  0.00  0.00    +0.000 HD
ENDROOT
TORSDOF 0
ENDMDL
MODEL 4
REMARK VINA RESULT:      -3.1     18.046     18.895
REMARK  Name = 1174_Uracil.pdbqt.pdb
REMARK  0 active torsions:
REMARK  status: ('A' for Active; 'I' for Inactive)
REMARK                            x       y       z     vdW  Elec       q    Type
REMARK                         _______ _______ _______ _____ _____    ______ ____
ROOT
ATOM      1  O   UNL     1       4.389   2.157  20.833  0.00  0.00    +0.000 OA
ATOM      2  O   UNL     1       6.754   2.864  24.755  0.00  0.00    +0.000 OA
ATOM      3  N   UNL     1       5.542   2.574  22.793  0.00  0.00    +0.000 N 
ATOM      4  N   UNL     1       5.720   0.494  21.729  0.00  0.00    +0.000 N 
ATOM      5  C   UNL     1       5.153   1.772  21.710  0.00  0.00    +0.000 A 
ATOM      6  C   UNL     1       6.407   2.173  23.809  0.00  0.00    +0.000 A 
ATOM      7  C   UNL     1       6.553   0.123  22.716  0.00  0.00    +0.000 A 
ATOM      8  C   UNL     1       6.870   0.822  23.627  0.00  0.00    +0.000 A 
ATOM      9  H   UNL     1       5.168   3.508  22.838  0.00  0.00    +0.000 HD
ATOM     10  H   UNL     1       5.488  -0.146  20.979  0.00  0.00    +0.000 HD
ENDROOT
TORSDOF 0
ENDMDL
MODEL 5
REMARK VINA RESULT:      -3.1     15.297     16.307
REMARK  Name = 1174_Uracil.pdbqt.pdb
REMARK  0 active torsions:
REMARK  status: ('A' for Active; 'I' for Inactive)
REMARK                            x       y       z     vdW  Elec       q    Type
REMARK                         _______ _______ _______ _____ _____    ______ ____
ROOT
ATOM      1  O   UNL     1      26.996   8.411  22.452  0.00  0.00    +0.000 OA
ATOM      2  O   UNL     1      23.458  11.225  23.469  0.00  0.00    +0.000 OA
ATOM      3  N   UNL     1      25.247   9.853  22.903  0.00  0.00    +0.000 N 
ATOM      4  N   UNL     1      25.647   8.001  24.282  0.00  0.00    +0.000 N 
ATOM      5  C   UNL     1      26.044   8.726  23.154  0.00  0.00    +0.000 A 
ATOM      6  C   UNL     1      24.157  10.245  23.677  0.00  0.00    +0.000 A 
ATOM      7  C   UNL     1      24.593   8.392  25.018  0.00  0.00    +0.000 A 
ATOM      8  C   UNL     1      23.929   9.355  24.786  0.00  0.00    +0.000 A 
ATOM      9  H   UNL     1      25.481  10.419  22.104  0.00  0.00    +0.000 HD
ATOM     10  H   UNL     1      26.172   7.172  24.531  0.00  0.00    +0.000 HD
ENDROOT
TORSDOF 0
ENDMDL
MODEL 6
REMARK VINA RESULT:      -3.1     10.551     11.225
REMARK  Name = 1174_Uracil.pdbqt.pdb
REMARK  0 active torsions:
REMARK  status: ('A' for Active; 'I' for Inactive)
REMARK                            x       y       z     vdW  Elec       q    Type
REMARK                         _______ _______ _______ _____ _____    ______ ____
ROOT
ATOM      1  O   UNL     1      22.463  22.165  27.309  0.00  0.00    +0.000 OA
ATOM      2  O   UNL     1      21.662  18.258  24.949  0.00  0.00    +0.000 OA
ATOM      3  N   UNL     1      22.036  20.188  26.190  0.00  0.00    +0.000 N 
ATOM      4  N   UNL     1      23.023  21.997  25.074  0.00  0.00    +0.000 N 
ATOM      5  C   UNL     1      22.505  21.508  26.277  0.00  0.00    +0.000 A 
ATOM      6  C   UNL     1      22.067  19.408  25.036  0.00  0.00    +0.000 A 
ATOM      7  C   UNL     1      23.045  21.232  23.970  0.00  0.00    +0.000 A 
ATOM      8  C   UNL     1      22.641  20.112  23.919  0.00  0.00    +0.000 A 
ATOM      9  H   UNL     1      21.650  19.776  27.024  0.00  0.00    +0.000 HD
ATOM     10  H   UNL     1      23.382  22.944  25.055  0.00  0.00    +0.000 HD
ENDROOT
TORSDOF 0
ENDMDL
MODEL 7
REMARK VINA RESULT:      -3.0      2.740      3.188
REMARK  Name = 1174_Uracil.pdbqt.pdb
REMARK  0 active torsions:
REMARK  status: ('A' for Active; 'I' for Inactive)
REMARK                            x       y       z     vdW  Elec       q    Type
REMARK                         _______ _______ _______ _____ _____    ______ ____
ROOT
ATOM      1  O   UNL     1      11.391  18.356  28.721  0.00  0.00    +0.000 OA
ATOM      2  O   UNL     1       9.947  14.189  30.145  0.00  0.00    +0.000 OA
ATOM      3  N   UNL     1      10.721  16.248  29.392  0.00  0.00    +0.000 N 
ATOM      4  N   UNL     1       9.626  18.156  30.199  0.00  0.00    +0.000 N 
ATOM      5  C   UNL     1      10.641  17.648  29.383  0.00  0.00    +0.000 A 
ATOM      6  C   UNL     1       9.888  15.409  30.130  0.00  0.00    +0.000 A 
ATOM      7  C   UNL     1       8.831  17.333  30.904  0.00  0.00    +0.000 A 
ATOM      8  C   UNL     1       8.917  16.145  30.897  0.00  0.00    +0.000 A 
ATOM      9  H   UNL     1      11.432  15.818  28.824  0.00  0.00    +0.000 HD
ATOM     10  H   UNL     1       9.504  19.160  30.247  0.00  0.00    +0.000 HD
ENDROOT
TORSDOF 0
ENDMDL
MODEL 8
REMARK VINA RESULT:      -3.0     15.601     16.443
REMARK  Name = 1174_Uracil.pdbqt.pdb
REMARK  0 active torsions:
REMARK  status: ('A' for Active; 'I' for Inactive)
REMARK                            x       y       z     vdW  Elec       q    Type
REMARK                         _______ _______ _______ _____ _____    ______ ____
ROOT
ATOM      1  O   UNL     1      23.363  11.290  23.531  0.00  0.00    +0.000 OA
ATOM      2  O   UNL     1      26.710   8.160  22.837  0.00  0.00    +0.000 OA
ATOM      3  N   UNL     1      24.988   9.679  23.206  0.00  0.00    +0.000 N 
ATOM      4  N   UNL     1      25.436  11.930  22.736  0.00  0.00    +0.000 N 
ATOM      5  C   UNL     1      24.500  10.993  23.186  0.00  0.00    +0.000 A 
ATOM      6  C   UNL     1      26.274   9.302  22.823  0.00  0.00    +0.000 A 
ATOM      7  C   UNL     1      26.671  11.550  22.370  0.00  0.00    +0.000 A 
ATOM      8  C   UNL     1      27.065  10.426  22.395  0.00  0.00    +0.000 A 
ATOM      9  H   UNL     1      24.363   8.955  23.521  0.00  0.00    +0.000 HD
ATOM     10  H   UNL     1      25.159  12.903  22.692  0.00  0.00    +0.000 HD
ENDROOT
TORSDOF 0
ENDMDL
MODEL 9
REMARK VINA RESULT:      -2.9     21.311     21.592
REMARK  Name = 1174_Uracil.pdbqt.pdb
REMARK  0 active torsions:
REMARK  status: ('A' for Active; 'I' for Inactive)
REMARK                            x       y       z     vdW  Elec       q    Type
REMARK                         _______ _______ _______ _____ _____    ______ ____
ROOT
ATOM      1  O   UNL     1      27.054  14.136  13.486  0.00  0.00    +0.000 OA
ATOM      2  O   UNL     1      28.611  17.893  15.707  0.00  0.00    +0.000 OA
ATOM      3  N   UNL     1      27.795  16.050  14.549  0.00  0.00    +0.000 N 
ATOM      4  N   UNL     1      28.435  13.934  15.328  0.00  0.00    +0.000 N 
ATOM      5  C   UNL     1      27.707  14.660  14.379  0.00  0.00    +0.000 A 
ATOM      6  C   UNL     1      28.526  16.684  15.551  0.00  0.00    +0.000 A 
ATOM      7  C   UNL     1      29.135  14.561  16.288  0.00  0.00    +0.000 A 
ATOM      8  C   UNL     1      29.196  15.745  16.413  0.00  0.00    +0.000 A 
ATOM      9  H   UNL     1      27.293  16.631  13.897  0.00  0.00    +0.000 HD
ATOM     10  H   UNL     1      28.422  12.923  15.273  0.00  0.00    +0.000 HD
ENDROOT
TORSDOF 0
ENDMDL
