MODEL 1
REMARK VINA RESULT:      -6.4      0.000      0.000
REMARK  Name = 122178712_SalternamideA.pdbqt.pdb
REMARK  8 active torsions:
REMARK  status: ('A' for Active; 'I' for Inactive)
REMARK    1  A    between atoms: C_3  and  O_24
REMARK    2  A    between atoms: C_3  and  C_26
REMARK    3  A    between atoms: C_6  and  N_10
REMARK    4  A    between atoms: C_11  and  C_14
REMARK    5  A    between atoms: C_13  and  C_15
REMARK    6  A    between atoms: C_27  and  C_28
REMARK    7  A    between atoms: C_29  and  C_31
REMARK    8  A    between atoms: C_31  and  O_32
REMARK                            x       y       z     vdW  Elec       q    Type
REMARK                         _______ _______ _______ _____ _____    ______ ____
ROOT
ATOM      1 CL   UNL     1      27.214   8.401  25.505  0.00  0.00    +0.000 Cl
ATOM      2  O   UNL     1      28.467   9.814  22.980  0.00  0.00    +0.000 OA
ATOM      3  C   UNL     1      24.416  10.915  23.947  0.00  0.00    +0.000 C 
ATOM      4  C   UNL     1      25.331  11.393  22.897  0.00  0.00    +0.000 C 
ATOM      5  C   UNL     1      25.312   9.934  24.582  0.00  0.00    +0.000 C 
ATOM      6  C   UNL     1      26.542  11.164  22.476  0.00  0.00    +0.000 C 
ATOM      7  C   UNL     1      26.520   9.486  24.404  0.00  0.00    +0.000 C 
ATOM      8  C   UNL     1      27.313  10.102  23.268  0.00  0.00    +0.000 C 
ENDROOT
BRANCH   6  10
ATOM      9  O   UNL     1      28.333  13.475  22.501  0.00  0.00    +0.000 OA
ATOM     10  N   UNL     1      27.164  11.783  21.423  0.00  0.00    +0.000 N 
ATOM     11  C   UNL     1      28.000  12.869  21.492  0.00  0.00    +0.000 C 
ATOM     12  H   UNL     1      26.971  11.380  20.508  0.00  0.00    +0.000 HD
BRANCH  11  14
ATOM     13  C   UNL     1      28.945  13.673  19.155  0.00  0.00    +0.000 C 
ATOM     14  C   UNL     1      28.521  13.312  20.220  0.00  0.00    +0.000 C 
BRANCH  13  15
ATOM     15  C   UNL     1      29.437  14.098  17.897  0.00  0.00    +0.000 C 
ATOM     16  C   UNL     1      30.422  15.232  17.868  0.00  0.00    +0.000 C 
ATOM     17  C   UNL     1      29.032  13.569  16.655  0.00  0.00    +0.000 C 
ATOM     18  C   UNL     1      28.638  13.048  15.406  0.00  0.00    +0.000 C 
ATOM     19  C   UNL     1      27.980  11.700  15.394  0.00  0.00    +0.000 C 
ATOM     20  C   UNL     1      28.798  13.711  14.178  0.00  0.00    +0.000 C 
ATOM     21  C   UNL     1      28.937  14.321  13.051  0.00  0.00    +0.000 C 
ATOM     22  C   UNL     1      30.210  14.158  12.279  0.00  0.00    +0.000 C 
ATOM     23  C   UNL     1      27.993  15.428  12.699  0.00  0.00    +0.000 C 
ENDBRANCH  13  15
ENDBRANCH  11  14
ENDBRANCH   6  10
BRANCH   3  24
ATOM     24  O   UNL     1      23.332  10.236  23.349  0.00  0.00    +0.000 OA
ATOM     25  H   UNL     1      23.201   9.428  23.875  0.00  0.00    +0.000 HD
ENDBRANCH   3  24
BRANCH   3  26
ATOM     26  C   UNL     1      23.934  11.956  24.846  0.00  0.00    +0.000 C 
ATOM     27  C   UNL     1      23.424  13.046  25.794  0.00  0.00    +0.000 C 
BRANCH  27  28
ATOM     28  C   UNL     1      22.912  14.133  26.743  0.00  0.00    +0.000 C 
ATOM     29  C   UNL     1      22.397  15.219  27.693  0.00  0.00    +0.000 C 
BRANCH  29  31
ATOM     30  O   UNL     1      21.736  17.391  28.246  0.00  0.00    +0.000 OA
ATOM     31  C   UNL     1      21.917  16.233  28.581  0.00  0.00    +0.000 C 
BRANCH  31  32
ATOM     32  O   UNL     1      21.678  15.797  29.831  0.00  0.00    +0.000 OA
ATOM     33  H   UNL     1      20.842  16.242  30.075  0.00  0.00    +0.000 HD
ENDBRANCH  31  32
ENDBRANCH  29  31
ENDBRANCH  27  28
ENDBRANCH   3  26
TORSDOF 8
ENDMDL
MODEL 2
REMARK VINA RESULT:      -5.1     20.464     24.151
REMARK  Name = 122178712_SalternamideA.pdbqt.pdb
REMARK  8 active torsions:
REMARK  status: ('A' for Active; 'I' for Inactive)
REMARK    1  A    between atoms: C_3  and  O_24
REMARK    2  A    between atoms: C_3  and  C_26
REMARK    3  A    between atoms: C_6  and  N_10
REMARK    4  A    between atoms: C_11  and  C_14
REMARK    5  A    between atoms: C_13  and  C_15
REMARK    6  A    between atoms: C_27  and  C_28
REMARK    7  A    between atoms: C_29  and  C_31
REMARK    8  A    between atoms: C_31  and  O_32
REMARK                            x       y       z     vdW  Elec       q    Type
REMARK                         _______ _______ _______ _____ _____    ______ ____
ROOT
ATOM      1 CL   UNL     1      18.210  29.556   2.395  0.00  0.00    +0.000 Cl
ATOM      2  O   UNL     1      17.010  26.644   2.239  0.00  0.00    +0.000 OA
ATOM      3  C   UNL     1      21.307  26.929   2.106  0.00  0.00    +0.000 C 
ATOM      4  C   UNL     1      20.408  25.763   2.111  0.00  0.00    +0.000 C 
ATOM      5  C   UNL     1      20.285  27.987   2.163  0.00  0.00    +0.000 C 
ATOM      6  C   UNL     1      19.130  25.513   2.137  0.00  0.00    +0.000 C 
ATOM      7  C   UNL     1      18.987  28.064   2.191  0.00  0.00    +0.000 C 
ATOM      8  C   UNL     1      18.229  26.752   2.191  0.00  0.00    +0.000 C 
ENDROOT
BRANCH   6  10
ATOM      9  O   UNL     1      19.218  23.452   0.065  0.00  0.00    +0.000 OA
ATOM     10  N   UNL     1      18.547  24.273   2.130  0.00  0.00    +0.000 N 
ATOM     11  C   UNL     1      18.621  23.339   1.126  0.00  0.00    +0.000 C 
ATOM     12  H   UNL     1      18.007  24.043   2.962  0.00  0.00    +0.000 HD
BRANCH  11  14
ATOM     13  C   UNL     1      17.329  21.082   1.605  0.00  0.00    +0.000 C 
ATOM     14  C   UNL     1      17.909  22.111   1.389  0.00  0.00    +0.000 C 
BRANCH  13  15
ATOM     15  C   UNL     1      16.651  19.865   1.862  0.00  0.00    +0.000 C 
ATOM     16  C   UNL     1      15.168  19.918   2.104  0.00  0.00    +0.000 C 
ATOM     17  C   UNL     1      17.272  18.604   1.962  0.00  0.00    +0.000 C 
ATOM     18  C   UNL     1      17.879  17.336   2.061  0.00  0.00    +0.000 C 
ATOM     19  C   UNL     1      19.244  17.173   1.461  0.00  0.00    +0.000 C 
ATOM     20  C   UNL     1      17.307  16.225   2.701  0.00  0.00    +0.000 C 
ATOM     21  C   UNL     1      16.786  15.205   3.294  0.00  0.00    +0.000 C 
ATOM     22  C   UNL     1      15.891  14.284   2.524  0.00  0.00    +0.000 C 
ATOM     23  C   UNL     1      16.801  15.145   4.790  0.00  0.00    +0.000 C 
ENDBRANCH  13  15
ENDBRANCH  11  14
ENDBRANCH   6  10
BRANCH   3  24
ATOM     24  O   UNL     1      21.978  26.996   0.865  0.00  0.00    +0.000 OA
ATOM     25  H   UNL     1      22.097  26.076   0.576  0.00  0.00    +0.000 HD
ENDBRANCH   3  24
BRANCH   3  26
ATOM     26  C   UNL     1      22.263  26.958   3.206  0.00  0.00    +0.000 C 
ATOM     27  C   UNL     1      23.265  26.984   4.364  0.00  0.00    +0.000 C 
BRANCH  27  28
ATOM     28  C   UNL     1      24.265  27.006   5.523  0.00  0.00    +0.000 C 
ATOM     29  C   UNL     1      25.264  27.025   6.684  0.00  0.00    +0.000 C 
BRANCH  29  31
ATOM     30  O   UNL     1      26.340  26.119   8.550  0.00  0.00    +0.000 OA
ATOM     31  C   UNL     1      26.200  27.042   7.767  0.00  0.00    +0.000 C 
BRANCH  31  32
ATOM     32  O   UNL     1      26.919  28.176   7.850  0.00  0.00    +0.000 OA
ATOM     33  H   UNL     1      26.609  28.585   8.684  0.00  0.00    +0.000 HD
ENDBRANCH  31  32
ENDBRANCH  29  31
ENDBRANCH  27  28
ENDBRANCH   3  26
TORSDOF 8
ENDMDL
MODEL 3
REMARK VINA RESULT:      -5.1     20.992     24.680
REMARK  Name = 122178712_SalternamideA.pdbqt.pdb
REMARK  8 active torsions:
REMARK  status: ('A' for Active; 'I' for Inactive)
REMARK    1  A    between atoms: C_3  and  O_24
REMARK    2  A    between atoms: C_3  and  C_26
REMARK    3  A    between atoms: C_6  and  N_10
REMARK    4  A    between atoms: C_11  and  C_14
REMARK    5  A    between atoms: C_13  and  C_15
REMARK    6  A    between atoms: C_27  and  C_28
REMARK    7  A    between atoms: C_29  and  C_31
REMARK    8  A    between atoms: C_31  and  O_32
REMARK                            x       y       z     vdW  Elec       q    Type
REMARK                         _______ _______ _______ _____ _____    ______ ____
ROOT
ATOM      1 CL   UNL     1      18.176  29.254   2.221  0.00  0.00    +0.000 Cl
ATOM      2  O   UNL     1      17.067  26.304   2.134  0.00  0.00    +0.000 OA
ATOM      3  C   UNL     1      21.354  26.717   2.028  0.00  0.00    +0.000 C 
ATOM      4  C   UNL     1      20.491  25.525   2.057  0.00  0.00    +0.000 C 
ATOM      5  C   UNL     1      20.300  27.745   2.048  0.00  0.00    +0.000 C 
ATOM      6  C   UNL     1      19.221  25.236   2.080  0.00  0.00    +0.000 C 
ATOM      7  C   UNL     1      19.000  27.783   2.063  0.00  0.00    +0.000 C 
ATOM      8  C   UNL     1      18.282  26.448   2.093  0.00  0.00    +0.000 C 
ENDROOT
BRANCH   6  10
ATOM      9  O   UNL     1      18.551  23.485  -0.163  0.00  0.00    +0.000 OA
ATOM     10  N   UNL     1      18.676  23.979   2.101  0.00  0.00    +0.000 N 
ATOM     11  C   UNL     1      18.381  23.197   1.012  0.00  0.00    +0.000 C 
ATOM     12  H   UNL     1      18.476  23.609   3.029  0.00  0.00    +0.000 HD
BRANCH  11  14
ATOM     13  C   UNL     1      17.350  20.829   1.585  0.00  0.00    +0.000 C 
ATOM     14  C   UNL     1      17.814  21.907   1.330  0.00  0.00    +0.000 C 
BRANCH  13  15
ATOM     15  C   UNL     1      16.811  19.554   1.885  0.00  0.00    +0.000 C 
ATOM     16  C   UNL     1      17.766  18.416   2.112  0.00  0.00    +0.000 C 
ATOM     17  C   UNL     1      15.435  19.255   1.936  0.00  0.00    +0.000 C 
ATOM     18  C   UNL     1      14.061  18.943   1.993  0.00  0.00    +0.000 C 
ATOM     19  C   UNL     1      13.098  20.081   2.158  0.00  0.00    +0.000 C 
ATOM     20  C   UNL     1      13.532  17.647   1.883  0.00  0.00    +0.000 C 
ATOM     21  C   UNL     1      13.044  16.458   1.775  0.00  0.00    +0.000 C 
ATOM     22  C   UNL     1      12.888  15.613   3.001  0.00  0.00    +0.000 C 
ATOM     23  C   UNL     1      12.961  15.823   0.422  0.00  0.00    +0.000 C 
ENDBRANCH  13  15
ENDBRANCH  11  14
ENDBRANCH   6  10
BRANCH   3  24
ATOM     24  O   UNL     1      22.033  26.772   0.791  0.00  0.00    +0.000 OA
ATOM     25  H   UNL     1      22.183  25.848   0.528  0.00  0.00    +0.000 HD
ENDBRANCH   3  24
BRANCH   3  26
ATOM     26  C   UNL     1      22.298  26.805   3.135  0.00  0.00    +0.000 C 
ATOM     27  C   UNL     1      23.289  26.892   4.299  0.00  0.00    +0.000 C 
BRANCH  27  28
ATOM     28  C   UNL     1      24.278  26.976   5.466  0.00  0.00    +0.000 C 
ATOM     29  C   UNL     1      25.266  27.056   6.633  0.00  0.00    +0.000 C 
BRANCH  29  31
ATOM     30  O   UNL     1      26.383  26.217   8.506  0.00  0.00    +0.000 OA
ATOM     31  C   UNL     1      26.191  27.131   7.723  0.00  0.00    +0.000 C 
BRANCH  31  32
ATOM     32  O   UNL     1      26.837  28.307   7.811  0.00  0.00    +0.000 OA
ATOM     33  H   UNL     1      26.496  28.696   8.643  0.00  0.00    +0.000 HD
ENDBRANCH  31  32
ENDBRANCH  29  31
ENDBRANCH  27  28
ENDBRANCH   3  26
TORSDOF 8
ENDMDL
MODEL 4
REMARK VINA RESULT:      -5.1     22.858     24.825
REMARK  Name = 122178712_SalternamideA.pdbqt.pdb
REMARK  8 active torsions:
REMARK  status: ('A' for Active; 'I' for Inactive)
REMARK    1  A    between atoms: C_3  and  O_24
REMARK    2  A    between atoms: C_3  and  C_26
REMARK    3  A    between atoms: C_6  and  N_10
REMARK    4  A    between atoms: C_11  and  C_14
REMARK    5  A    between atoms: C_13  and  C_15
REMARK    6  A    between atoms: C_27  and  C_28
REMARK    7  A    between atoms: C_29  and  C_31
REMARK    8  A    between atoms: C_31  and  O_32
REMARK                            x       y       z     vdW  Elec       q    Type
REMARK                         _______ _______ _______ _____ _____    ______ ____
ROOT
ATOM      1 CL   UNL     1      23.949  30.748   6.533  0.00  0.00    +0.000 Cl
ATOM      2  O   UNL     1      22.392  29.211   4.263  0.00  0.00    +0.000 OA
ATOM      3  C   UNL     1      20.411  29.458   8.081  0.00  0.00    +0.000 C 
ATOM      4  C   UNL     1      19.982  28.879   6.797  0.00  0.00    +0.000 C 
ATOM      5  C   UNL     1      21.740  29.937   7.666  0.00  0.00    +0.000 C 
ATOM      6  C   UNL     1      20.448  28.718   5.592  0.00  0.00    +0.000 C 
ATOM      7  C   UNL     1      22.469  29.926   6.589  0.00  0.00    +0.000 C 
ATOM      8  C   UNL     1      21.854  29.284   5.361  0.00  0.00    +0.000 C 
ENDROOT
BRANCH   6  10
ATOM      9  O   UNL     1      18.327  29.777   3.881  0.00  0.00    +0.000 OA
ATOM     10  N   UNL     1      19.801  28.112   4.546  0.00  0.00    +0.000 N 
ATOM     11  C   UNL     1      18.808  28.658   3.772  0.00  0.00    +0.000 C 
ATOM     12  H   UNL     1      20.103  27.161   4.343  0.00  0.00    +0.000 HD
BRANCH  11  14
ATOM     13  C   UNL     1      17.901  27.074   1.858  0.00  0.00    +0.000 C 
ATOM     14  C   UNL     1      18.307  27.791   2.732  0.00  0.00    +0.000 C 
BRANCH  13  15
ATOM     15  C   UNL     1      17.430  26.226   0.826  0.00  0.00    +0.000 C 
ATOM     16  C   UNL     1      17.264  26.809  -0.549  0.00  0.00    +0.000 C 
ATOM     17  C   UNL     1      17.051  24.880   1.001  0.00  0.00    +0.000 C 
ATOM     18  C   UNL     1      16.673  23.532   1.161  0.00  0.00    +0.000 C 
ATOM     19  C   UNL     1      17.171  22.812   2.380  0.00  0.00    +0.000 C 
ATOM     20  C   UNL     1      15.844  22.824   0.275  0.00  0.00    +0.000 C 
ATOM     21  C   UNL     1      15.078  22.176  -0.535  0.00  0.00    +0.000 C 
ATOM     22  C   UNL     1      15.681  21.461  -1.704  0.00  0.00    +0.000 C 
ATOM     23  C   UNL     1      13.602  22.422  -0.498  0.00  0.00    +0.000 C 
ENDBRANCH  13  15
ENDBRANCH  11  14
ENDBRANCH   6  10
BRANCH   3  24
ATOM     24  O   UNL     1      20.565  28.424   9.031  0.00  0.00    +0.000 OA
ATOM     25  H   UNL     1      21.211  28.752   9.680  0.00  0.00    +0.000 HD
ENDBRANCH   3  24
BRANCH   3  26
ATOM     26  C   UNL     1      19.532  30.499   8.597  0.00  0.00    +0.000 C 
ATOM     27  C   UNL     1      18.604  31.591   9.137  0.00  0.00    +0.000 C 
BRANCH  27  28
ATOM     28  C   UNL     1      17.672  32.680   9.675  0.00  0.00    +0.000 C 
ATOM     29  C   UNL     1      16.740  33.772  10.210  0.00  0.00    +0.000 C 
BRANCH  29  31
ATOM     30  O   UNL     1      15.182  35.500   9.995  0.00  0.00    +0.000 OA
ATOM     31  C   UNL     1      15.869  34.791  10.711  0.00  0.00    +0.000 C 
BRANCH  31  32
ATOM     32  O   UNL     1      15.871  34.903  12.051  0.00  0.00    +0.000 OA
ATOM     33  H   UNL     1      15.049  34.445  12.322  0.00  0.00    +0.000 HD
ENDBRANCH  31  32
ENDBRANCH  29  31
ENDBRANCH  27  28
ENDBRANCH   3  26
TORSDOF 8
ENDMDL
MODEL 5
REMARK VINA RESULT:      -5.1     10.188     18.035
REMARK  Name = 122178712_SalternamideA.pdbqt.pdb
REMARK  8 active torsions:
REMARK  status: ('A' for Active; 'I' for Inactive)
REMARK    1  A    between atoms: C_3  and  O_24
REMARK    2  A    between atoms: C_3  and  C_26
REMARK    3  A    between atoms: C_6  and  N_10
REMARK    4  A    between atoms: C_11  and  C_14
REMARK    5  A    between atoms: C_13  and  C_15
REMARK    6  A    between atoms: C_27  and  C_28
REMARK    7  A    between atoms: C_29  and  C_31
REMARK    8  A    between atoms: C_31  and  O_32
REMARK                            x       y       z     vdW  Elec       q    Type
REMARK                         _______ _______ _______ _____ _____    ______ ____
ROOT
ATOM      1 CL   UNL     1      19.680  17.909  34.939  0.00  0.00    +0.000 Cl
ATOM      2  O   UNL     1      16.739  17.316  33.970  0.00  0.00    +0.000 OA
ATOM      3  C   UNL     1      19.043  19.989  31.499  0.00  0.00    +0.000 C 
ATOM      4  C   UNL     1      17.682  19.448  31.343  0.00  0.00    +0.000 C 
ATOM      5  C   UNL     1      19.390  19.334  32.770  0.00  0.00    +0.000 C 
ATOM      6  C   UNL     1      16.862  18.664  31.982  0.00  0.00    +0.000 C 
ATOM      7  C   UNL     1      18.817  18.536  33.624  0.00  0.00    +0.000 C 
ATOM      8  C   UNL     1      17.409  18.083  33.290  0.00  0.00    +0.000 C 
ENDROOT
BRANCH   6  10
ATOM      9  O   UNL     1      16.011  16.497  30.214  0.00  0.00    +0.000 OA
ATOM     10  N   UNL     1      15.595  18.321  31.587  0.00  0.00    +0.000 N 
ATOM     11  C   UNL     1      15.250  17.288  30.752  0.00  0.00    +0.000 C 
ATOM     12  H   UNL     1      14.851  18.907  31.962  0.00  0.00    +0.000 HD
BRANCH  11  14
ATOM     13  C   UNL     1      12.652  17.038  30.320  0.00  0.00    +0.000 C 
ATOM     14  C   UNL     1      13.833  17.154  30.509  0.00  0.00    +0.000 C 
BRANCH  13  15
ATOM     15  C   UNL     1      11.259  16.902  30.105  0.00  0.00    +0.000 C 
ATOM     16  C   UNL     1      10.507  18.087  29.570  0.00  0.00    +0.000 C 
ATOM     17  C   UNL     1      10.508  15.748  30.404  0.00  0.00    +0.000 C 
ATOM     18  C   UNL     1       9.745  14.599  30.696  0.00  0.00    +0.000 C 
ATOM     19  C   UNL     1      10.481  13.301  30.855  0.00  0.00    +0.000 C 
ATOM     20  C   UNL     1       8.352  14.589  30.871  0.00  0.00    +0.000 C 
ATOM     21  C   UNL     1       7.073  14.580  31.039  0.00  0.00    +0.000 C 
ATOM     22  C   UNL     1       6.177  14.397  29.853  0.00  0.00    +0.000 C 
ATOM     23  C   UNL     1       6.503  15.083  32.329  0.00  0.00    +0.000 C 
ENDBRANCH  13  15
ENDBRANCH  11  14
ENDBRANCH   6  10
BRANCH   3  24
ATOM     24  O   UNL     1      18.970  21.385  31.700  0.00  0.00    +0.000 OA
ATOM     25  H   UNL     1      19.251  21.791  30.862  0.00  0.00    +0.000 HD
ENDBRANCH   3  24
BRANCH   3  26
ATOM     26  C   UNL     1      19.945  19.678  30.397  0.00  0.00    +0.000 C 
ATOM     27  C   UNL     1      20.898  19.349  29.244  0.00  0.00    +0.000 C 
BRANCH  27  28
ATOM     28  C   UNL     1      21.854  19.019  28.094  0.00  0.00    +0.000 C 
ATOM     29  C   UNL     1      22.809  18.686  26.944  0.00  0.00    +0.000 C 
BRANCH  29  31
ATOM     30  O   UNL     1      23.327  18.085  24.746  0.00  0.00    +0.000 OA
ATOM     31  C   UNL     1      23.701  18.375  25.869  0.00  0.00    +0.000 C 
BRANCH  31  32
ATOM     32  O   UNL     1      25.002  18.429  26.205  0.00  0.00    +0.000 OA
ATOM     33  H   UNL     1      25.094  19.305  26.633  0.00  0.00    +0.000 HD
ENDBRANCH  31  32
ENDBRANCH  29  31
ENDBRANCH  27  28
ENDBRANCH   3  26
TORSDOF 8
ENDMDL
MODEL 6
REMARK VINA RESULT:      -5.1     24.165     26.687
REMARK  Name = 122178712_SalternamideA.pdbqt.pdb
REMARK  8 active torsions:
REMARK  status: ('A' for Active; 'I' for Inactive)
REMARK    1  A    between atoms: C_3  and  O_24
REMARK    2  A    between atoms: C_3  and  C_26
REMARK    3  A    between atoms: C_6  and  N_10
REMARK    4  A    between atoms: C_11  and  C_14
REMARK    5  A    between atoms: C_13  and  C_15
REMARK    6  A    between atoms: C_27  and  C_28
REMARK    7  A    between atoms: C_29  and  C_31
REMARK    8  A    between atoms: C_31  and  O_32
REMARK                            x       y       z     vdW  Elec       q    Type
REMARK                         _______ _______ _______ _____ _____    ______ ____
ROOT
ATOM      1 CL   UNL     1       1.322   6.302  28.788  0.00  0.00    +0.000 Cl
ATOM      2  O   UNL     1       0.244   8.535  26.840  0.00  0.00    +0.000 OA
ATOM      3  C   UNL     1       4.049   6.799  25.806  0.00  0.00    +0.000 C 
ATOM      4  C   UNL     1       3.221   7.807  25.124  0.00  0.00    +0.000 C 
ATOM      5  C   UNL     1       3.176   6.554  26.966  0.00  0.00    +0.000 C 
ATOM      6  C   UNL     1       2.090   8.428  25.302  0.00  0.00    +0.000 C 
ATOM      7  C   UNL     1       2.039   6.995  27.418  0.00  0.00    +0.000 C 
ATOM      8  C   UNL     1       1.330   8.035  26.574  0.00  0.00    +0.000 C 
ENDROOT
BRANCH   6  10
ATOM      9  O   UNL     1       0.658   8.030  22.785  0.00  0.00    +0.000 OA
ATOM     10  N   UNL     1       1.539   9.364  24.467  0.00  0.00    +0.000 N 
ATOM     11  C   UNL     1       0.873   9.121  23.291  0.00  0.00    +0.000 C 
ATOM     12  H   UNL     1       1.649  10.331  24.768  0.00  0.00    +0.000 HD
BRANCH  11  14
ATOM     13  C   UNL     1      -0.007  11.279  22.039  0.00  0.00    +0.000 C 
ATOM     14  C   UNL     1       0.391  10.302  22.614  0.00  0.00    +0.000 C 
BRANCH  13  15
ATOM     15  C   UNL     1      -0.480  12.425  21.355  0.00  0.00    +0.000 C 
ATOM     16  C   UNL     1      -0.472  12.407  19.853  0.00  0.00    +0.000 C 
ATOM     17  C   UNL     1      -0.914  13.612  21.980  0.00  0.00    +0.000 C 
ATOM     18  C   UNL     1      -1.354  14.803  22.591  0.00  0.00    +0.000 C 
ATOM     19  C   UNL     1      -1.741  14.737  24.039  0.00  0.00    +0.000 C 
ATOM     20  C   UNL     1      -1.431  16.049  21.947  0.00  0.00    +0.000 C 
ATOM     21  C   UNL     1      -1.496  17.195  21.360  0.00  0.00    +0.000 C 
ATOM     22  C   UNL     1      -2.743  17.574  20.622  0.00  0.00    +0.000 C 
ATOM     23  C   UNL     1      -0.236  17.972  21.134  0.00  0.00    +0.000 C 
ENDBRANCH  13  15
ENDBRANCH  11  14
ENDBRANCH   6  10
BRANCH   3  24
ATOM     24  O   UNL     1       5.249   7.400  26.247  0.00  0.00    +0.000 OA
ATOM     25  H   UNL     1       5.026   7.869  27.069  0.00  0.00    +0.000 HD
ENDBRANCH   3  24
BRANCH   3  26
ATOM     26  C   UNL     1       4.334   5.613  25.009  0.00  0.00    +0.000 C 
ATOM     27  C   UNL     1       4.638   4.369  24.168  0.00  0.00    +0.000 C 
BRANCH  27  28
ATOM     28  C   UNL     1       4.947   3.127  23.327  0.00  0.00    +0.000 C 
ATOM     29  C   UNL     1       5.256   1.887  22.483  0.00  0.00    +0.000 C 
BRANCH  29  31
ATOM     30  O   UNL     1       4.761   0.241  20.900  0.00  0.00    +0.000 OA
ATOM     31  C   UNL     1       5.546   0.728  21.695  0.00  0.00    +0.000 C 
BRANCH  31  32
ATOM     32  O   UNL     1       6.771   0.215  21.907  0.00  0.00    +0.000 OA
ATOM     33  H   UNL     1       6.658  -0.738  21.717  0.00  0.00    +0.000 HD
ENDBRANCH  31  32
ENDBRANCH  29  31
ENDBRANCH  27  28
ENDBRANCH   3  26
TORSDOF 8
ENDMDL
MODEL 7
REMARK VINA RESULT:      -5.0     17.469     19.428
REMARK  Name = 122178712_SalternamideA.pdbqt.pdb
REMARK  8 active torsions:
REMARK  status: ('A' for Active; 'I' for Inactive)
REMARK    1  A    between atoms: C_3  and  O_24
REMARK    2  A    between atoms: C_3  and  C_26
REMARK    3  A    between atoms: C_6  and  N_10
REMARK    4  A    between atoms: C_11  and  C_14
REMARK    5  A    between atoms: C_13  and  C_15
REMARK    6  A    between atoms: C_27  and  C_28
REMARK    7  A    between atoms: C_29  and  C_31
REMARK    8  A    between atoms: C_31  and  O_32
REMARK                            x       y       z     vdW  Elec       q    Type
REMARK                         _______ _______ _______ _____ _____    ______ ____
ROOT
ATOM      1 CL   UNL     1      14.391  -8.231  23.729  0.00  0.00    +0.000 Cl
ATOM      2  O   UNL     1      15.541  -7.199  20.981  0.00  0.00    +0.000 OA
ATOM      3  C   UNL     1      12.756  -4.581  22.968  0.00  0.00    +0.000 C 
ATOM      4  C   UNL     1      13.525  -4.421  21.722  0.00  0.00    +0.000 C 
ATOM      5  C   UNL     1      13.230  -5.924  23.341  0.00  0.00    +0.000 C 
ATOM      6  C   UNL     1      14.373  -5.097  21.002  0.00  0.00    +0.000 C 
ATOM      7  C   UNL     1      14.032  -6.825  22.855  0.00  0.00    +0.000 C 
ATOM      8  C   UNL     1      14.738  -6.478  21.559  0.00  0.00    +0.000 C 
ENDROOT
BRANCH   6  10
ATOM      9  O   UNL     1      16.307  -2.948  20.567  0.00  0.00    +0.000 OA
ATOM     10  N   UNL     1      14.953  -4.684  19.831  0.00  0.00    +0.000 N 
ATOM     11  C   UNL     1      15.861  -3.665  19.683  0.00  0.00    +0.000 C 
ATOM     12  H   UNL     1      14.665  -5.198  19.000  0.00  0.00    +0.000 HD
BRANCH  11  14
ATOM     13  C   UNL     1      16.674  -3.275  17.196  0.00  0.00    +0.000 C 
ATOM     14  C   UNL     1      16.311  -3.449  18.328  0.00  0.00    +0.000 C 
BRANCH  13  15
ATOM     15  C   UNL     1      17.094  -3.067  15.859  0.00  0.00    +0.000 C 
ATOM     16  C   UNL     1      16.444  -3.884  14.778  0.00  0.00    +0.000 C 
ATOM     17  C   UNL     1      18.118  -2.183  15.467  0.00  0.00    +0.000 C 
ATOM     18  C   UNL     1      19.139  -1.300  15.060  0.00  0.00    +0.000 C 
ATOM     19  C   UNL     1      19.536  -0.212  16.014  0.00  0.00    +0.000 C 
ATOM     20  C   UNL     1      19.826  -1.383  13.838  0.00  0.00    +0.000 C 
ATOM     21  C   UNL     1      20.462  -1.462  12.719  0.00  0.00    +0.000 C 
ATOM     22  C   UNL     1      19.915  -0.765  11.511  0.00  0.00    +0.000 C 
ATOM     23  C   UNL     1      21.526  -2.503  12.555  0.00  0.00    +0.000 C 
ENDBRANCH  13  15
ENDBRANCH  11  14
ENDBRANCH   6  10
BRANCH   3  24
ATOM     24  O   UNL     1      11.379  -4.643  22.662  0.00  0.00    +0.000 OA
ATOM     25  H   UNL     1      11.300  -5.255  21.910  0.00  0.00    +0.000 HD
ENDBRANCH   3  24
BRANCH   3  26
ATOM     26  C   UNL     1      13.011  -3.555  23.970  0.00  0.00    +0.000 C 
ATOM     27  C   UNL     1      13.285  -2.475  25.022  0.00  0.00    +0.000 C 
BRANCH  27  28
ATOM     28  C   UNL     1      13.562  -1.395  26.071  0.00  0.00    +0.000 C 
ATOM     29  C   UNL     1      13.843  -0.316  27.121  0.00  0.00    +0.000 C 
BRANCH  29  31
ATOM     30  O   UNL     1      15.139   0.756  28.743  0.00  0.00    +0.000 OA
ATOM     31  C   UNL     1      14.105   0.694  28.101  0.00  0.00    +0.000 C 
BRANCH  31  32
ATOM     32  O   UNL     1      13.104   1.579  28.256  0.00  0.00    +0.000 OA
ATOM     33  H   UNL     1      12.811   1.436  29.179  0.00  0.00    +0.000 HD
ENDBRANCH  31  32
ENDBRANCH  29  31
ENDBRANCH  27  28
ENDBRANCH   3  26
TORSDOF 8
ENDMDL
MODEL 8
REMARK VINA RESULT:      -5.0      4.660     11.958
REMARK  Name = 122178712_SalternamideA.pdbqt.pdb
REMARK  8 active torsions:
REMARK  status: ('A' for Active; 'I' for Inactive)
REMARK    1  A    between atoms: C_3  and  O_24
REMARK    2  A    between atoms: C_3  and  C_26
REMARK    3  A    between atoms: C_6  and  N_10
REMARK    4  A    between atoms: C_11  and  C_14
REMARK    5  A    between atoms: C_13  and  C_15
REMARK    6  A    between atoms: C_27  and  C_28
REMARK    7  A    between atoms: C_29  and  C_31
REMARK    8  A    between atoms: C_31  and  O_32
REMARK                            x       y       z     vdW  Elec       q    Type
REMARK                         _______ _______ _______ _____ _____    ______ ____
ROOT
ATOM      1 CL   UNL     1      33.454  13.448  17.943  0.00  0.00    +0.000 Cl
ATOM      2  O   UNL     1      31.492  12.801  20.324  0.00  0.00    +0.000 OA
ATOM      3  C   UNL     1      29.714  12.981  16.404  0.00  0.00    +0.000 C 
ATOM      4  C   UNL     1      29.138  12.660  17.721  0.00  0.00    +0.000 C 
ATOM      5  C   UNL     1      31.102  13.225  16.831  0.00  0.00    +0.000 C 
ATOM      6  C   UNL     1      29.522  12.574  18.962  0.00  0.00    +0.000 C 
ATOM      7  C   UNL     1      31.775  13.228  17.944  0.00  0.00    +0.000 C 
ATOM      8  C   UNL     1      31.008  12.870  19.202  0.00  0.00    +0.000 C 
ENDROOT
BRANCH   6  10
ATOM      9  O   UNL     1      28.297  10.002  19.616  0.00  0.00    +0.000 OA
ATOM     10  N   UNL     1      28.735  12.243  20.033  0.00  0.00    +0.000 N 
ATOM     11  C   UNL     1      28.183  11.013  20.294  0.00  0.00    +0.000 C 
ATOM     12  H   UNL     1      28.552  13.001  20.688  0.00  0.00    +0.000 HD
BRANCH  11  14
ATOM     13  C   UNL     1      26.749  10.903  22.514  0.00  0.00    +0.000 C 
ATOM     14  C   UNL     1      27.397  10.947  21.503  0.00  0.00    +0.000 C 
BRANCH  13  15
ATOM     15  C   UNL     1      25.986  10.860  23.706  0.00  0.00    +0.000 C 
ATOM     16  C   UNL     1      25.657   9.513  24.287  0.00  0.00    +0.000 C 
ATOM     17  C   UNL     1      25.462  11.988  24.367  0.00  0.00    +0.000 C 
ATOM     18  C   UNL     1      24.935  13.109  25.040  0.00  0.00    +0.000 C 
ATOM     19  C   UNL     1      25.540  14.448  24.736  0.00  0.00    +0.000 C 
ATOM     20  C   UNL     1      23.870  13.063  25.954  0.00  0.00    +0.000 C 
ATOM     21  C   UNL     1      22.888  13.023  26.789  0.00  0.00    +0.000 C 
ATOM     22  C   UNL     1      23.164  12.771  28.239  0.00  0.00    +0.000 C 
ATOM     23  C   UNL     1      21.491  12.889  26.266  0.00  0.00    +0.000 C 
ENDBRANCH  13  15
ENDBRANCH  11  14
ENDBRANCH   6  10
BRANCH   3  24
ATOM     24  O   UNL     1      29.154  14.189  15.931  0.00  0.00    +0.000 OA
ATOM     25  H   UNL     1      28.548  13.939  15.214  0.00  0.00    +0.000 HD
ENDBRANCH   3  24
BRANCH   3  26
ATOM     26  C   UNL     1      29.569  11.926  15.409  0.00  0.00    +0.000 C 
ATOM     27  C   UNL     1      29.422  10.816  14.365  0.00  0.00    +0.000 C 
BRANCH  27  28
ATOM     28  C   UNL     1      29.279   9.705  13.321  0.00  0.00    +0.000 C 
ATOM     29  C   UNL     1      29.134   8.591  12.279  0.00  0.00    +0.000 C 
BRANCH  29  31
ATOM     30  O   UNL     1      29.888   6.766  11.030  0.00  0.00    +0.000 OA
ATOM     31  C   UNL     1      28.998   7.551  11.305  0.00  0.00    +0.000 C 
BRANCH  31  32
ATOM     32  O   UNL     1      27.792   7.513  10.711  0.00  0.00    +0.000 OA
ATOM     33  H   UNL     1      27.199   7.936  11.366  0.00  0.00    +0.000 HD
ENDBRANCH  31  32
ENDBRANCH  29  31
ENDBRANCH  27  28
ENDBRANCH   3  26
TORSDOF 8
ENDMDL
MODEL 9
REMARK VINA RESULT:      -4.9     19.504     23.859
REMARK  Name = 122178712_SalternamideA.pdbqt.pdb
REMARK  8 active torsions:
REMARK  status: ('A' for Active; 'I' for Inactive)
REMARK    1  A    between atoms: C_3  and  O_24
REMARK    2  A    between atoms: C_3  and  C_26
REMARK    3  A    between atoms: C_6  and  N_10
REMARK    4  A    between atoms: C_11  and  C_14
REMARK    5  A    between atoms: C_13  and  C_15
REMARK    6  A    between atoms: C_27  and  C_28
REMARK    7  A    between atoms: C_29  and  C_31
REMARK    8  A    between atoms: C_31  and  O_32
REMARK                            x       y       z     vdW  Elec       q    Type
REMARK                         _______ _______ _______ _____ _____    ______ ____
ROOT
ATOM      1 CL   UNL     1       4.543   6.211  26.168  0.00  0.00    +0.000 Cl
ATOM      2  O   UNL     1       6.982   4.920  27.693  0.00  0.00    +0.000 OA
ATOM      3  C   UNL     1       4.499   2.204  25.452  0.00  0.00    +0.000 C 
ATOM      4  C   UNL     1       5.729   1.982  26.230  0.00  0.00    +0.000 C 
ATOM      5  C   UNL     1       4.367   3.654  25.669  0.00  0.00    +0.000 C 
ATOM      6  C   UNL     1       6.568   2.670  26.951  0.00  0.00    +0.000 C 
ATOM      7  C   UNL     1       5.003   4.588  26.313  0.00  0.00    +0.000 C 
ATOM      8  C   UNL     1       6.254   4.166  27.058  0.00  0.00    +0.000 C 
ENDROOT
BRANCH   6  10
ATOM      9  O   UNL     1       6.878   1.886  29.750  0.00  0.00    +0.000 OA
ATOM     10  N   UNL     1       7.677   2.181  27.591  0.00  0.00    +0.000 N 
ATOM     11  C   UNL     1       7.768   1.826  28.914  0.00  0.00    +0.000 C 
ATOM     12  H   UNL     1       8.505   2.081  27.007  0.00  0.00    +0.000 HD
BRANCH  11  14
ATOM     13  C   UNL     1      10.140   0.915  29.650  0.00  0.00    +0.000 C 
ATOM     14  C   UNL     1       9.063   1.335  29.320  0.00  0.00    +0.000 C 
BRANCH  13  15
ATOM     15  C   UNL     1      11.410   0.418  30.031  0.00  0.00    +0.000 C 
ATOM     16  C   UNL     1      11.541  -0.231  31.380  0.00  0.00    +0.000 C 
ATOM     17  C   UNL     1      12.582   0.532  29.258  0.00  0.00    +0.000 C 
ATOM     18  C   UNL     1      13.763   0.635  28.494  0.00  0.00    +0.000 C 
ATOM     19  C   UNL     1      13.616   0.910  27.027  0.00  0.00    +0.000 C 
ATOM     20  C   UNL     1      15.063   0.523  29.014  0.00  0.00    +0.000 C 
ATOM     21  C   UNL     1      16.257   0.427  29.491  0.00  0.00    +0.000 C 
ATOM     22  C   UNL     1      16.903  -0.920  29.589  0.00  0.00    +0.000 C 
ATOM     23  C   UNL     1      16.839   1.585  30.240  0.00  0.00    +0.000 C 
ENDBRANCH  13  15
ENDBRANCH  11  14
ENDBRANCH   6  10
BRANCH   3  24
ATOM     24  O   UNL     1       3.423   1.540  26.081  0.00  0.00    +0.000 OA
ATOM     25  H   UNL     1       3.771   1.209  26.927  0.00  0.00    +0.000 HD
ENDBRANCH   3  24
BRANCH   3  26
ATOM     26  C   UNL     1       4.593   1.813  24.051  0.00  0.00    +0.000 C 
ATOM     27  C   UNL     1       4.690   1.408  22.578  0.00  0.00    +0.000 C 
BRANCH  27  28
ATOM     28  C   UNL     1       4.788   1.007  21.103  0.00  0.00    +0.000 C 
ATOM     29  C   UNL     1       4.889   0.607  19.628  0.00  0.00    +0.000 C 
BRANCH  29  31
ATOM     30  O   UNL     1       5.129  -0.918  17.874  0.00  0.00    +0.000 OA
ATOM     31  C   UNL     1       4.984   0.232  18.250  0.00  0.00    +0.000 C 
BRANCH  31  32
ATOM     32  O   UNL     1       4.899   1.266  17.395  0.00  0.00    +0.000 OA
ATOM     33  H   UNL     1       5.732   1.758  17.543  0.00  0.00    +0.000 HD
ENDBRANCH  31  32
ENDBRANCH  29  31
ENDBRANCH  27  28
ENDBRANCH   3  26
TORSDOF 8
ENDMDL
