MODEL 1
REMARK VINA RESULT:      -5.0      0.000      0.000
REMARK  Name = 122180587_TripolinolateA.pdbqt.pdb
REMARK  9 active torsions:
REMARK  status: ('A' for Active; 'I' for Inactive)
REMARK    1  A    between atoms: C_1  and  O_16
REMARK    2  A    between atoms: C_2  and  O_7
REMARK    3  A    between atoms: C_3  and  C_9
REMARK    4  A    between atoms: C_10  and  C_11
REMARK    5  A    between atoms: C_11  and  O_12
REMARK    6  A    between atoms: O_12  and  C_14
REMARK    7  A    between atoms: O_16  and  C_18
REMARK    8  A    between atoms: C_18  and  C_19
REMARK    9  A    between atoms: C_19  and  C_21
REMARK                            x       y       z     vdW  Elec       q    Type
REMARK                         _______ _______ _______ _____ _____    ______ ____
ROOT
ATOM      1  C   UNL     1      10.094  16.385  30.124  0.00  0.00    +0.000 A 
ATOM      2  C   UNL     1      10.783  17.459  29.551  0.00  0.00    +0.000 A 
ATOM      3  C   UNL     1       8.988  18.922  30.275  0.00  0.00    +0.000 A 
ATOM      4  C   UNL     1       8.852  16.559  30.739  0.00  0.00    +0.000 A 
ATOM      5  C   UNL     1      10.216  18.733  29.640  0.00  0.00    +0.000 A 
ATOM      6  C   UNL     1       8.305  17.836  30.821  0.00  0.00    +0.000 A 
ENDROOT
BRANCH   2   7
ATOM      7  O   UNL     1      11.969  17.181  28.920  0.00  0.00    +0.000 OA
ATOM      8  C   UNL     1      13.128  17.463  29.654  0.00  0.00    +0.000 C 
ENDBRANCH   2   7
BRANCH   3   9
ATOM      9  C   UNL     1       8.427  20.230  30.361  0.00  0.00    +0.000 C 
ATOM     10  C   UNL     1       7.956  21.332  30.432  0.00  0.00    +0.000 C 
BRANCH  10  11
ATOM     11  C   UNL     1       7.359  22.740  30.523  0.00  0.00    +0.000 C 
BRANCH  11  12
ATOM     12  O   UNL     1       6.843  23.964  30.603  0.00  0.00    +0.000 OA
BRANCH  12  14
ATOM     13  O   UNL     1       5.560  25.252  29.132  0.00  0.00    +0.000 OA
ATOM     14  C   UNL     1       6.478  24.509  29.426  0.00  0.00    +0.000 C 
ATOM     15  C   UNL     1       7.355  24.138  28.277  0.00  0.00    +0.000 C 
ENDBRANCH  12  14
ENDBRANCH  11  12
ENDBRANCH  10  11
ENDBRANCH   3   9
BRANCH   1  16
ATOM     16  O   UNL     1      10.607  15.086  30.009  0.00  0.00    +0.000 OA
BRANCH  16  18
ATOM     17  O   UNL     1      11.267  14.964  32.236  0.00  0.00    +0.000 OA
ATOM     18  C   UNL     1      10.786  14.452  31.233  0.00  0.00    +0.000 C 
BRANCH  18  19
ATOM     19  C   UNL     1      10.325  13.043  31.165  0.00  0.00    +0.000 C 
ATOM     20  C   UNL     1      11.229  11.851  31.446  0.00  0.00    +0.000 C 
BRANCH  19  21
ATOM     21  C   UNL     1       8.972  12.776  30.827  0.00  0.00    +0.000 C 
ATOM     22  C   UNL     1       7.503  12.482  30.468  0.00  0.00    +0.000 C 
ENDBRANCH  19  21
ENDBRANCH  18  19
ENDBRANCH  16  18
ENDBRANCH   1  16
TORSDOF 9
ENDMDL
MODEL 2
REMARK VINA RESULT:      -4.9      1.455      2.129
REMARK  Name = 122180587_TripolinolateA.pdbqt.pdb
REMARK  9 active torsions:
REMARK  status: ('A' for Active; 'I' for Inactive)
REMARK    1  A    between atoms: C_1  and  O_16
REMARK    2  A    between atoms: C_2  and  O_7
REMARK    3  A    between atoms: C_3  and  C_9
REMARK    4  A    between atoms: C_10  and  C_11
REMARK    5  A    between atoms: C_11  and  O_12
REMARK    6  A    between atoms: O_12  and  C_14
REMARK    7  A    between atoms: O_16  and  C_18
REMARK    8  A    between atoms: C_18  and  C_19
REMARK    9  A    between atoms: C_19  and  C_21
REMARK                            x       y       z     vdW  Elec       q    Type
REMARK                         _______ _______ _______ _____ _____    ______ ____
ROOT
ATOM      1  C   UNL     1       9.530  16.874  30.415  0.00  0.00    +0.000 A 
ATOM      2  C   UNL     1      10.152  17.959  29.788  0.00  0.00    +0.000 A 
ATOM      3  C   UNL     1       8.376  19.385  30.621  0.00  0.00    +0.000 A 
ATOM      4  C   UNL     1       8.329  17.025  31.111  0.00  0.00    +0.000 A 
ATOM      5  C   UNL     1       9.561  19.219  29.906  0.00  0.00    +0.000 A 
ATOM      6  C   UNL     1       7.758  18.289  31.221  0.00  0.00    +0.000 A 
ENDROOT
BRANCH   2   7
ATOM      7  O   UNL     1      11.299  17.703  29.080  0.00  0.00    +0.000 OA
ATOM      8  C   UNL     1      12.418  18.463  29.442  0.00  0.00    +0.000 C 
ENDBRANCH   2   7
BRANCH   3   9
ATOM      9  C   UNL     1       7.791  20.681  30.734  0.00  0.00    +0.000 C 
ATOM     10  C   UNL     1       7.298  21.772  30.828  0.00  0.00    +0.000 C 
BRANCH  10  11
ATOM     11  C   UNL     1       6.674  23.166  30.946  0.00  0.00    +0.000 C 
BRANCH  11  12
ATOM     12  O   UNL     1       6.133  24.378  31.047  0.00  0.00    +0.000 OA
BRANCH  12  14
ATOM     13  O   UNL     1       4.700  25.571  29.636  0.00  0.00    +0.000 OA
ATOM     14  C   UNL     1       5.685  24.902  29.889  0.00  0.00    +0.000 C 
ATOM     15  C   UNL     1       6.546  24.612  28.707  0.00  0.00    +0.000 C 
ENDBRANCH  12  14
ENDBRANCH  11  12
ENDBRANCH  10  11
ENDBRANCH   3   9
BRANCH   1  16
ATOM     16  O   UNL     1      10.065  15.586  30.275  0.00  0.00    +0.000 OA
BRANCH  16  18
ATOM     17  O   UNL     1      10.978  15.690  32.412  0.00  0.00    +0.000 OA
ATOM     18  C   UNL     1      10.984  15.261  31.265  0.00  0.00    +0.000 C 
BRANCH  18  19
ATOM     19  C   UNL     1      12.005  14.319  30.742  0.00  0.00    +0.000 C 
ATOM     20  C   UNL     1      11.919  12.808  30.915  0.00  0.00    +0.000 C 
BRANCH  19  21
ATOM     21  C   UNL     1      13.123  14.837  30.036  0.00  0.00    +0.000 C 
ATOM     22  C   UNL     1      14.339  15.391  29.270  0.00  0.00    +0.000 C 
ENDBRANCH  19  21
ENDBRANCH  18  19
ENDBRANCH  16  18
ENDBRANCH   1  16
TORSDOF 9
ENDMDL
MODEL 3
REMARK VINA RESULT:      -4.9     19.914     22.120
REMARK  Name = 122180587_TripolinolateA.pdbqt.pdb
REMARK  9 active torsions:
REMARK  status: ('A' for Active; 'I' for Inactive)
REMARK    1  A    between atoms: C_1  and  O_16
REMARK    2  A    between atoms: C_2  and  O_7
REMARK    3  A    between atoms: C_3  and  C_9
REMARK    4  A    between atoms: C_10  and  C_11
REMARK    5  A    between atoms: C_11  and  O_12
REMARK    6  A    between atoms: O_12  and  C_14
REMARK    7  A    between atoms: O_16  and  C_18
REMARK    8  A    between atoms: C_18  and  C_19
REMARK    9  A    between atoms: C_19  and  C_21
REMARK                            x       y       z     vdW  Elec       q    Type
REMARK                         _______ _______ _______ _____ _____    ______ ____
ROOT
ATOM      1  C   UNL     1       0.019  27.683  15.431  0.00  0.00    +0.000 A 
ATOM      2  C   UNL     1      -1.059  27.193  16.176  0.00  0.00    +0.000 A 
ATOM      3  C   UNL     1      -1.265  25.379  14.579  0.00  0.00    +0.000 A 
ATOM      4  C   UNL     1       0.438  27.056  14.256  0.00  0.00    +0.000 A 
ATOM      5  C   UNL     1      -1.693  26.028  15.737  0.00  0.00    +0.000 A 
ATOM      6  C   UNL     1      -0.203  25.894  13.836  0.00  0.00    +0.000 A 
ENDROOT
BRANCH   2   7
ATOM      7  O   UNL     1      -1.433  27.908  17.285  0.00  0.00    +0.000 OA
ATOM      8  C   UNL     1      -2.707  28.488  17.232  0.00  0.00    +0.000 C 
ENDBRANCH   2   7
BRANCH   3   9
ATOM      9  C   UNL     1      -1.921  24.188  14.149  0.00  0.00    +0.000 C 
ATOM     10  C   UNL     1      -2.473  23.186  13.785  0.00  0.00    +0.000 C 
BRANCH  10  11
ATOM     11  C   UNL     1      -3.179  21.909  13.317  0.00  0.00    +0.000 C 
BRANCH  11  12
ATOM     12  O   UNL     1      -3.791  20.799  12.913  0.00  0.00    +0.000 OA
BRANCH  12  14
ATOM     13  O   UNL     1      -2.122  19.183  12.647  0.00  0.00    +0.000 OA
ATOM     14  C   UNL     1      -3.122  19.655  13.157  0.00  0.00    +0.000 C 
ATOM     15  C   UNL     1      -3.707  18.818  14.244  0.00  0.00    +0.000 C 
ENDBRANCH  12  14
ENDBRANCH  11  12
ENDBRANCH  10  11
ENDBRANCH   3   9
BRANCH   1  16
ATOM     16  O   UNL     1       0.645  28.877  15.812  0.00  0.00    +0.000 OA
BRANCH  16  18
ATOM     17  O   UNL     1      -0.784  30.519  14.993  0.00  0.00    +0.000 OA
ATOM     18  C   UNL     1       0.306  29.959  15.010  0.00  0.00    +0.000 C 
BRANCH  18  19
ATOM     19  C   UNL     1       1.448  30.349  14.146  0.00  0.00    +0.000 C 
ATOM     20  C   UNL     1       2.728  30.977  14.682  0.00  0.00    +0.000 C 
BRANCH  19  21
ATOM     21  C   UNL     1       1.362  30.127  12.747  0.00  0.00    +0.000 C 
ATOM     22  C   UNL     1       1.270  29.893  11.227  0.00  0.00    +0.000 C 
ENDBRANCH  19  21
ENDBRANCH  18  19
ENDBRANCH  16  18
ENDBRANCH   1  16
TORSDOF 9
ENDMDL
MODEL 4
REMARK VINA RESULT:      -4.8      1.682      3.062
REMARK  Name = 122180587_TripolinolateA.pdbqt.pdb
REMARK  9 active torsions:
REMARK  status: ('A' for Active; 'I' for Inactive)
REMARK    1  A    between atoms: C_1  and  O_16
REMARK    2  A    between atoms: C_2  and  O_7
REMARK    3  A    between atoms: C_3  and  C_9
REMARK    4  A    between atoms: C_10  and  C_11
REMARK    5  A    between atoms: C_11  and  O_12
REMARK    6  A    between atoms: O_12  and  C_14
REMARK    7  A    between atoms: O_16  and  C_18
REMARK    8  A    between atoms: C_18  and  C_19
REMARK    9  A    between atoms: C_19  and  C_21
REMARK                            x       y       z     vdW  Elec       q    Type
REMARK                         _______ _______ _______ _____ _____    ______ ____
ROOT
ATOM      1  C   UNL     1       9.231  16.673  30.710  0.00  0.00    +0.000 A 
ATOM      2  C   UNL     1       8.089  17.216  31.307  0.00  0.00    +0.000 A 
ATOM      3  C   UNL     1       8.687  19.368  30.359  0.00  0.00    +0.000 A 
ATOM      4  C   UNL     1      10.114  17.463  29.971  0.00  0.00    +0.000 A 
ATOM      5  C   UNL     1       7.825  18.576  31.117  0.00  0.00    +0.000 A 
ATOM      6  C   UNL     1       9.832  18.814  29.789  0.00  0.00    +0.000 A 
ENDROOT
BRANCH   2   7
ATOM      7  O   UNL     1       7.311  16.374  32.061  0.00  0.00    +0.000 OA
ATOM      8  C   UNL     1       5.940  16.396  31.775  0.00  0.00    +0.000 C 
ENDBRANCH   2   7
BRANCH   3   9
ATOM      9  C   UNL     1       8.399  20.752  30.172  0.00  0.00    +0.000 C 
ATOM     10  C   UNL     1       8.155  21.917  30.016  0.00  0.00    +0.000 C 
BRANCH  10  11
ATOM     11  C   UNL     1       7.841  23.404  29.819  0.00  0.00    +0.000 C 
BRANCH  11  12
ATOM     12  O   UNL     1       7.567  24.695  29.650  0.00  0.00    +0.000 OA
BRANCH  12  14
ATOM     13  O   UNL     1       5.819  26.001  30.490  0.00  0.00    +0.000 OA
ATOM     14  C   UNL     1       6.290  25.046  29.900  0.00  0.00    +0.000 C 
ATOM     15  C   UNL     1       5.273  24.098  29.361  0.00  0.00    +0.000 C 
ENDBRANCH  12  14
ENDBRANCH  11  12
ENDBRANCH  10  11
ENDBRANCH   3   9
BRANCH   1  16
ATOM     16  O   UNL     1       9.554  15.326  30.922  0.00  0.00    +0.000 OA
BRANCH  16  18
ATOM     17  O   UNL     1      10.919  15.632  32.780  0.00  0.00    +0.000 OA
ATOM     18  C   UNL     1      10.708  15.147  31.675  0.00  0.00    +0.000 C 
BRANCH  18  19
ATOM     19  C   UNL     1      11.679  14.291  30.950  0.00  0.00    +0.000 C 
ATOM     20  C   UNL     1      11.662  12.769  31.009  0.00  0.00    +0.000 C 
BRANCH  19  21
ATOM     21  C   UNL     1      12.679  14.906  30.152  0.00  0.00    +0.000 C 
ATOM     22  C   UNL     1      13.758  15.578  29.282  0.00  0.00    +0.000 C 
ENDBRANCH  19  21
ENDBRANCH  18  19
ENDBRANCH  16  18
ENDBRANCH   1  16
TORSDOF 9
ENDMDL
MODEL 5
REMARK VINA RESULT:      -4.7      2.559      8.635
REMARK  Name = 122180587_TripolinolateA.pdbqt.pdb
REMARK  9 active torsions:
REMARK  status: ('A' for Active; 'I' for Inactive)
REMARK    1  A    between atoms: C_1  and  O_16
REMARK    2  A    between atoms: C_2  and  O_7
REMARK    3  A    between atoms: C_3  and  C_9
REMARK    4  A    between atoms: C_10  and  C_11
REMARK    5  A    between atoms: C_11  and  O_12
REMARK    6  A    between atoms: O_12  and  C_14
REMARK    7  A    between atoms: O_16  and  C_18
REMARK    8  A    between atoms: C_18  and  C_19
REMARK    9  A    between atoms: C_19  and  C_21
REMARK                            x       y       z     vdW  Elec       q    Type
REMARK                         _______ _______ _______ _____ _____    ______ ____
ROOT
ATOM      1  C   UNL     1       6.427  21.921  30.841  0.00  0.00    +0.000 A 
ATOM      2  C   UNL     1       7.603  22.351  30.219  0.00  0.00    +0.000 A 
ATOM      3  C   UNL     1       8.407  20.063  30.285  0.00  0.00    +0.000 A 
ATOM      4  C   UNL     1       6.245  20.588  31.214  0.00  0.00    +0.000 A 
ATOM      5  C   UNL     1       8.591  21.402  29.940  0.00  0.00    +0.000 A 
ATOM      6  C   UNL     1       7.238  19.656  30.925  0.00  0.00    +0.000 A 
ENDROOT
BRANCH   2   7
ATOM      7  O   UNL     1       7.715  23.690  29.941  0.00  0.00    +0.000 OA
ATOM      8  C   UNL     1       9.006  24.143  29.643  0.00  0.00    +0.000 C 
ENDBRANCH   2   7
BRANCH   3   9
ATOM      9  C   UNL     1       9.424  19.109  29.989  0.00  0.00    +0.000 C 
ATOM     10  C   UNL     1      10.280  18.304  29.737  0.00  0.00    +0.000 C 
BRANCH  10  11
ATOM     11  C   UNL     1      11.369  17.276  29.414  0.00  0.00    +0.000 C 
BRANCH  11  12
ATOM     12  O   UNL     1      12.315  16.383  29.131  0.00  0.00    +0.000 OA
BRANCH  12  14
ATOM     13  O   UNL     1      13.725  15.315  30.659  0.00  0.00    +0.000 OA
ATOM     14  C   UNL     1      12.649  15.564  30.147  0.00  0.00    +0.000 C 
ATOM     15  C   UNL     1      11.500  14.832  30.753  0.00  0.00    +0.000 C 
ENDBRANCH  12  14
ENDBRANCH  11  12
ENDBRANCH  10  11
ENDBRANCH   3   9
BRANCH   1  16
ATOM     16  O   UNL     1       5.437  22.853  31.182  0.00  0.00    +0.000 OA
BRANCH  16  18
ATOM     17  O   UNL     1       4.522  23.588  29.175  0.00  0.00    +0.000 OA
ATOM     18  C   UNL     1       4.435  22.968  30.227  0.00  0.00    +0.000 C 
BRANCH  18  19
ATOM     19  C   UNL     1       3.215  22.242  30.660  0.00  0.00    +0.000 C 
ATOM     20  C   UNL     1       2.260  22.767  31.724  0.00  0.00    +0.000 C 
BRANCH  19  21
ATOM     21  C   UNL     1       2.903  20.996  30.056  0.00  0.00    +0.000 C 
ATOM     22  C   UNL     1       2.563  19.647  29.394  0.00  0.00    +0.000 C 
ENDBRANCH  19  21
ENDBRANCH  18  19
ENDBRANCH  16  18
ENDBRANCH   1  16
TORSDOF 9
ENDMDL
MODEL 6
REMARK VINA RESULT:      -4.7      2.244      9.741
REMARK  Name = 122180587_TripolinolateA.pdbqt.pdb
REMARK  9 active torsions:
REMARK  status: ('A' for Active; 'I' for Inactive)
REMARK    1  A    between atoms: C_1  and  O_16
REMARK    2  A    between atoms: C_2  and  O_7
REMARK    3  A    between atoms: C_3  and  C_9
REMARK    4  A    between atoms: C_10  and  C_11
REMARK    5  A    between atoms: C_11  and  O_12
REMARK    6  A    between atoms: O_12  and  C_14
REMARK    7  A    between atoms: O_16  and  C_18
REMARK    8  A    between atoms: C_18  and  C_19
REMARK    9  A    between atoms: C_19  and  C_21
REMARK                            x       y       z     vdW  Elec       q    Type
REMARK                         _______ _______ _______ _____ _____    ______ ____
ROOT
ATOM      1  C   UNL     1       7.733  23.794  30.205  0.00  0.00    +0.000 A 
ATOM      2  C   UNL     1       6.595  23.069  30.574  0.00  0.00    +0.000 A 
ATOM      3  C   UNL     1       7.953  21.060  30.600  0.00  0.00    +0.000 A 
ATOM      4  C   UNL     1       8.963  23.166  30.002  0.00  0.00    +0.000 A 
ATOM      5  C   UNL     1       6.722  21.692  30.774  0.00  0.00    +0.000 A 
ATOM      6  C   UNL     1       9.072  21.794  30.211  0.00  0.00    +0.000 A 
ENDROOT
BRANCH   2   7
ATOM      7  O   UNL     1       5.418  23.765  30.696  0.00  0.00    +0.000 OA
ATOM      8  C   UNL     1       4.461  23.517  29.704  0.00  0.00    +0.000 C 
ENDBRANCH   2   7
BRANCH   3   9
ATOM      9  C   UNL     1       8.064  19.654  30.813  0.00  0.00    +0.000 C 
ATOM     10  C   UNL     1       8.159  18.471  30.995  0.00  0.00    +0.000 C 
BRANCH  10  11
ATOM     11  C   UNL     1       8.283  16.962  31.229  0.00  0.00    +0.000 C 
BRANCH  11  12
ATOM     12  O   UNL     1       8.391  15.651  31.435  0.00  0.00    +0.000 OA
BRANCH  12  14
ATOM     13  O   UNL     1       8.604  14.039  29.755  0.00  0.00    +0.000 OA
ATOM     14  C   UNL     1       8.992  14.965  30.444  0.00  0.00    +0.000 C 
ATOM     15  C   UNL     1      10.379  15.417  30.133  0.00  0.00    +0.000 C 
ENDBRANCH  12  14
ENDBRANCH  11  12
ENDBRANCH  10  11
ENDBRANCH   3   9
BRANCH   1  16
ATOM     16  O   UNL     1       7.631  25.168  29.946  0.00  0.00    +0.000 OA
BRANCH  16  18
ATOM     17  O   UNL     1       6.802  25.156  27.773  0.00  0.00    +0.000 OA
ATOM     18  C   UNL     1       7.655  25.476  28.591  0.00  0.00    +0.000 C 
BRANCH  18  19
ATOM     19  C   UNL     1       8.877  26.245  28.251  0.00  0.00    +0.000 C 
ATOM     20  C   UNL     1       9.897  26.701  29.287  0.00  0.00    +0.000 C 
BRANCH  19  21
ATOM     21  C   UNL     1       9.128  26.577  26.893  0.00  0.00    +0.000 C 
ATOM     22  C   UNL     1       9.406  26.941  25.423  0.00  0.00    +0.000 C 
ENDBRANCH  19  21
ENDBRANCH  18  19
ENDBRANCH  16  18
ENDBRANCH   1  16
TORSDOF 9
ENDMDL
MODEL 7
REMARK VINA RESULT:      -4.7     20.066     24.464
REMARK  Name = 122180587_TripolinolateA.pdbqt.pdb
REMARK  9 active torsions:
REMARK  status: ('A' for Active; 'I' for Inactive)
REMARK    1  A    between atoms: C_1  and  O_16
REMARK    2  A    between atoms: C_2  and  O_7
REMARK    3  A    between atoms: C_3  and  C_9
REMARK    4  A    between atoms: C_10  and  C_11
REMARK    5  A    between atoms: C_11  and  O_12
REMARK    6  A    between atoms: O_12  and  C_14
REMARK    7  A    between atoms: O_16  and  C_18
REMARK    8  A    between atoms: C_18  and  C_19
REMARK    9  A    between atoms: C_19  and  C_21
REMARK                            x       y       z     vdW  Elec       q    Type
REMARK                         _______ _______ _______ _____ _____    ______ ____
ROOT
ATOM      1  C   UNL     1      20.010  -1.210  17.386  0.00  0.00    +0.000 A 
ATOM      2  C   UNL     1      21.128  -0.701  18.056  0.00  0.00    +0.000 A 
ATOM      3  C   UNL     1      19.763  -0.481  20.049  0.00  0.00    +0.000 A 
ATOM      4  C   UNL     1      18.771  -1.328  18.020  0.00  0.00    +0.000 A 
ATOM      5  C   UNL     1      20.989  -0.343  19.399  0.00  0.00    +0.000 A 
ATOM      6  C   UNL     1      18.654  -0.970  19.360  0.00  0.00    +0.000 A 
ENDROOT
BRANCH   2   7
ATOM      7  O   UNL     1      22.288  -0.570  17.334  0.00  0.00    +0.000 OA
ATOM      8  C   UNL     1      22.704   0.744  17.089  0.00  0.00    +0.000 C 
ENDBRANCH   2   7
BRANCH   3   9
ATOM      9  C   UNL     1      19.642  -0.115  21.422  0.00  0.00    +0.000 C 
ATOM     10  C   UNL     1      19.541   0.192  22.578  0.00  0.00    +0.000 C 
BRANCH  10  11
ATOM     11  C   UNL     1      19.413   0.579  24.055  0.00  0.00    +0.000 C 
BRANCH  11  12
ATOM     12  O   UNL     1      19.301   0.915  25.338  0.00  0.00    +0.000 OA
BRANCH  12  14
ATOM     13  O   UNL     1      18.453   3.031  25.858  0.00  0.00    +0.000 OA
ATOM     14  C   UNL     1      18.363   1.843  25.607  0.00  0.00    +0.000 C 
ATOM     15  C   UNL     1      16.963   1.327  25.594  0.00  0.00    +0.000 C 
ENDBRANCH  12  14
ENDBRANCH  11  12
ENDBRANCH  10  11
ENDBRANCH   3   9
BRANCH   1  16
ATOM     16  O   UNL     1      20.098  -1.531  16.025  0.00  0.00    +0.000 OA
BRANCH  16  18
ATOM     17  O   UNL     1      19.597   0.623  15.305  0.00  0.00    +0.000 OA
ATOM     18  C   UNL     1      19.495  -0.593  15.197  0.00  0.00    +0.000 C 
BRANCH  18  19
ATOM     19  C   UNL     1      18.681  -1.263  14.152  0.00  0.00    +0.000 C 
ATOM     20  C   UNL     1      18.729  -0.882  12.678  0.00  0.00    +0.000 C 
BRANCH  19  21
ATOM     21  C   UNL     1      17.813  -2.322  14.528  0.00  0.00    +0.000 C 
ATOM     22  C   UNL     1      16.875  -3.475  14.932  0.00  0.00    +0.000 C 
ENDBRANCH  19  21
ENDBRANCH  18  19
ENDBRANCH  16  18
ENDBRANCH   1  16
TORSDOF 9
ENDMDL
MODEL 8
REMARK VINA RESULT:      -4.6      2.412      3.966
REMARK  Name = 122180587_TripolinolateA.pdbqt.pdb
REMARK  9 active torsions:
REMARK  status: ('A' for Active; 'I' for Inactive)
REMARK    1  A    between atoms: C_1  and  O_16
REMARK    2  A    between atoms: C_2  and  O_7
REMARK    3  A    between atoms: C_3  and  C_9
REMARK    4  A    between atoms: C_10  and  C_11
REMARK    5  A    between atoms: C_11  and  O_12
REMARK    6  A    between atoms: O_12  and  C_14
REMARK    7  A    between atoms: O_16  and  C_18
REMARK    8  A    between atoms: C_18  and  C_19
REMARK    9  A    between atoms: C_19  and  C_21
REMARK                            x       y       z     vdW  Elec       q    Type
REMARK                         _______ _______ _______ _____ _____    ______ ____
ROOT
ATOM      1  C   UNL     1       9.744  17.462  30.543  0.00  0.00    +0.000 A 
ATOM      2  C   UNL     1       8.551  17.187  31.220  0.00  0.00    +0.000 A 
ATOM      3  C   UNL     1       7.839  19.462  30.772  0.00  0.00    +0.000 A 
ATOM      4  C   UNL     1      10.005  18.726  30.011  0.00  0.00    +0.000 A 
ATOM      5  C   UNL     1       7.598  18.204  31.323  0.00  0.00    +0.000 A 
ATOM      6  C   UNL     1       9.042  19.725  30.119  0.00  0.00    +0.000 A 
ENDROOT
BRANCH   2   7
ATOM      7  O   UNL     1       8.407  15.933  31.757  0.00  0.00    +0.000 OA
ATOM      8  C   UNL     1       7.559  15.843  32.869  0.00  0.00    +0.000 C 
ENDBRANCH   2   7
BRANCH   3   9
ATOM      9  C   UNL     1       6.853  20.486  30.882  0.00  0.00    +0.000 C 
ATOM     10  C   UNL     1       6.023  21.350  30.975  0.00  0.00    +0.000 C 
BRANCH  10  11
ATOM     11  C   UNL     1       4.968  22.454  31.095  0.00  0.00    +0.000 C 
BRANCH  11  12
ATOM     12  O   UNL     1       4.051  23.414  31.198  0.00  0.00    +0.000 OA
BRANCH  12  14
ATOM     13  O   UNL     1       4.285  25.740  31.221  0.00  0.00    +0.000 OA
ATOM     14  C   UNL     1       4.441  24.626  30.757  0.00  0.00    +0.000 C 
ATOM     15  C   UNL     1       5.198  24.599  29.472  0.00  0.00    +0.000 C 
ENDBRANCH  12  14
ENDBRANCH  11  12
ENDBRANCH  10  11
ENDBRANCH   3   9
BRANCH   1  16
ATOM     16  O   UNL     1      10.743  16.483  30.465  0.00  0.00    +0.000 OA
BRANCH  16  18
ATOM     17  O   UNL     1      10.917  16.420  28.147  0.00  0.00    +0.000 OA
ATOM     18  C   UNL     1      11.429  16.489  29.257  0.00  0.00    +0.000 C 
BRANCH  18  19
ATOM     19  C   UNL     1      12.893  16.576  29.487  0.00  0.00    +0.000 C 
ATOM     20  C   UNL     1      13.864  15.454  29.146  0.00  0.00    +0.000 C 
BRANCH  19  21
ATOM     21  C   UNL     1      13.433  17.764  30.048  0.00  0.00    +0.000 C 
ATOM     22  C   UNL     1      14.017  19.049  30.664  0.00  0.00    +0.000 C 
ENDBRANCH  19  21
ENDBRANCH  18  19
ENDBRANCH  16  18
ENDBRANCH   1  16
TORSDOF 9
ENDMDL
MODEL 9
REMARK VINA RESULT:      -4.5     23.925     27.503
REMARK  Name = 122180587_TripolinolateA.pdbqt.pdb
REMARK  9 active torsions:
REMARK  status: ('A' for Active; 'I' for Inactive)
REMARK    1  A    between atoms: C_1  and  O_16
REMARK    2  A    between atoms: C_2  and  O_7
REMARK    3  A    between atoms: C_3  and  C_9
REMARK    4  A    between atoms: C_10  and  C_11
REMARK    5  A    between atoms: C_11  and  O_12
REMARK    6  A    between atoms: O_12  and  C_14
REMARK    7  A    between atoms: O_16  and  C_18
REMARK    8  A    between atoms: C_18  and  C_19
REMARK    9  A    between atoms: C_19  and  C_21
REMARK                            x       y       z     vdW  Elec       q    Type
REMARK                         _______ _______ _______ _____ _____    ______ ____
ROOT
ATOM      1  C   UNL     1      20.275  -1.131  13.910  0.00  0.00    +0.000 A 
ATOM      2  C   UNL     1      20.287  -0.382  15.092  0.00  0.00    +0.000 A 
ATOM      3  C   UNL     1      18.606  -1.882  15.992  0.00  0.00    +0.000 A 
ATOM      4  C   UNL     1      19.421  -2.224  13.748  0.00  0.00    +0.000 A 
ATOM      5  C   UNL     1      19.444  -0.776  16.134  0.00  0.00    +0.000 A 
ATOM      6  C   UNL     1      18.592  -2.604  14.799  0.00  0.00    +0.000 A 
ENDROOT
BRANCH   2   7
ATOM      7  O   UNL     1      21.119   0.708  15.137  0.00  0.00    +0.000 OA
ATOM      8  C   UNL     1      21.764   0.928  16.361  0.00  0.00    +0.000 C 
ENDBRANCH   2   7
BRANCH   3   9
ATOM      9  C   UNL     1      17.756  -2.272  17.068  0.00  0.00    +0.000 C 
ATOM     10  C   UNL     1      17.040  -2.599  17.975  0.00  0.00    +0.000 C 
BRANCH  10  11
ATOM     11  C   UNL     1      16.129  -3.012  19.135  0.00  0.00    +0.000 C 
BRANCH  11  12
ATOM     12  O   UNL     1      15.335  -3.371  20.141  0.00  0.00    +0.000 OA
BRANCH  12  14
ATOM     13  O   UNL     1      13.399  -2.705  19.011  0.00  0.00    +0.000 OA
ATOM     14  C   UNL     1      14.038  -3.040  19.993  0.00  0.00    +0.000 C 
ATOM     15  C   UNL     1      13.240  -3.090  21.252  0.00  0.00    +0.000 C 
ENDBRANCH  12  14
ENDBRANCH  11  12
ENDBRANCH  10  11
ENDBRANCH   3   9
BRANCH   1  16
ATOM     16  O   UNL     1      21.069  -0.735  12.825  0.00  0.00    +0.000 OA
BRANCH  16  18
ATOM     17  O   UNL     1      19.450  -0.282  11.219  0.00  0.00    +0.000 OA
ATOM     18  C   UNL     1      20.442  -0.893  11.596  0.00  0.00    +0.000 C 
BRANCH  18  19
ATOM     19  C   UNL     1      21.130  -1.930  10.787  0.00  0.00    +0.000 C 
ATOM     20  C   UNL     1      20.404  -3.084  10.108  0.00  0.00    +0.000 C 
BRANCH  19  21
ATOM     21  C   UNL     1      22.538  -1.853  10.622  0.00  0.00    +0.000 C 
ATOM     22  C   UNL     1      24.065  -1.772  10.435  0.00  0.00    +0.000 C 
ENDBRANCH  19  21
ENDBRANCH  18  19
ENDBRANCH  16  18
ENDBRANCH   1  16
TORSDOF 9
ENDMDL
