MODEL 1
REMARK VINA RESULT:      -7.8      0.000      0.000
REMARK  Name = 135403648_CalciumFolinate.pdbqt.pdb
REMARK  10 active torsions:
REMARK  status: ('A' for Active; 'I' for Inactive)
REMARK    1  A    between atoms: N_1  and  C_3
REMARK    2  A    between atoms: N_1  and  C_24
REMARK    3  A    between atoms: C_6  and  C_11
REMARK    4  A    between atoms: CA_13  and  C_15
REMARK    5  A    between atoms: CA_13  and  CB_18
REMARK    6  A    between atoms: C_15  and  O_16
REMARK    7  A    between atoms: CG_19  and  CD_21
REMARK    8  A    between atoms: CD_21  and  OE1_22
REMARK    9  A    between atoms: C_24  and  C_32
REMARK   10  A    between atoms: N_27  and  C_37
REMARK                            x       y       z     vdW  Elec       q    Type
REMARK                         _______ _______ _______ _____ _____    ______ ____
ROOT
ATOM      1  N   UNL     1       6.868  21.471  30.680  0.00  0.00    +0.000 N 
ATOM      2  H   UNL     1       5.880  21.254  30.549  0.00  0.00    +0.000 HD
ENDROOT
BRANCH   1   3
ATOM      3  C   UNL     1       7.663  20.308  30.755  0.00  0.00    +0.000 A 
ATOM      4  C   UNL     1       8.844  20.243  30.010  0.00  0.00    +0.000 A 
ATOM      5  C   UNL     1       7.226  19.147  31.403  0.00  0.00    +0.000 A 
ATOM      6  C   UNL     1       9.183  17.942  30.660  0.00  0.00    +0.000 A 
ATOM      7  C   UNL     1       9.608  19.076  29.974  0.00  0.00    +0.000 A 
ATOM      8  C   UNL     1       7.984  17.978  31.373  0.00  0.00    +0.000 A 
BRANCH   6  11
ATOM      9  O   UNL     1       9.480  15.686  31.187  0.00  0.00    +0.000 OA
ATOM     10  N   UNL     1      11.200  16.730  30.038  0.00  0.00    +0.000 N 
ATOM     11  C   ACE A   0       9.964  16.679  30.655  0.00  0.00    +0.000 C 
ATOM     12  H   UNL     1      11.517  17.604  29.627  0.00  0.00    +0.000 HD
ATOM     13  CA  UNL     1      12.109  15.695  29.905  0.00  0.00    +0.000 C 
BRANCH  13  15
ATOM     14  OXT UNL     1      14.155  16.886  29.576  0.00  0.00    +0.000 OA
ATOM     15  C   UNL     1      13.368  16.030  29.197  0.00  0.00    +0.000 C 
BRANCH  15  16
ATOM     16  O   UNL     1      13.585  15.308  28.088  0.00  0.00    +0.000 OA
ATOM     17  H   UNL     1      14.549  15.135  28.085  0.00  0.00    +0.000 HD
ENDBRANCH  15  16
ENDBRANCH  13  15
BRANCH  13  18
ATOM     18  CB  UNL     1      11.855  14.393  30.412  0.00  0.00    +0.000 C 
ATOM     19  CG  UNL     1      11.589  12.990  30.969  0.00  0.00    +0.000 C 
BRANCH  19  21
ATOM     20  OE2 UNL     1      10.928  11.481  32.627  0.00  0.00    +0.000 OA
ATOM     21  CD  UNL     1      11.353  11.683  31.503  0.00  0.00    +0.000 C 
BRANCH  21  22
ATOM     22  OE1 UNL     1      11.661  10.682  30.659  0.00  0.00    +0.000 OA
ATOM     23  HE1 UNL     1      11.076   9.953  30.950  0.00  0.00    +0.000 HD
ENDBRANCH  21  22
ENDBRANCH  19  21
ENDBRANCH  13  18
ENDBRANCH   6  11
ENDBRANCH   1   3
BRANCH   1  24
ATOM     24  C   UNL     1       7.373  22.617  29.934  0.00  0.00    +0.000 C 
BRANCH  24  31
ATOM     25  O   UNL     1      11.318  26.092  30.116  0.00  0.00    +0.000 OA
ATOM     26  N   UNL     1       9.056  24.372  29.506  0.00  0.00    +0.000 N 
ATOM     27  N   UNL     1       7.699  25.207  27.063  0.00  0.00    +0.000 N 
ATOM     28  N   UNL     1       9.185  27.027  26.862  0.00  0.00    +0.000 NA
ATOM     29  N   UNL     1      10.991  27.321  28.277  0.00  0.00    +0.000 N 
ATOM     30  N   UNL     1      10.637  28.775  26.528  0.00  0.00    +0.000 N 
ATOM     31  C   UNL     1       7.885  23.701  29.172  0.00  0.00    +0.000 C 
ATOM     32  C   UNL     1       7.299  24.204  28.000  0.00  0.00    +0.000 C 
ATOM     33  C   UNL     1       9.462  25.476  28.706  0.00  0.00    +0.000 A 
ATOM     34  C   UNL     1       8.814  25.902  27.567  0.00  0.00    +0.000 A 
ATOM     35  C   UNL     1      10.656  26.292  29.103  0.00  0.00    +0.000 A 
ATOM     36  C   UNL     1      10.236  27.682  27.217  0.00  0.00    +0.000 A 
ATOM     37  H   UNL     1       7.041  25.849  26.631  0.00  0.00    +0.000 HD
ATOM     38  H   UNL     1      11.765  27.893  28.575  0.00  0.00    +0.000 HD
ATOM     39  H   UNL     1      10.156  28.864  25.637  0.00  0.00    +0.000 HD
ATOM     40  H   UNL     1      11.633  28.926  26.448  0.00  0.00    +0.000 HD
BRANCH  26  42
ATOM     41  O   UNL     1      10.347  23.563  31.520  0.00  0.00    +0.000 OA
ATOM     42  C   UNL     1       9.742  23.974  30.600  0.00  0.00    +0.000 C 
ENDBRANCH  26  42
ENDBRANCH  24  31
ENDBRANCH   1  24
TORSDOF 10
ENDMDL
MODEL 2
REMARK VINA RESULT:      -6.9     13.377     15.067
REMARK  Name = 135403648_CalciumFolinate.pdbqt.pdb
REMARK  10 active torsions:
REMARK  status: ('A' for Active; 'I' for Inactive)
REMARK    1  A    between atoms: N_1  and  C_3
REMARK    2  A    between atoms: N_1  and  C_24
REMARK    3  A    between atoms: C_6  and  C_11
REMARK    4  A    between atoms: CA_13  and  C_15
REMARK    5  A    between atoms: CA_13  and  CB_18
REMARK    6  A    between atoms: C_15  and  O_16
REMARK    7  A    between atoms: CG_19  and  CD_21
REMARK    8  A    between atoms: CD_21  and  OE1_22
REMARK    9  A    between atoms: C_24  and  C_32
REMARK   10  A    between atoms: N_27  and  C_37
REMARK                            x       y       z     vdW  Elec       q    Type
REMARK                         _______ _______ _______ _____ _____    ______ ____
ROOT
ATOM      1  N   UNL     1      22.234  20.641  27.655  0.00  0.00    +0.000 N 
ATOM      2  H   UNL     1      21.241  20.637  27.882  0.00  0.00    +0.000 HD
ENDROOT
BRANCH   1   3
ATOM      3  C   UNL     1      22.658  19.416  27.098  0.00  0.00    +0.000 A 
ATOM      4  C   UNL     1      21.970  18.893  25.999  0.00  0.00    +0.000 A 
ATOM      5  C   UNL     1      23.626  18.613  27.712  0.00  0.00    +0.000 A 
ATOM      6  C   UNL     1      23.285  16.869  26.076  0.00  0.00    +0.000 A 
ATOM      7  C   UNL     1      22.289  17.638  25.481  0.00  0.00    +0.000 A 
ATOM      8  C   UNL     1      23.952  17.359  27.200  0.00  0.00    +0.000 A 
BRANCH   6  11
ATOM      9  O   UNL     1      24.521  15.459  24.685  0.00  0.00    +0.000 OA
ATOM     10  N   UNL     1      23.000  14.453  26.114  0.00  0.00    +0.000 N 
ATOM     11  C   ACE A   0      23.663  15.531  25.558  0.00  0.00    +0.000 C 
ATOM     12  H   UNL     1      22.298  14.614  26.831  0.00  0.00    +0.000 HD
ATOM     13  CA  UNL     1      23.171  13.116  25.800  0.00  0.00    +0.000 C 
BRANCH  13  15
ATOM     14  OXT UNL     1      22.738  11.136  27.067  0.00  0.00    +0.000 OA
ATOM     15  C   UNL     1      22.319  12.163  26.552  0.00  0.00    +0.000 C 
BRANCH  15  16
ATOM     16  O   UNL     1      21.028  12.520  26.629  0.00  0.00    +0.000 OA
ATOM     17  H   UNL     1      20.758  12.686  25.702  0.00  0.00    +0.000 HD
ENDBRANCH  15  16
ENDBRANCH  13  15
BRANCH  13  18
ATOM     18  CB  UNL     1      24.103  12.680  24.821  0.00  0.00    +0.000 C 
ATOM     19  CG  UNL     1      25.100  12.210  23.757  0.00  0.00    +0.000 C 
BRANCH  19  21
ATOM     20  OE2 UNL     1      27.154  11.402  22.987  0.00  0.00    +0.000 OA
ATOM     21  CD  UNL     1      26.018  11.773  22.749  0.00  0.00    +0.000 C 
BRANCH  21  22
ATOM     22  OE1 UNL     1      25.525  11.825  21.499  0.00  0.00    +0.000 OA
ATOM     23  HE1 UNL     1      26.301  11.613  20.941  0.00  0.00    +0.000 HD
ENDBRANCH  21  22
ENDBRANCH  19  21
ENDBRANCH  13  18
ENDBRANCH   6  11
ENDBRANCH   1   3
BRANCH   1  24
ATOM     24  C   UNL     1      22.754  21.881  27.092  0.00  0.00    +0.000 C 
BRANCH  24  31
ATOM     25  O   UNL     1      24.897  23.446  22.549  0.00  0.00    +0.000 OA
ATOM     26  N   UNL     1      23.706  23.121  25.181  0.00  0.00    +0.000 N 
ATOM     27  N   UNL     1      23.810  25.597  26.720  0.00  0.00    +0.000 N 
ATOM     28  N   UNL     1      24.959  26.647  24.950  0.00  0.00    +0.000 NA
ATOM     29  N   UNL     1      25.328  25.609  22.916  0.00  0.00    +0.000 N 
ATOM     30  N   UNL     1      26.002  27.785  23.248  0.00  0.00    +0.000 N 
ATOM     31  C   UNL     1      23.277  23.063  26.502  0.00  0.00    +0.000 C 
ATOM     32  C   UNL     1      23.400  24.299  27.157  0.00  0.00    +0.000 C 
ATOM     33  C   UNL     1      24.258  24.339  24.696  0.00  0.00    +0.000 A 
ATOM     34  C   UNL     1      24.343  25.508  25.421  0.00  0.00    +0.000 A 
ATOM     35  C   UNL     1      24.835  24.404  23.313  0.00  0.00    +0.000 A 
ATOM     36  C   UNL     1      25.413  26.672  23.744  0.00  0.00    +0.000 A 
ATOM     37  H   UNL     1      24.369  26.219  27.296  0.00  0.00    +0.000 HD
ATOM     38  H   UNL     1      25.756  25.633  22.004  0.00  0.00    +0.000 HD
ATOM     39  H   UNL     1      25.845  28.597  23.839  0.00  0.00    +0.000 HD
ATOM     40  H   UNL     1      25.852  27.984  22.268  0.00  0.00    +0.000 HD
BRANCH  26  42
ATOM     41  O   UNL     1      23.495  21.073  23.718  0.00  0.00    +0.000 OA
ATOM     42  C   UNL     1      23.619  22.007  24.421  0.00  0.00    +0.000 C 
ENDBRANCH  26  42
ENDBRANCH  24  31
ENDBRANCH   1  24
TORSDOF 10
ENDMDL
MODEL 3
REMARK VINA RESULT:      -6.7      1.827      2.436
REMARK  Name = 135403648_CalciumFolinate.pdbqt.pdb
REMARK  10 active torsions:
REMARK  status: ('A' for Active; 'I' for Inactive)
REMARK    1  A    between atoms: N_1  and  C_3
REMARK    2  A    between atoms: N_1  and  C_24
REMARK    3  A    between atoms: C_6  and  C_11
REMARK    4  A    between atoms: CA_13  and  C_15
REMARK    5  A    between atoms: CA_13  and  CB_18
REMARK    6  A    between atoms: C_15  and  O_16
REMARK    7  A    between atoms: CG_19  and  CD_21
REMARK    8  A    between atoms: CD_21  and  OE1_22
REMARK    9  A    between atoms: C_24  and  C_32
REMARK   10  A    between atoms: N_27  and  C_37
REMARK                            x       y       z     vdW  Elec       q    Type
REMARK                         _______ _______ _______ _____ _____    ______ ____
ROOT
ATOM      1  N   UNL     1       8.023  22.864  31.412  0.00  0.00    +0.000 N 
ATOM      2  H   UNL     1       7.010  22.758  31.382  0.00  0.00    +0.000 HD
ENDROOT
BRANCH   1   3
ATOM      3  C   UNL     1       8.693  21.635  31.237  0.00  0.00    +0.000 A 
ATOM      4  C   UNL     1       8.104  20.646  30.443  0.00  0.00    +0.000 A 
ATOM      5  C   UNL     1       9.837  21.298  31.970  0.00  0.00    +0.000 A 
ATOM      6  C   UNL     1       9.843  19.075  31.026  0.00  0.00    +0.000 A 
ATOM      7  C   UNL     1       8.681  19.382  30.324  0.00  0.00    +0.000 A 
ATOM      8  C   UNL     1      10.419  20.038  31.856  0.00  0.00    +0.000 A 
BRANCH   6  11
ATOM      9  O   UNL     1       9.807  16.741  31.073  0.00  0.00    +0.000 OA
ATOM     10  N   UNL     1      11.855  17.750  30.679  0.00  0.00    +0.000 N 
ATOM     11  C   ACE A   0      10.496  17.745  30.928  0.00  0.00    +0.000 C 
ATOM     12  H   UNL     1      12.341  18.638  30.579  0.00  0.00    +0.000 HD
ATOM     13  CA  UNL     1      12.683  16.649  30.548  0.00  0.00    +0.000 C 
BRANCH  13  15
ATOM     14  OXT UNL     1      15.000  16.806  31.114  0.00  0.00    +0.000 OA
ATOM     15  C   UNL     1      14.112  16.946  30.285  0.00  0.00    +0.000 C 
BRANCH  15  16
ATOM     16  O   UNL     1      14.364  17.386  29.043  0.00  0.00    +0.000 OA
ATOM     17  H   UNL     1      13.654  18.035  28.858  0.00  0.00    +0.000 HD
ENDBRANCH  15  16
ENDBRANCH  13  15
BRANCH  13  18
ATOM     18  CB  UNL     1      12.199  15.319  30.656  0.00  0.00    +0.000 C 
ATOM     19  CG  UNL     1      11.675  13.882  30.760  0.00  0.00    +0.000 C 
BRANCH  19  21
ATOM     20  OE2 UNL     1      10.041  12.257  31.146  0.00  0.00    +0.000 OA
ATOM     21  CD  UNL     1      11.185  12.540  30.838  0.00  0.00    +0.000 C 
BRANCH  21  22
ATOM     22  OE1 UNL     1      12.109  11.602  30.562  0.00  0.00    +0.000 OA
ATOM     23  HE1 UNL     1      12.108  11.565  29.584  0.00  0.00    +0.000 HD
ENDBRANCH  21  22
ENDBRANCH  19  21
ENDBRANCH  13  18
ENDBRANCH   6  11
ENDBRANCH   1   3
BRANCH   1  24
ATOM     24  C   UNL     1       8.559  24.052  30.757  0.00  0.00    +0.000 C 
BRANCH  24  31
ATOM     25  O   UNL     1       8.907  26.309  26.018  0.00  0.00    +0.000 OA
ATOM     26  N   UNL     1       8.910  25.545  28.823  0.00  0.00    +0.000 N 
ATOM     27  N   UNL     1      10.341  27.487  30.464  0.00  0.00    +0.000 N 
ATOM     28  N   UNL     1      10.870  28.728  28.530  0.00  0.00    +0.000 NA
ATOM     29  N   UNL     1      10.034  28.193  26.441  0.00  0.00    +0.000 N 
ATOM     30  N   UNL     1      11.360  30.054  26.720  0.00  0.00    +0.000 N 
ATOM     31  C   UNL     1       9.086  25.230  30.166  0.00  0.00    +0.000 C 
ATOM     32  C   UNL     1       9.813  26.216  30.852  0.00  0.00    +0.000 C 
ATOM     33  C   UNL     1       9.517  26.726  28.313  0.00  0.00    +0.000 A 
ATOM     34  C   UNL     1      10.223  27.637  29.070  0.00  0.00    +0.000 A 
ATOM     35  C   UNL     1       9.444  27.036  26.848  0.00  0.00    +0.000 A 
ATOM     36  C   UNL     1      10.755  28.976  27.271  0.00  0.00    +0.000 A 
ATOM     37  H   UNL     1      11.240  27.830  30.787  0.00  0.00    +0.000 HD
ATOM     38  H   UNL     1      10.022  28.371  25.449  0.00  0.00    +0.000 HD
ATOM     39  H   UNL     1      11.702  30.703  27.424  0.00  0.00    +0.000 HD
ATOM     40  H   UNL     1      10.869  30.520  25.969  0.00  0.00    +0.000 HD
BRANCH  26  42
ATOM     41  O   UNL     1       7.611  23.903  27.411  0.00  0.00    +0.000 OA
ATOM     42  C   UNL     1       8.203  24.696  28.045  0.00  0.00    +0.000 C 
ENDBRANCH  26  42
ENDBRANCH  24  31
ENDBRANCH   1  24
TORSDOF 10
ENDMDL
MODEL 4
REMARK VINA RESULT:      -6.6      5.192     10.106
REMARK  Name = 135403648_CalciumFolinate.pdbqt.pdb
REMARK  10 active torsions:
REMARK  status: ('A' for Active; 'I' for Inactive)
REMARK    1  A    between atoms: N_1  and  C_3
REMARK    2  A    between atoms: N_1  and  C_24
REMARK    3  A    between atoms: C_6  and  C_11
REMARK    4  A    between atoms: CA_13  and  C_15
REMARK    5  A    between atoms: CA_13  and  CB_18
REMARK    6  A    between atoms: C_15  and  O_16
REMARK    7  A    between atoms: CG_19  and  CD_21
REMARK    8  A    between atoms: CD_21  and  OE1_22
REMARK    9  A    between atoms: C_24  and  C_32
REMARK   10  A    between atoms: N_27  and  C_37
REMARK                            x       y       z     vdW  Elec       q    Type
REMARK                         _______ _______ _______ _____ _____    ______ ____
ROOT
ATOM      1  N   UNL     1      11.022  31.214  28.040  0.00  0.00    +0.000 N 
ATOM      2  H   UNL     1      10.521  31.948  28.540  0.00  0.00    +0.000 HD
ENDROOT
BRANCH   1   3
ATOM      3  C   UNL     1      10.463  29.938  28.269  0.00  0.00    +0.000 A 
ATOM      4  C   UNL     1       9.504  29.786  29.275  0.00  0.00    +0.000 A 
ATOM      5  C   UNL     1      10.961  28.785  27.651  0.00  0.00    +0.000 A 
ATOM      6  C   UNL     1       9.473  27.393  28.949  0.00  0.00    +0.000 A 
ATOM      7  C   UNL     1       9.000  28.527  29.603  0.00  0.00    +0.000 A 
ATOM      8  C   UNL     1      10.462  27.525  27.973  0.00  0.00    +0.000 A 
BRANCH   6  11
ATOM      9  O   UNL     1       9.774  25.133  29.452  0.00  0.00    +0.000 OA
ATOM     10  N   UNL     1       7.590  25.894  29.310  0.00  0.00    +0.000 N 
ATOM     11  C   ACE A   0       8.965  26.034  29.261  0.00  0.00    +0.000 C 
ATOM     12  H   UNL     1       7.000  26.703  29.132  0.00  0.00    +0.000 HD
ATOM     13  CA  UNL     1       6.878  24.738  29.576  0.00  0.00    +0.000 C 
BRANCH  13  15
ATOM     14  OXT UNL     1       4.806  25.884  29.901  0.00  0.00    +0.000 OA
ATOM     15  C   UNL     1       5.401  24.872  29.561  0.00  0.00    +0.000 C 
BRANCH  15  16
ATOM     16  O   UNL     1       4.753  23.778  29.134  0.00  0.00    +0.000 OA
ATOM     17  H   UNL     1       3.958  24.119  28.676  0.00  0.00    +0.000 HD
ENDBRANCH  15  16
ENDBRANCH  13  15
BRANCH  13  18
ATOM     18  CB  UNL     1       7.517  23.500  29.849  0.00  0.00    +0.000 C 
ATOM     19  CG  UNL     1       8.207  22.160  30.132  0.00  0.00    +0.000 C 
BRANCH  19  21
ATOM     20  OE2 UNL     1       8.338  19.827  30.145  0.00  0.00    +0.000 OA
ATOM     21  CD  UNL     1       8.852  20.906  30.377  0.00  0.00    +0.000 C 
BRANCH  21  22
ATOM     22  OE1 UNL     1      10.081  21.017  30.913  0.00  0.00    +0.000 OA
ATOM     23  HE1 UNL     1      10.593  21.470  30.213  0.00  0.00    +0.000 HD
ENDBRANCH  21  22
ENDBRANCH  19  21
ENDBRANCH  13  18
ENDBRANCH   6  11
ENDBRANCH   1   3
BRANCH   1  24
ATOM     24  C   UNL     1      11.468  31.550  26.694  0.00  0.00    +0.000 C 
BRANCH  24  31
ATOM     25  O   UNL     1      15.704  33.271  24.092  0.00  0.00    +0.000 OA
ATOM     26  N   UNL     1      13.152  32.239  25.025  0.00  0.00    +0.000 N 
ATOM     27  N   UNL     1      11.216  32.038  22.852  0.00  0.00    +0.000 N 
ATOM     28  N   UNL     1      12.796  32.956  21.362  0.00  0.00    +0.000 NA
ATOM     29  N   UNL     1      14.981  33.396  21.980  0.00  0.00    +0.000 N 
ATOM     30  N   UNL     1      14.291  33.758  19.814  0.00  0.00    +0.000 N 
ATOM     31  C   UNL     1      11.855  31.872  25.365  0.00  0.00    +0.000 C 
ATOM     32  C   UNL     1      11.001  31.838  24.251  0.00  0.00    +0.000 C 
ATOM     33  C   UNL     1      13.430  32.589  23.674  0.00  0.00    +0.000 A 
ATOM     34  C   UNL     1      12.518  32.530  22.643  0.00  0.00    +0.000 A 
ATOM     35  C   UNL     1      14.788  33.099  23.294  0.00  0.00    +0.000 A 
ATOM     36  C   UNL     1      13.985  33.356  21.070  0.00  0.00    +0.000 A 
ATOM     37  H   UNL     1      10.549  32.521  22.257  0.00  0.00    +0.000 HD
ATOM     38  H   UNL     1      15.880  33.782  21.741  0.00  0.00    +0.000 HD
ATOM     39  H   UNL     1      13.569  33.506  19.144  0.00  0.00    +0.000 HD
ATOM     40  H   UNL     1      15.222  33.544  19.479  0.00  0.00    +0.000 HD
BRANCH  26  42
ATOM     41  O   UNL     1      14.852  32.311  26.890  0.00  0.00    +0.000 OA
ATOM     42  C   UNL     1      14.089  32.287  25.997  0.00  0.00    +0.000 C 
ENDBRANCH  26  42
ENDBRANCH  24  31
ENDBRANCH   1  24
TORSDOF 10
ENDMDL
MODEL 5
REMARK VINA RESULT:      -6.5     12.546     18.056
REMARK  Name = 135403648_CalciumFolinate.pdbqt.pdb
REMARK  10 active torsions:
REMARK  status: ('A' for Active; 'I' for Inactive)
REMARK    1  A    between atoms: N_1  and  C_3
REMARK    2  A    between atoms: N_1  and  C_24
REMARK    3  A    between atoms: C_6  and  C_11
REMARK    4  A    between atoms: CA_13  and  C_15
REMARK    5  A    between atoms: CA_13  and  CB_18
REMARK    6  A    between atoms: C_15  and  O_16
REMARK    7  A    between atoms: CG_19  and  CD_21
REMARK    8  A    between atoms: CD_21  and  OE1_22
REMARK    9  A    between atoms: C_24  and  C_32
REMARK   10  A    between atoms: N_27  and  C_37
REMARK                            x       y       z     vdW  Elec       q    Type
REMARK                         _______ _______ _______ _____ _____    ______ ____
ROOT
ATOM      1  N   UNL     1      22.496  15.947  27.574  0.00  0.00    +0.000 N 
ATOM      2  H   UNL     1      22.627  15.688  28.552  0.00  0.00    +0.000 HD
ENDROOT
BRANCH   1   3
ATOM      3  C   UNL     1      22.441  17.345  27.397  0.00  0.00    +0.000 A 
ATOM      4  C   UNL     1      22.678  17.880  26.127  0.00  0.00    +0.000 A 
ATOM      5  C   UNL     1      22.335  18.230  28.476  0.00  0.00    +0.000 A 
ATOM      6  C   UNL     1      22.583  20.128  27.004  0.00  0.00    +0.000 A 
ATOM      7  C   UNL     1      22.734  19.259  25.927  0.00  0.00    +0.000 A 
ATOM      8  C   UNL     1      22.388  19.609  28.284  0.00  0.00    +0.000 A 
BRANCH   6  11
ATOM      9  O   UNL     1      23.093  22.064  25.802  0.00  0.00    +0.000 OA
ATOM     10  N   UNL     1      22.140  22.350  27.894  0.00  0.00    +0.000 N 
ATOM     11  C   ACE A   0      22.631  21.603  26.839  0.00  0.00    +0.000 C 
ATOM     12  H   UNL     1      21.780  21.874  28.718  0.00  0.00    +0.000 HD
ATOM     13  CA  UNL     1      22.078  23.729  27.982  0.00  0.00    +0.000 C 
BRANCH  13  15
ATOM     14  OXT UNL     1      22.142  24.924  30.051  0.00  0.00    +0.000 OA
ATOM     15  C   UNL     1      21.504  24.270  29.238  0.00  0.00    +0.000 C 
BRANCH  15  16
ATOM     16  O   UNL     1      20.206  23.984  29.418  0.00  0.00    +0.000 OA
ATOM     17  H   UNL     1      19.746  24.846  29.344  0.00  0.00    +0.000 HD
ENDBRANCH  15  16
ENDBRANCH  13  15
BRANCH  13  18
ATOM     18  CB  UNL     1      22.532  24.576  26.937  0.00  0.00    +0.000 C 
ATOM     19  CG  UNL     1      23.028  25.482  25.804  0.00  0.00    +0.000 C 
BRANCH  19  21
ATOM     20  OE2 UNL     1      24.110  25.889  23.772  0.00  0.00    +0.000 OA
ATOM     21  CD  UNL     1      23.500  26.313  24.738  0.00  0.00    +0.000 C 
BRANCH  21  22
ATOM     22  OE1 UNL     1      23.230  27.620  24.901  0.00  0.00    +0.000 OA
ATOM     23  HE1 UNL     1      23.040  27.927  23.992  0.00  0.00    +0.000 HD
ENDBRANCH  21  22
ENDBRANCH  19  21
ENDBRANCH  13  18
ENDBRANCH   6  11
ENDBRANCH   1   3
BRANCH   1  24
ATOM     24  C   UNL     1      23.227  15.146  26.600  0.00  0.00    +0.000 C 
BRANCH  24  31
ATOM     25  O   UNL     1      23.130  10.226  24.740  0.00  0.00    +0.000 OA
ATOM     26  N   UNL     1      23.562  13.030  25.373  0.00  0.00    +0.000 N 
ATOM     27  N   UNL     1      25.887  14.101  23.974  0.00  0.00    +0.000 N 
ATOM     28  N   UNL     1      26.304  11.976  23.044  0.00  0.00    +0.000 NA
ATOM     29  N   UNL     1      24.866  10.187  23.332  0.00  0.00    +0.000 N 
ATOM     30  N   UNL     1      26.743   9.968  22.017  0.00  0.00    +0.000 N 
ATOM     31  C   UNL     1      23.945  14.330  25.686  0.00  0.00    +0.000 C 
ATOM     32  C   UNL     1      25.091  14.731  24.981  0.00  0.00    +0.000 C 
ATOM     33  C   UNL     1      24.373  12.276  24.480  0.00  0.00    +0.000 A 
ATOM     34  C   UNL     1      25.492  12.758  23.837  0.00  0.00    +0.000 A 
ATOM     35  C   UNL     1      24.053  10.835  24.210  0.00  0.00    +0.000 A 
ATOM     36  C   UNL     1      25.976  10.751  22.811  0.00  0.00    +0.000 A 
ATOM     37  H   UNL     1      26.898  14.184  23.942  0.00  0.00    +0.000 HD
ATOM     38  H   UNL     1      24.674   9.208  23.192  0.00  0.00    +0.000 HD
ATOM     39  H   UNL     1      27.432  10.506  21.499  0.00  0.00    +0.000 HD
ATOM     40  H   UNL     1      26.261   9.294  21.437  0.00  0.00    +0.000 HD
BRANCH  26  42
ATOM     41  O   UNL     1      21.454  12.120  26.425  0.00  0.00    +0.000 OA
ATOM     42  C   UNL     1      22.456  12.521  25.959  0.00  0.00    +0.000 C 
ENDBRANCH  26  42
ENDBRANCH  24  31
ENDBRANCH   1  24
TORSDOF 10
ENDMDL
MODEL 6
REMARK VINA RESULT:      -6.4      7.659     11.258
REMARK  Name = 135403648_CalciumFolinate.pdbqt.pdb
REMARK  10 active torsions:
REMARK  status: ('A' for Active; 'I' for Inactive)
REMARK    1  A    between atoms: N_1  and  C_3
REMARK    2  A    between atoms: N_1  and  C_24
REMARK    3  A    between atoms: C_6  and  C_11
REMARK    4  A    between atoms: CA_13  and  C_15
REMARK    5  A    between atoms: CA_13  and  CB_18
REMARK    6  A    between atoms: C_15  and  O_16
REMARK    7  A    between atoms: CG_19  and  CD_21
REMARK    8  A    between atoms: CD_21  and  OE1_22
REMARK    9  A    between atoms: C_24  and  C_32
REMARK   10  A    between atoms: N_27  and  C_37
REMARK                            x       y       z     vdW  Elec       q    Type
REMARK                         _______ _______ _______ _____ _____    ______ ____
ROOT
ATOM      1  N   UNL     1      18.303  19.331  32.322  0.00  0.00    +0.000 N 
ATOM      2  H   UNL     1      18.541  18.852  33.191  0.00  0.00    +0.000 HD
ENDROOT
BRANCH   1   3
ATOM      3  C   UNL     1      19.212  19.032  31.285  0.00  0.00    +0.000 A 
ATOM      4  C   UNL     1      19.678  20.067  30.469  0.00  0.00    +0.000 A 
ATOM      5  C   UNL     1      19.526  17.716  30.926  0.00  0.00    +0.000 A 
ATOM      6  C   UNL     1      20.837  18.492  29.051  0.00  0.00    +0.000 A 
ATOM      7  C   UNL     1      20.496  19.804  29.371  0.00  0.00    +0.000 A 
ATOM      8  C   UNL     1      20.344  17.445  29.831  0.00  0.00    +0.000 A 
BRANCH   6  11
ATOM      9  O   UNL     1      22.355  17.123  27.924  0.00  0.00    +0.000 OA
ATOM     10  N   UNL     1      21.718  19.080  26.860  0.00  0.00    +0.000 N 
ATOM     11  C   ACE A   0      21.708  18.164  27.895  0.00  0.00    +0.000 C 
ATOM     12  H   UNL     1      21.148  19.919  26.931  0.00  0.00    +0.000 HD
ATOM     13  CA  UNL     1      22.444  19.002  25.685  0.00  0.00    +0.000 C 
BRANCH  13  15
ATOM     14  OXT UNL     1      22.704  20.143  23.601  0.00  0.00    +0.000 OA
ATOM     15  C   UNL     1      22.268  20.134  24.743  0.00  0.00    +0.000 C 
BRANCH  15  16
ATOM     16  O   UNL     1      21.579  21.169  25.247  0.00  0.00    +0.000 OA
ATOM     17  H   UNL     1      20.674  21.069  24.885  0.00  0.00    +0.000 HD
ENDBRANCH  15  16
ENDBRANCH  13  15
BRANCH  13  18
ATOM     18  CB  UNL     1      23.302  17.909  25.394  0.00  0.00    +0.000 C 
ATOM     19  CG  UNL     1      24.222  16.726  25.071  0.00  0.00    +0.000 C 
BRANCH  19  21
ATOM     20  OE2 UNL     1      25.112  14.592  25.405  0.00  0.00    +0.000 OA
ATOM     21  CD  UNL     1      25.072  15.619  24.753  0.00  0.00    +0.000 C 
BRANCH  21  22
ATOM     22  OE1 UNL     1      25.848  15.817  23.672  0.00  0.00    +0.000 OA
ATOM     23  HE1 UNL     1      26.086  16.764  23.735  0.00  0.00    +0.000 HD
ENDBRANCH  21  22
ENDBRANCH  19  21
ENDBRANCH  13  18
ENDBRANCH   6  11
ENDBRANCH   1   3
BRANCH   1  24
ATOM     24  C   UNL     1      16.882  19.409  32.006  0.00  0.00    +0.000 C 
BRANCH  24  31
ATOM     25  O   UNL     1      13.295  16.575  29.404  0.00  0.00    +0.000 OA
ATOM     26  N   UNL     1      14.840  18.423  31.030  0.00  0.00    +0.000 N 
ATOM     27  N   UNL     1      13.199  20.632  32.000  0.00  0.00    +0.000 N 
ATOM     28  N   UNL     1      11.348  19.773  30.819  0.00  0.00    +0.000 NA
ATOM     29  N   UNL     1      11.414  17.746  29.706  0.00  0.00    +0.000 N 
ATOM     30  N   UNL     1       9.465  18.969  29.778  0.00  0.00    +0.000 N 
ATOM     31  C   UNL     1      15.491  19.440  31.721  0.00  0.00    +0.000 C 
ATOM     32  C   UNL     1      14.614  20.464  32.111  0.00  0.00    +0.000 C 
ATOM     33  C   UNL     1      13.452  18.568  30.753  0.00  0.00    +0.000 A 
ATOM     34  C   UNL     1      12.671  19.621  31.176  0.00  0.00    +0.000 A 
ATOM     35  C   UNL     1      12.744  17.546  29.913  0.00  0.00    +0.000 A 
ATOM     36  C   UNL     1      10.769  18.856  30.123  0.00  0.00    +0.000 A 
ATOM     37  H   UNL     1      12.767  21.527  31.792  0.00  0.00    +0.000 HD
ATOM     38  H   UNL     1      10.956  17.082  29.102  0.00  0.00    +0.000 HD
ATOM     39  H   UNL     1       8.995  19.708  30.293  0.00  0.00    +0.000 HD
ATOM     40  H   UNL     1       8.924  18.114  29.747  0.00  0.00    +0.000 HD
BRANCH  26  42
ATOM     41  O   UNL     1      16.243  16.470  30.260  0.00  0.00    +0.000 OA
ATOM     42  C   UNL     1      15.559  17.357  30.617  0.00  0.00    +0.000 C 
ENDBRANCH  26  42
ENDBRANCH  24  31
ENDBRANCH   1  24
TORSDOF 10
ENDMDL
MODEL 7
REMARK VINA RESULT:      -6.4     19.371     21.915
REMARK  Name = 135403648_CalciumFolinate.pdbqt.pdb
REMARK  10 active torsions:
REMARK  status: ('A' for Active; 'I' for Inactive)
REMARK    1  A    between atoms: N_1  and  C_3
REMARK    2  A    between atoms: N_1  and  C_24
REMARK    3  A    between atoms: C_6  and  C_11
REMARK    4  A    between atoms: CA_13  and  C_15
REMARK    5  A    between atoms: CA_13  and  CB_18
REMARK    6  A    between atoms: C_15  and  O_16
REMARK    7  A    between atoms: CG_19  and  CD_21
REMARK    8  A    between atoms: CD_21  and  OE1_22
REMARK    9  A    between atoms: C_24  and  C_32
REMARK   10  A    between atoms: N_27  and  C_37
REMARK                            x       y       z     vdW  Elec       q    Type
REMARK                         _______ _______ _______ _____ _____    ______ ____
ROOT
ATOM      1  N   UNL     1       0.436  28.852  12.559  0.00  0.00    +0.000 N 
ATOM      2  H   UNL     1      -0.107  29.102  11.733  0.00  0.00    +0.000 HD
ENDROOT
BRANCH   1   3
ATOM      3  C   UNL     1       1.371  29.851  12.904  0.00  0.00    +0.000 A 
ATOM      4  C   UNL     1       2.086  30.493  11.890  0.00  0.00    +0.000 A 
ATOM      5  C   UNL     1       1.740  30.099  14.231  0.00  0.00    +0.000 A 
ATOM      6  C   UNL     1       3.418  31.682  13.516  0.00  0.00    +0.000 A 
ATOM      7  C   UNL     1       3.091  31.413  12.190  0.00  0.00    +0.000 A 
ATOM      8  C   UNL     1       2.742  31.017  14.539  0.00  0.00    +0.000 A 
BRANCH   6  11
ATOM      9  O   UNL     1       4.488  33.108  15.024  0.00  0.00    +0.000 OA
ATOM     10  N   UNL     1       5.379  32.980  12.889  0.00  0.00    +0.000 N 
ATOM     11  C   ACE A   0       4.476  32.656  13.885  0.00  0.00    +0.000 C 
ATOM     12  H   UNL     1       5.284  32.555  11.971  0.00  0.00    +0.000 HD
ATOM     13  CA  UNL     1       6.445  33.857  12.983  0.00  0.00    +0.000 C 
BRANCH  13  15
ATOM     14  OXT UNL     1       7.177  34.992  11.011  0.00  0.00    +0.000 OA
ATOM     15  C   UNL     1       7.255  34.023  11.752  0.00  0.00    +0.000 C 
BRANCH  15  16
ATOM     16  O   UNL     1       8.098  33.008  11.507  0.00  0.00    +0.000 OA
ATOM     17  H   UNL     1       7.749  32.259  12.034  0.00  0.00    +0.000 HD
ENDBRANCH  15  16
ENDBRANCH  13  15
BRANCH  13  18
ATOM     18  CB  UNL     1       6.748  34.556  14.182  0.00  0.00    +0.000 C 
ATOM     19  CG  UNL     1       7.088  35.308  15.474  0.00  0.00    +0.000 C 
BRANCH  19  21
ATOM     20  OE2 UNL     1       6.800  36.967  17.095  0.00  0.00    +0.000 OA
ATOM     21  CD  UNL     1       7.423  36.007  16.677  0.00  0.00    +0.000 C 
BRANCH  21  22
ATOM     22  OE1 UNL     1       8.510  35.525  17.306  0.00  0.00    +0.000 OA
ATOM     23  HE1 UNL     1       8.452  34.561  17.151  0.00  0.00    +0.000 HD
ENDBRANCH  21  22
ENDBRANCH  19  21
ENDBRANCH  13  18
ENDBRANCH   6  11
ENDBRANCH   1   3
BRANCH   1  24
ATOM     24  C   UNL     1      -0.299  28.184  13.626  0.00  0.00    +0.000 C 
BRANCH  24  31
ATOM     25  O   UNL     1      -3.171  29.606  17.799  0.00  0.00    +0.000 OA
ATOM     26  N   UNL     1      -1.772  28.311  15.604  0.00  0.00    +0.000 N 
ATOM     27  N   UNL     1      -1.875  25.405  15.829  0.00  0.00    +0.000 N 
ATOM     28  N   UNL     1      -3.053  25.606  17.862  0.00  0.00    +0.000 NA
ATOM     29  N   UNL     1      -3.773  27.644  18.686  0.00  0.00    +0.000 N 
ATOM     30  N   UNL     1      -4.281  25.695  19.801  0.00  0.00    +0.000 N 
ATOM     31  C   UNL     1      -1.035  27.579  14.680  0.00  0.00    +0.000 C 
ATOM     32  C   UNL     1      -1.131  26.195  14.900  0.00  0.00    +0.000 C 
ATOM     33  C   UNL     1      -2.438  27.616  16.651  0.00  0.00    +0.000 A 
ATOM     34  C   UNL     1      -2.469  26.245  16.789  0.00  0.00    +0.000 A 
ATOM     35  C   UNL     1      -3.145  28.381  17.730  0.00  0.00    +0.000 A 
ATOM     36  C   UNL     1      -3.679  26.299  18.750  0.00  0.00    +0.000 A 
ATOM     37  H   UNL     1      -1.497  24.570  16.268  0.00  0.00    +0.000 HD
ATOM     38  H   UNL     1      -4.205  28.165  19.433  0.00  0.00    +0.000 HD
ATOM     39  H   UNL     1      -4.352  24.689  19.676  0.00  0.00    +0.000 HD
ATOM     40  H   UNL     1      -5.144  26.106  20.132  0.00  0.00    +0.000 HD
BRANCH  26  42
ATOM     41  O   UNL     1      -1.795  30.822  15.330  0.00  0.00    +0.000 OA
ATOM     42  C   UNL     1      -1.793  29.658  15.495  0.00  0.00    +0.000 C 
ENDBRANCH  26  42
ENDBRANCH  24  31
ENDBRANCH   1  24
TORSDOF 10
ENDMDL
MODEL 8
REMARK VINA RESULT:      -6.3     13.407     18.240
REMARK  Name = 135403648_CalciumFolinate.pdbqt.pdb
REMARK  10 active torsions:
REMARK  status: ('A' for Active; 'I' for Inactive)
REMARK    1  A    between atoms: N_1  and  C_3
REMARK    2  A    between atoms: N_1  and  C_24
REMARK    3  A    between atoms: C_6  and  C_11
REMARK    4  A    between atoms: CA_13  and  C_15
REMARK    5  A    between atoms: CA_13  and  CB_18
REMARK    6  A    between atoms: C_15  and  O_16
REMARK    7  A    between atoms: CG_19  and  CD_21
REMARK    8  A    between atoms: CD_21  and  OE1_22
REMARK    9  A    between atoms: C_24  and  C_32
REMARK   10  A    between atoms: N_27  and  C_37
REMARK                            x       y       z     vdW  Elec       q    Type
REMARK                         _______ _______ _______ _____ _____    ______ ____
ROOT
ATOM      1  N   UNL     1      22.562  13.700  28.718  0.00  0.00    +0.000 N 
ATOM      2  H   UNL     1      22.880  13.583  29.680  0.00  0.00    +0.000 HD
ENDROOT
BRANCH   1   3
ATOM      3  C   UNL     1      22.478  15.058  28.347  0.00  0.00    +0.000 A 
ATOM      4  C   UNL     1      22.766  15.423  27.028  0.00  0.00    +0.000 A 
ATOM      5  C   UNL     1      22.294  16.078  29.288  0.00  0.00    +0.000 A 
ATOM      6  C   UNL     1      22.566  17.765  27.581  0.00  0.00    +0.000 A 
ATOM      7  C   UNL     1      22.794  16.763  26.642  0.00  0.00    +0.000 A 
ATOM      8  C   UNL     1      22.320  17.419  28.910  0.00  0.00    +0.000 A 
BRANCH   6  11
ATOM      9  O   UNL     1      22.494  20.038  28.111  0.00  0.00    +0.000 OA
ATOM     10  N   UNL     1      22.695  19.490  25.870  0.00  0.00    +0.000 N 
ATOM     11  C   ACE A   0      22.582  19.204  27.217  0.00  0.00    +0.000 C 
ATOM     12  H   UNL     1      22.758  18.727  25.200  0.00  0.00    +0.000 HD
ATOM     13  CA  UNL     1      22.730  20.743  25.283  0.00  0.00    +0.000 C 
BRANCH  13  15
ATOM     14  OXT UNL     1      23.210  21.737  23.163  0.00  0.00    +0.000 OA
ATOM     15  C   UNL     1      22.853  20.760  23.805  0.00  0.00    +0.000 C 
BRANCH  15  16
ATOM     16  O   UNL     1      22.540  19.597  23.213  0.00  0.00    +0.000 OA
ATOM     17  H   UNL     1      23.402  19.177  23.011  0.00  0.00    +0.000 HD
ENDBRANCH  15  16
ENDBRANCH  13  15
BRANCH  13  18
ATOM     18  CB  UNL     1      22.653  21.939  26.044  0.00  0.00    +0.000 C 
ATOM     19  CG  UNL     1      22.573  23.237  26.856  0.00  0.00    +0.000 C 
BRANCH  19  21
ATOM     20  OE2 UNL     1      22.933  25.522  27.190  0.00  0.00    +0.000 OA
ATOM     21  CD  UNL     1      22.501  24.459  27.598  0.00  0.00    +0.000 C 
BRANCH  21  22
ATOM     22  OE1 UNL     1      21.929  24.332  28.809  0.00  0.00    +0.000 OA
ATOM     23  HE1 UNL     1      21.169  24.946  28.765  0.00  0.00    +0.000 HD
ENDBRANCH  21  22
ENDBRANCH  19  21
ENDBRANCH  13  18
ENDBRANCH   6  11
ENDBRANCH   1   3
BRANCH   1  24
ATOM     24  C   UNL     1      23.087  12.742  27.752  0.00  0.00    +0.000 C 
BRANCH  24  31
ATOM     25  O   UNL     1      27.205  12.310  24.507  0.00  0.00    +0.000 OA
ATOM     26  N   UNL     1      24.820  12.029  26.144  0.00  0.00    +0.000 N 
ATOM     27  N   UNL     1      23.326   9.618  25.462  0.00  0.00    +0.000 N 
ATOM     28  N   UNL     1      24.882   9.139  23.757  0.00  0.00    +0.000 NA
ATOM     29  N   UNL     1      26.802  10.388  23.438  0.00  0.00    +0.000 N 
ATOM     30  N   UNL     1      26.391   8.537  22.133  0.00  0.00    +0.000 N 
ATOM     31  C   UNL     1      23.594  11.845  26.775  0.00  0.00    +0.000 C 
ATOM     32  C   UNL     1      22.948  10.673  26.349  0.00  0.00    +0.000 C 
ATOM     33  C   UNL     1      25.219  11.100  25.144  0.00  0.00    +0.000 A 
ATOM     34  C   UNL     1      24.509   9.974  24.789  0.00  0.00    +0.000 A 
ATOM     35  C   UNL     1      26.479  11.331  24.365  0.00  0.00    +0.000 A 
ATOM     36  C   UNL     1      25.989   9.355  23.134  0.00  0.00    +0.000 A 
ATOM     37  H   UNL     1      22.670   9.174  24.827  0.00  0.00    +0.000 HD
ATOM     38  H   UNL     1      27.624  10.574  22.885  0.00  0.00    +0.000 HD
ATOM     39  H   UNL     1      25.849   7.677  22.100  0.00  0.00    +0.000 HD
ATOM     40  H   UNL     1      27.385   8.372  22.047  0.00  0.00    +0.000 HD
BRANCH  26  42
ATOM     41  O   UNL     1      26.197  14.070  26.704  0.00  0.00    +0.000 OA
ATOM     42  C   UNL     1      25.565  13.106  26.478  0.00  0.00    +0.000 C 
ENDBRANCH  26  42
ENDBRANCH  24  31
ENDBRANCH   1  24
TORSDOF 10
ENDMDL
MODEL 9
REMARK VINA RESULT:      -6.2      4.347      6.008
REMARK  Name = 135403648_CalciumFolinate.pdbqt.pdb
REMARK  10 active torsions:
REMARK  status: ('A' for Active; 'I' for Inactive)
REMARK    1  A    between atoms: N_1  and  C_3
REMARK    2  A    between atoms: N_1  and  C_24
REMARK    3  A    between atoms: C_6  and  C_11
REMARK    4  A    between atoms: CA_13  and  C_15
REMARK    5  A    between atoms: CA_13  and  CB_18
REMARK    6  A    between atoms: C_15  and  O_16
REMARK    7  A    between atoms: CG_19  and  CD_21
REMARK    8  A    between atoms: CD_21  and  OE1_22
REMARK    9  A    between atoms: C_24  and  C_32
REMARK   10  A    between atoms: N_27  and  C_37
REMARK                            x       y       z     vdW  Elec       q    Type
REMARK                         _______ _______ _______ _____ _____    ______ ____
ROOT
ATOM      1  N   UNL     1       6.685  22.169  30.827  0.00  0.00    +0.000 N 
ATOM      2  H   UNL     1       7.098  22.715  31.582  0.00  0.00    +0.000 HD
ENDROOT
BRANCH   1   3
ATOM      3  C   UNL     1       7.272  20.891  30.712  0.00  0.00    +0.000 A 
ATOM      4  C   UNL     1       6.725  19.823  31.430  0.00  0.00    +0.000 A 
ATOM      5  C   UNL     1       8.488  20.686  30.049  0.00  0.00    +0.000 A 
ATOM      6  C   UNL     1       8.519  18.368  30.726  0.00  0.00    +0.000 A 
ATOM      7  C   UNL     1       7.332  18.568  31.426  0.00  0.00    +0.000 A 
ATOM      8  C   UNL     1       9.100  19.435  30.040  0.00  0.00    +0.000 A 
BRANCH   6  11
ATOM      9  O   UNL     1       8.661  16.094  31.238  0.00  0.00    +0.000 OA
ATOM     10  N   UNL     1      10.411  17.007  30.025  0.00  0.00    +0.000 N 
ATOM     11  C   ACE A   0       9.199  17.049  30.689  0.00  0.00    +0.000 C 
ATOM     12  H   UNL     1      10.779  17.856  29.604  0.00  0.00    +0.000 HD
ATOM     13  CA  UNL     1      11.232  15.906  29.856  0.00  0.00    +0.000 C 
BRANCH  13  15
ATOM     14  OXT UNL     1      13.429  16.791  29.535  0.00  0.00    +0.000 OA
ATOM     15  C   UNL     1      12.485  16.146  29.101  0.00  0.00    +0.000 C 
BRANCH  15  16
ATOM     16  O   UNL     1      12.507  15.590  27.880  0.00  0.00    +0.000 OA
ATOM     17  H   UNL     1      12.753  16.320  27.275  0.00  0.00    +0.000 HD
ENDBRANCH  15  16
ENDBRANCH  13  15
BRANCH  13  18
ATOM     18  CB  UNL     1      10.898  14.625  30.371  0.00  0.00    +0.000 C 
ATOM     19  CG  UNL     1      10.539  13.238  30.916  0.00  0.00    +0.000 C 
BRANCH  19  21
ATOM     20  OE2 UNL     1      10.483  11.548  32.529  0.00  0.00    +0.000 OA
ATOM     21  CD  UNL     1      10.207  11.936  31.407  0.00  0.00    +0.000 C 
BRANCH  21  22
ATOM     22  OE1 UNL     1       9.576  11.156  30.511  0.00  0.00    +0.000 OA
ATOM     23  HE1 UNL     1       9.255  11.794  29.842  0.00  0.00    +0.000 HD
ENDBRANCH  21  22
ENDBRANCH  19  21
ENDBRANCH  13  18
ENDBRANCH   6  11
ENDBRANCH   1   3
BRANCH   1  24
ATOM     24  C   UNL     1       5.241  22.292  30.667  0.00  0.00    +0.000 C 
BRANCH  24  31
ATOM     25  O   UNL     1       1.624  26.056  30.020  0.00  0.00    +0.000 OA
ATOM     26  N   UNL     1       3.198  23.629  30.302  0.00  0.00    +0.000 N 
ATOM     27  N   UNL     1       1.501  21.267  30.526  0.00  0.00    +0.000 N 
ATOM     28  N   UNL     1      -0.415  22.638  30.439  0.00  0.00    +0.000 NA
ATOM     29  N   UNL     1      -0.299  24.916  30.052  0.00  0.00    +0.000 N 
ATOM     30  N   UNL     1      -2.342  23.877  30.272  0.00  0.00    +0.000 N 
ATOM     31  C   UNL     1       3.830  22.418  30.563  0.00  0.00    +0.000 C 
ATOM     32  C   UNL     1       2.919  21.357  30.683  0.00  0.00    +0.000 C 
ATOM     33  C   UNL     1       1.777  23.662  30.262  0.00  0.00    +0.000 A 
ATOM     34  C   UNL     1       0.960  22.560  30.398  0.00  0.00    +0.000 A 
ATOM     35  C   UNL     1       1.060  24.969  30.097  0.00  0.00    +0.000 A 
ATOM     36  C   UNL     1      -0.993  23.776  30.261  0.00  0.00    +0.000 A 
ATOM     37  H   UNL     1       0.917  20.691  31.125  0.00  0.00    +0.000 HD
ATOM     38  H   UNL     1      -0.775  25.802  29.988  0.00  0.00    +0.000 HD
ATOM     39  H   UNL     1      -2.795  22.969  30.223  0.00  0.00    +0.000 HD
ATOM     40  H   UNL     1      -2.756  24.552  29.642  0.00  0.00    +0.000 HD
BRANCH  26  42
ATOM     41  O   UNL     1       4.663  25.669  30.040  0.00  0.00    +0.000 OA
ATOM     42  C   UNL     1       3.957  24.734  30.135  0.00  0.00    +0.000 C 
ENDBRANCH  26  42
ENDBRANCH  24  31
ENDBRANCH   1  24
TORSDOF 10
ENDMDL
