MODEL 1
REMARK VINA RESULT:      -6.4      0.000      0.000
REMARK  Name = 135423438_Nintedanib.pdbqt.pdb
REMARK  9 active torsions:
REMARK  status: ('A' for Active; 'I' for Inactive)
REMARK    1  A    between atoms: N_1  and  C_22
REMARK    2  A    between atoms: C_2  and  C_4
REMARK    3  A    between atoms: C_2  and  C_37
REMARK    4  A    between atoms: C_7  and  O_13
REMARK    5  A    between atoms: C_10  and  C_16
REMARK    6  A    between atoms: C_16  and  O_17
REMARK    7  A    between atoms: C_19  and  N_26
REMARK    8  A    between atoms: C_27  and  C_29
REMARK    9  A    between atoms: C_29  and  N_30
REMARK                            x       y       z     vdW  Elec       q    Type
REMARK                         _______ _______ _______ _____ _____    ______ ____
ROOT
ATOM      1  N   UNL     1      12.495  32.834  22.114  0.00  0.00    +0.000 NA
ATOM      2  C   UNL     1      13.085  33.269  23.189  0.00  0.00    +0.000 C 
ENDROOT
BRANCH   2   4
ATOM      3  N   UNL     1      11.435  31.757  26.090  0.00  0.00    +0.000 N 
ATOM      4  C   UNL     1      12.674  32.656  24.459  0.00  0.00    +0.000 A 
ATOM      5  C   UNL     1      13.521  32.336  25.578  0.00  0.00    +0.000 A 
ATOM      6  C   UNL     1      12.720  31.778  26.572  0.00  0.00    +0.000 A 
ATOM      7  C   UNL     1      11.387  32.284  24.824  0.00  0.00    +0.000 A 
ATOM      8  C   UNL     1      14.902  32.466  25.832  0.00  0.00    +0.000 A 
ATOM      9  C   UNL     1      13.222  31.348  27.805  0.00  0.00    +0.000 A 
ATOM     10  C   UNL     1      14.598  31.495  28.028  0.00  0.00    +0.000 A 
ATOM     11  C   UNL     1      15.426  32.044  27.055  0.00  0.00    +0.000 A 
ATOM     12  H   UNL     1      10.644  31.405  26.608  0.00  0.00    +0.000 HD
BRANCH   7  13
ATOM     13  O   UNL     1      10.240  32.383  24.161  0.00  0.00    +0.000 OA
ATOM     14  H   UNL     1       9.635  31.661  24.407  0.00  0.00    +0.000 HD
ENDBRANCH   7  13
BRANCH  10  16
ATOM     15  O   UNL     1      14.573  30.574  30.215  0.00  0.00    +0.000 OA
ATOM     16  C   UNL     1      15.218  31.067  29.301  0.00  0.00    +0.000 C 
BRANCH  16  17
ATOM     17  O   UNL     1      16.556  31.321  29.242  0.00  0.00    +0.000 OA
ATOM     18  C   UNL     1      17.409  30.579  30.074  0.00  0.00    +0.000 C 
ENDBRANCH  16  17
ENDBRANCH  10  16
ENDBRANCH   2   4
BRANCH   1  22
ATOM     19  C   UNL     1      13.470  34.569  18.380  0.00  0.00    +0.000 A 
ATOM     20  C   UNL     1      12.534  35.154  19.236  0.00  0.00    +0.000 A 
ATOM     21  C   UNL     1      14.074  33.380  18.810  0.00  0.00    +0.000 A 
ATOM     22  C   UNL     1      12.794  33.381  20.860  0.00  0.00    +0.000 A 
ATOM     23  C   UNL     1      12.203  34.580  20.463  0.00  0.00    +0.000 A 
ATOM     24  C   UNL     1      13.752  32.797  20.034  0.00  0.00    +0.000 A 
BRANCH  19  26
ATOM     25  O   UNL     1      12.098  34.055  15.883  0.00  0.00    +0.000 OA
ATOM     26  N   UNL     1      13.810  35.156  17.103  0.00  0.00    +0.000 N 
ATOM     27  C   UNL     1      13.056  34.819  15.952  0.00  0.00    +0.000 C 
ATOM     28  C   UNL     1      14.952  36.074  17.123  0.00  0.00    +0.000 C 
BRANCH  27  29
ATOM     29  C   UNL     1      13.463  35.445  14.701  0.00  0.00    +0.000 C 
BRANCH  29  30
ATOM     30  N   UNL     1      13.849  36.092  13.449  0.00  0.00    +0.000 N 
ATOM     31  N   UNL     1      17.288  35.847  12.602  0.00  0.00    +0.000 N 
ATOM     32  C   UNL     1      15.017  36.962  13.757  0.00  0.00    +0.000 C 
ATOM     33  C   UNL     1      14.614  35.080  12.668  0.00  0.00    +0.000 C 
ATOM     34  C   UNL     1      16.525  36.854  13.389  0.00  0.00    +0.000 C 
ATOM     35  C   UNL     1      16.123  34.971  12.300  0.00  0.00    +0.000 C 
ATOM     36  C   UNL     1      18.128  35.122  13.546  0.00  0.00    +0.000 C 
ENDBRANCH  29  30
ENDBRANCH  27  29
ENDBRANCH  19  26
ENDBRANCH   1  22
BRANCH   2  37
ATOM     37  C   UNL     1      14.116  34.322  23.219  0.00  0.00    +0.000 A 
ATOM     38  C   UNL     1      15.427  34.008  22.866  0.00  0.00    +0.000 A 
ATOM     39  C   UNL     1      13.750  35.621  23.569  0.00  0.00    +0.000 A 
ATOM     40  C   UNL     1      16.388  35.014  22.871  0.00  0.00    +0.000 A 
ATOM     41  C   UNL     1      14.720  36.618  23.572  0.00  0.00    +0.000 A 
ATOM     42  C   UNL     1      16.036  36.316  23.224  0.00  0.00    +0.000 A 
ENDBRANCH   2  37
TORSDOF 9
ENDMDL
MODEL 2
REMARK VINA RESULT:      -6.4     11.511     18.386
REMARK  Name = 135423438_Nintedanib.pdbqt.pdb
REMARK  9 active torsions:
REMARK  status: ('A' for Active; 'I' for Inactive)
REMARK    1  A    between atoms: N_1  and  C_22
REMARK    2  A    between atoms: C_2  and  C_4
REMARK    3  A    between atoms: C_2  and  C_37
REMARK    4  A    between atoms: C_7  and  O_13
REMARK    5  A    between atoms: C_10  and  C_16
REMARK    6  A    between atoms: C_16  and  O_17
REMARK    7  A    between atoms: C_19  and  N_26
REMARK    8  A    between atoms: C_27  and  C_29
REMARK    9  A    between atoms: C_29  and  N_30
REMARK                            x       y       z     vdW  Elec       q    Type
REMARK                         _______ _______ _______ _____ _____    ______ ____
ROOT
ATOM      1  N   UNL     1       9.182  23.992  29.271  0.00  0.00    +0.000 NA
ATOM      2  C   UNL     1       8.404  25.013  29.052  0.00  0.00    +0.000 C 
ENDROOT
BRANCH   2   4
ATOM      3  N   UNL     1       9.298  27.266  26.305  0.00  0.00    +0.000 N 
ATOM      4  C   UNL     1       8.913  26.045  28.139  0.00  0.00    +0.000 A 
ATOM      5  C   UNL     1       9.837  27.101  28.458  0.00  0.00    +0.000 A 
ATOM      6  C   UNL     1      10.052  27.842  27.297  0.00  0.00    +0.000 A 
ATOM      7  C   UNL     1       8.611  26.183  26.791  0.00  0.00    +0.000 A 
ATOM      8  C   UNL     1      10.505  27.499  29.634  0.00  0.00    +0.000 A 
ATOM      9  C   UNL     1      10.901  28.953  27.247  0.00  0.00    +0.000 A 
ATOM     10  C   UNL     1      11.553  29.320  28.432  0.00  0.00    +0.000 A 
ATOM     11  C   UNL     1      11.357  28.605  29.608  0.00  0.00    +0.000 A 
ATOM     12  H   UNL     1       9.267  27.600  25.353  0.00  0.00    +0.000 HD
BRANCH   7  13
ATOM     13  O   UNL     1       7.825  25.455  26.004  0.00  0.00    +0.000 OA
ATOM     14  H   UNL     1       8.336  24.762  25.552  0.00  0.00    +0.000 HD
ENDBRANCH   7  13
BRANCH  10  16
ATOM     15  O   UNL     1      12.856  30.976  29.523  0.00  0.00    +0.000 OA
ATOM     16  C   UNL     1      12.469  30.481  28.475  0.00  0.00    +0.000 C 
BRANCH  16  17
ATOM     17  O   UNL     1      12.765  30.851  27.196  0.00  0.00    +0.000 OA
ATOM     18  C   UNL     1      13.323  32.122  26.987  0.00  0.00    +0.000 C 
ENDBRANCH  16  17
ENDBRANCH  10  16
ENDBRANCH   2   4
BRANCH   1  22
ATOM     19  C   UNL     1       8.109  20.845  31.887  0.00  0.00    +0.000 A 
ATOM     20  C   UNL     1       7.686  20.866  30.556  0.00  0.00    +0.000 A 
ATOM     21  C   UNL     1       8.904  21.914  32.322  0.00  0.00    +0.000 A 
ATOM     22  C   UNL     1       8.799  22.975  30.152  0.00  0.00    +0.000 A 
ATOM     23  C   UNL     1       8.030  21.906  29.693  0.00  0.00    +0.000 A 
ATOM     24  C   UNL     1       9.256  22.959  31.469  0.00  0.00    +0.000 A 
BRANCH  19  26
ATOM     25  O   UNL     1       9.597  18.388  32.243  0.00  0.00    +0.000 OA
ATOM     26  N   UNL     1       7.748  19.773  32.787  0.00  0.00    +0.000 N 
ATOM     27  C   UNL     1       8.565  18.618  32.866  0.00  0.00    +0.000 C 
ATOM     28  C   UNL     1       6.518  19.989  33.554  0.00  0.00    +0.000 C 
BRANCH  27  29
ATOM     29  C   UNL     1       8.133  17.577  33.788  0.00  0.00    +0.000 C 
BRANCH  29  30
ATOM     30  N   UNL     1       7.670  16.535  34.703  0.00  0.00    +0.000 N 
ATOM     31  N   UNL     1       6.711  13.479  33.174  0.00  0.00    +0.000 N 
ATOM     32  C   UNL     1       6.365  16.049  34.177  0.00  0.00    +0.000 C 
ATOM     33  C   UNL     1       8.439  15.304  34.366  0.00  0.00    +0.000 C 
ATOM     34  C   UNL     1       5.944  14.711  33.503  0.00  0.00    +0.000 C 
ATOM     35  C   UNL     1       8.018  13.966  33.691  0.00  0.00    +0.000 C 
ATOM     36  C   UNL     1       6.824  13.427  31.722  0.00  0.00    +0.000 C 
ENDBRANCH  29  30
ENDBRANCH  27  29
ENDBRANCH  19  26
ENDBRANCH   1  22
BRANCH   2  37
ATOM     37  C   UNL     1       7.072  25.202  29.653  0.00  0.00    +0.000 A 
ATOM     38  C   UNL     1       5.948  24.694  29.004  0.00  0.00    +0.000 A 
ATOM     39  C   UNL     1       6.966  25.858  30.879  0.00  0.00    +0.000 A 
ATOM     40  C   UNL     1       4.697  24.854  29.591  0.00  0.00    +0.000 A 
ATOM     41  C   UNL     1       5.710  26.013  31.456  0.00  0.00    +0.000 A 
ATOM     42  C   UNL     1       4.578  25.512  30.814  0.00  0.00    +0.000 A 
ENDBRANCH   2  37
TORSDOF 9
ENDMDL
MODEL 3
REMARK VINA RESULT:      -6.3     24.836     28.627
REMARK  Name = 135423438_Nintedanib.pdbqt.pdb
REMARK  9 active torsions:
REMARK  status: ('A' for Active; 'I' for Inactive)
REMARK    1  A    between atoms: N_1  and  C_22
REMARK    2  A    between atoms: C_2  and  C_4
REMARK    3  A    between atoms: C_2  and  C_37
REMARK    4  A    between atoms: C_7  and  O_13
REMARK    5  A    between atoms: C_10  and  C_16
REMARK    6  A    between atoms: C_16  and  O_17
REMARK    7  A    between atoms: C_19  and  N_26
REMARK    8  A    between atoms: C_27  and  C_29
REMARK    9  A    between atoms: C_29  and  N_30
REMARK                            x       y       z     vdW  Elec       q    Type
REMARK                         _______ _______ _______ _____ _____    ______ ____
ROOT
ATOM      1  N   UNL     1       1.206  10.537  23.396  0.00  0.00    +0.000 NA
ATOM      2  C   UNL     1       0.812  11.484  24.198  0.00  0.00    +0.000 C 
ENDROOT
BRANCH   2   4
ATOM      3  N   UNL     1      -1.236  13.847  22.289  0.00  0.00    +0.000 N 
ATOM      4  C   UNL     1       0.118  12.622  23.580  0.00  0.00    +0.000 A 
ATOM      5  C   UNL     1       0.323  14.018  23.866  0.00  0.00    +0.000 A 
ATOM      6  C   UNL     1      -0.535  14.750  23.049  0.00  0.00    +0.000 A 
ATOM      7  C   UNL     1      -0.855  12.564  22.591  0.00  0.00    +0.000 A 
ATOM      8  C   UNL     1       1.160  14.725  24.754  0.00  0.00    +0.000 A 
ATOM      9  C   UNL     1      -0.600  16.147  23.067  0.00  0.00    +0.000 A 
ATOM     10  C   UNL     1       0.247  16.820  23.958  0.00  0.00    +0.000 A 
ATOM     11  C   UNL     1       1.113  16.120  24.790  0.00  0.00    +0.000 A 
ATOM     12  H   UNL     1      -1.930  14.105  21.603  0.00  0.00    +0.000 HD
BRANCH   7  13
ATOM     13  O   UNL     1      -1.389  11.520  21.967  0.00  0.00    +0.000 OA
ATOM     14  H   UNL     1      -1.391  11.658  21.003  0.00  0.00    +0.000 HD
ENDBRANCH   7  13
BRANCH  10  16
ATOM     15  O   UNL     1       0.345  19.017  23.064  0.00  0.00    +0.000 OA
ATOM     16  C   UNL     1       0.248  18.297  24.047  0.00  0.00    +0.000 C 
BRANCH  16  17
ATOM     17  O   UNL     1       0.126  18.655  25.357  0.00  0.00    +0.000 OA
ATOM     18  C   UNL     1      -1.157  18.947  25.847  0.00  0.00    +0.000 C 
ENDBRANCH  16  17
ENDBRANCH  10  16
ENDBRANCH   2   4
BRANCH   1  22
ATOM     19  C   UNL     1       3.351   7.249  24.975  0.00  0.00    +0.000 A 
ATOM     20  C   UNL     1       4.002   8.318  24.356  0.00  0.00    +0.000 A 
ATOM     21  C   UNL     1       1.953   7.310  25.050  0.00  0.00    +0.000 A 
ATOM     22  C   UNL     1       1.906   9.428  23.886  0.00  0.00    +0.000 A 
ATOM     23  C   UNL     1       3.298   9.399  23.827  0.00  0.00    +0.000 A 
ATOM     24  C   UNL     1       1.237   8.385  24.525  0.00  0.00    +0.000 A 
BRANCH  19  26
ATOM     25  O   UNL     1       3.630   4.666  23.698  0.00  0.00    +0.000 OA
ATOM     26  N   UNL     1       4.076   6.123  25.518  0.00  0.00    +0.000 N 
ATOM     27  C   UNL     1       4.136   4.908  24.790  0.00  0.00    +0.000 C 
ATOM     28  C   UNL     1       4.698   6.352  26.825  0.00  0.00    +0.000 C 
BRANCH  27  29
ATOM     29  C   UNL     1       4.878   3.817  25.405  0.00  0.00    +0.000 C 
BRANCH  29  30
ATOM     30  N   UNL     1       5.647   2.727  26.004  0.00  0.00    +0.000 N 
ATOM     31  N   UNL     1       6.645   0.156  23.769  0.00  0.00    +0.000 N 
ATOM     32  C   UNL     1       4.990   1.458  25.586  0.00  0.00    +0.000 C 
ATOM     33  C   UNL     1       6.863   2.555  25.162  0.00  0.00    +0.000 C 
ATOM     34  C   UNL     1       5.426   0.332  24.605  0.00  0.00    +0.000 C 
ATOM     35  C   UNL     1       7.298   1.428  24.179  0.00  0.00    +0.000 C 
ATOM     36  C   UNL     1       6.233   0.320  22.382  0.00  0.00    +0.000 C 
ENDBRANCH  29  30
ENDBRANCH  27  29
ENDBRANCH  19  26
ENDBRANCH   1  22
BRANCH   2  37
ATOM     37  C   UNL     1       1.016  11.494  25.657  0.00  0.00    +0.000 A 
ATOM     38  C   UNL     1      -0.060  11.226  26.502  0.00  0.00    +0.000 A 
ATOM     39  C   UNL     1       2.291  11.738  26.163  0.00  0.00    +0.000 A 
ATOM     40  C   UNL     1       0.147  11.211  27.878  0.00  0.00    +0.000 A 
ATOM     41  C   UNL     1       2.487  11.721  27.540  0.00  0.00    +0.000 A 
ATOM     42  C   UNL     1       1.417  11.458  28.396  0.00  0.00    +0.000 A 
ENDBRANCH   2  37
TORSDOF 9
ENDMDL
MODEL 4
REMARK VINA RESULT:      -6.3     17.752     21.860
REMARK  Name = 135423438_Nintedanib.pdbqt.pdb
REMARK  9 active torsions:
REMARK  status: ('A' for Active; 'I' for Inactive)
REMARK    1  A    between atoms: N_1  and  C_22
REMARK    2  A    between atoms: C_2  and  C_4
REMARK    3  A    between atoms: C_2  and  C_37
REMARK    4  A    between atoms: C_7  and  O_13
REMARK    5  A    between atoms: C_10  and  C_16
REMARK    6  A    between atoms: C_16  and  O_17
REMARK    7  A    between atoms: C_19  and  N_26
REMARK    8  A    between atoms: C_27  and  C_29
REMARK    9  A    between atoms: C_29  and  N_30
REMARK                            x       y       z     vdW  Elec       q    Type
REMARK                         _______ _______ _______ _____ _____    ______ ____
ROOT
ATOM      1  N   UNL     1      22.548  15.096  26.537  0.00  0.00    +0.000 NA
ATOM      2  C   UNL     1      23.603  14.407  26.208  0.00  0.00    +0.000 C 
ENDROOT
BRANCH   2   4
ATOM      3  N   UNL     1      22.568  10.896  26.043  0.00  0.00    +0.000 N 
ATOM      4  C   UNL     1      23.405  12.970  25.979  0.00  0.00    +0.000 A 
ATOM      5  C   UNL     1      24.240  12.096  25.198  0.00  0.00    +0.000 A 
ATOM      6  C   UNL     1      23.690  10.816  25.257  0.00  0.00    +0.000 A 
ATOM      7  C   UNL     1      22.382  12.180  26.489  0.00  0.00    +0.000 A 
ATOM      8  C   UNL     1      25.414  12.280  24.439  0.00  0.00    +0.000 A 
ATOM      9  C   UNL     1      24.251   9.714  24.604  0.00  0.00    +0.000 A 
ATOM     10  C   UNL     1      25.419   9.929  23.861  0.00  0.00    +0.000 A 
ATOM     11  C   UNL     1      25.991  11.194  23.778  0.00  0.00    +0.000 A 
ATOM     12  H   UNL     1      21.973  10.110  26.259  0.00  0.00    +0.000 HD
BRANCH   7  13
ATOM     13  O   UNL     1      21.364  12.495  27.283  0.00  0.00    +0.000 OA
ATOM     14  H   UNL     1      20.570  12.701  26.760  0.00  0.00    +0.000 HD
ENDBRANCH   7  13
BRANCH  10  16
ATOM     15  O   UNL     1      25.813   7.648  23.340  0.00  0.00    +0.000 OA
ATOM     16  C   UNL     1      26.082   8.823  23.137  0.00  0.00    +0.000 C 
BRANCH  16  17
ATOM     17  O   UNL     1      26.985   9.353  22.264  0.00  0.00    +0.000 OA
ATOM     18  C   UNL     1      28.104   8.578  21.917  0.00  0.00    +0.000 C 
ENDBRANCH  16  17
ENDBRANCH  10  16
ENDBRANCH   2   4
BRANCH   1  22
ATOM     19  C   UNL     1      22.716  19.239  27.378  0.00  0.00    +0.000 A 
ATOM     20  C   UNL     1      22.253  18.760  26.150  0.00  0.00    +0.000 A 
ATOM     21  C   UNL     1      23.125  18.287  28.322  0.00  0.00    +0.000 A 
ATOM     22  C   UNL     1      22.643  16.466  26.808  0.00  0.00    +0.000 A 
ATOM     23  C   UNL     1      22.205  17.396  25.866  0.00  0.00    +0.000 A 
ATOM     24  C   UNL     1      23.081  16.921  28.050  0.00  0.00    +0.000 A 
BRANCH  19  26
ATOM     25  O   UNL     1      24.101  21.224  25.790  0.00  0.00    +0.000 OA
ATOM     26  N   UNL     1      22.775  20.653  27.674  0.00  0.00    +0.000 N 
ATOM     27  C   UNL     1      23.491  21.521  26.812  0.00  0.00    +0.000 C 
ATOM     28  C   UNL     1      22.067  21.067  28.889  0.00  0.00    +0.000 C 
BRANCH  27  29
ATOM     29  C   UNL     1      23.512  22.930  27.180  0.00  0.00    +0.000 C 
BRANCH  29  30
ATOM     30  N   UNL     1      23.557  24.348  27.532  0.00  0.00    +0.000 N 
ATOM     31  N   UNL     1      24.605  26.530  24.935  0.00  0.00    +0.000 N 
ATOM     32  C   UNL     1      24.901  24.848  27.129  0.00  0.00    +0.000 C 
ATOM     33  C   UNL     1      22.802  25.072  26.471  0.00  0.00    +0.000 C 
ATOM     34  C   UNL     1      25.361  25.802  25.990  0.00  0.00    +0.000 C 
ATOM     35  C   UNL     1      23.262  26.026  25.330  0.00  0.00    +0.000 C 
ATOM     36  C   UNL     1      24.937  25.899  23.665  0.00  0.00    +0.000 C 
ENDBRANCH  29  30
ENDBRANCH  27  29
ENDBRANCH  19  26
ENDBRANCH   1  22
BRANCH   2  37
ATOM     37  C   UNL     1      24.960  14.961  26.056  0.00  0.00    +0.000 A 
ATOM     38  C   UNL     1      25.896  14.771  27.070  0.00  0.00    +0.000 A 
ATOM     39  C   UNL     1      25.289  15.638  24.882  0.00  0.00    +0.000 A 
ATOM     40  C   UNL     1      27.183  15.275  26.907  0.00  0.00    +0.000 A 
ATOM     41  C   UNL     1      26.578  16.138  24.730  0.00  0.00    +0.000 A 
ATOM     42  C   UNL     1      27.523  15.957  25.740  0.00  0.00    +0.000 A 
ENDBRANCH   2  37
TORSDOF 9
ENDMDL
MODEL 5
REMARK VINA RESULT:      -6.2     17.202     20.707
REMARK  Name = 135423438_Nintedanib.pdbqt.pdb
REMARK  9 active torsions:
REMARK  status: ('A' for Active; 'I' for Inactive)
REMARK    1  A    between atoms: N_1  and  C_22
REMARK    2  A    between atoms: C_2  and  C_4
REMARK    3  A    between atoms: C_2  and  C_37
REMARK    4  A    between atoms: C_7  and  O_13
REMARK    5  A    between atoms: C_10  and  C_16
REMARK    6  A    between atoms: C_16  and  O_17
REMARK    7  A    between atoms: C_19  and  N_26
REMARK    8  A    between atoms: C_27  and  C_29
REMARK    9  A    between atoms: C_29  and  N_30
REMARK                            x       y       z     vdW  Elec       q    Type
REMARK                         _______ _______ _______ _____ _____    ______ ____
ROOT
ATOM      1  N   UNL     1      -0.396  27.175  12.597  0.00  0.00    +0.000 NA
ATOM      2  C   UNL     1      -0.193  28.300  13.221  0.00  0.00    +0.000 C 
ENDROOT
BRANCH   2   4
ATOM      3  N   UNL     1       1.639  30.527  10.961  0.00  0.00    +0.000 N 
ATOM      4  C   UNL     1       0.661  29.284  12.542  0.00  0.00    +0.000 A 
ATOM      5  C   UNL     1       1.632  30.153  13.154  0.00  0.00    +0.000 A 
ATOM      6  C   UNL     1       2.219  30.913  12.144  0.00  0.00    +0.000 A 
ATOM      7  C   UNL     1       0.704  29.547  11.179  0.00  0.00    +0.000 A 
ATOM      8  C   UNL     1       2.061  30.366  14.480  0.00  0.00    +0.000 A 
ATOM      9  C   UNL     1       3.211  31.869  12.386  0.00  0.00    +0.000 A 
ATOM     10  C   UNL     1       3.617  32.054  13.714  0.00  0.00    +0.000 A 
ATOM     11  C   UNL     1       3.049  31.315  14.746  0.00  0.00    +0.000 A 
ATOM     12  H   UNL     1       1.880  30.915  10.061  0.00  0.00    +0.000 HD
BRANCH   7  13
ATOM     13  O   UNL     1       0.023  29.005  10.175  0.00  0.00    +0.000 OA
ATOM     14  H   UNL     1      -0.871  28.750  10.463  0.00  0.00    +0.000 HD
ENDBRANCH   7  13
BRANCH  10  16
ATOM     15  O   UNL     1       5.426  33.514  13.239  0.00  0.00    +0.000 OA
ATOM     16  C   UNL     1       4.660  33.043  14.066  0.00  0.00    +0.000 C 
BRANCH  16  17
ATOM     17  O   UNL     1       4.587  33.296  15.403  0.00  0.00    +0.000 OA
ATOM     18  C   UNL     1       5.754  33.718  16.062  0.00  0.00    +0.000 C 
ENDBRANCH  16  17
ENDBRANCH  10  16
ENDBRANCH   2   4
BRANCH   1  22
ATOM     19  C   UNL     1      -2.716  24.167  14.461  0.00  0.00    +0.000 A 
ATOM     20  C   UNL     1      -1.321  24.171  14.541  0.00  0.00    +0.000 A 
ATOM     21  C   UNL     1      -3.316  25.204  13.734  0.00  0.00    +0.000 A 
ATOM     22  C   UNL     1      -1.168  26.163  13.178  0.00  0.00    +0.000 A 
ATOM     23  C   UNL     1      -0.553  25.155  13.921  0.00  0.00    +0.000 A 
ATOM     24  C   UNL     1      -2.560  26.195  13.110  0.00  0.00    +0.000 A 
BRANCH  19  26
ATOM     25  O   UNL     1      -3.311  21.569  13.333  0.00  0.00    +0.000 OA
ATOM     26  N   UNL     1      -3.516  23.144  15.096  0.00  0.00    +0.000 N 
ATOM     27  C   UNL     1      -3.733  21.910  14.434  0.00  0.00    +0.000 C 
ATOM     28  C   UNL     1      -4.053  23.499  16.413  0.00  0.00    +0.000 C 
BRANCH  27  29
ATOM     29  C   UNL     1      -4.555  20.933  15.133  0.00  0.00    +0.000 C 
BRANCH  29  30
ATOM     30  N   UNL     1      -5.356  19.936  15.841  0.00  0.00    +0.000 N 
ATOM     31  N   UNL     1      -5.132  16.625  14.581  0.00  0.00    +0.000 N 
ATOM     32  C   UNL     1      -6.143  19.205  14.810  0.00  0.00    +0.000 C 
ATOM     33  C   UNL     1      -4.438  18.807  16.161  0.00  0.00    +0.000 C 
ATOM     34  C   UNL     1      -6.044  17.755  14.256  0.00  0.00    +0.000 C 
ATOM     35  C   UNL     1      -4.339  17.356  15.606  0.00  0.00    +0.000 C 
ATOM     36  C   UNL     1      -4.263  16.437  13.428  0.00  0.00    +0.000 C 
ENDBRANCH  29  30
ENDBRANCH  27  29
ENDBRANCH  19  26
ENDBRANCH   1  22
BRANCH   2  37
ATOM     37  C   UNL     1      -0.749  28.645  14.541  0.00  0.00    +0.000 A 
ATOM     38  C   UNL     1      -1.850  29.495  14.621  0.00  0.00    +0.000 A 
ATOM     39  C   UNL     1      -0.181  28.086  15.685  0.00  0.00    +0.000 A 
ATOM     40  C   UNL     1      -2.385  29.795  15.870  0.00  0.00    +0.000 A 
ATOM     41  C   UNL     1      -0.723  28.393  16.929  0.00  0.00    +0.000 A 
ATOM     42  C   UNL     1      -1.823  29.245  17.021  0.00  0.00    +0.000 A 
ENDBRANCH   2  37
TORSDOF 9
ENDMDL
MODEL 6
REMARK VINA RESULT:      -6.2     21.195     26.023
REMARK  Name = 135423438_Nintedanib.pdbqt.pdb
REMARK  9 active torsions:
REMARK  status: ('A' for Active; 'I' for Inactive)
REMARK    1  A    between atoms: N_1  and  C_22
REMARK    2  A    between atoms: C_2  and  C_4
REMARK    3  A    between atoms: C_2  and  C_37
REMARK    4  A    between atoms: C_7  and  O_13
REMARK    5  A    between atoms: C_10  and  C_16
REMARK    6  A    between atoms: C_16  and  O_17
REMARK    7  A    between atoms: C_19  and  N_26
REMARK    8  A    between atoms: C_27  and  C_29
REMARK    9  A    between atoms: C_29  and  N_30
REMARK                            x       y       z     vdW  Elec       q    Type
REMARK                         _______ _______ _______ _____ _____    ______ ____
ROOT
ATOM      1  N   UNL     1      22.758  13.307  27.564  0.00  0.00    +0.000 NA
ATOM      2  C   UNL     1      23.501  14.318  27.218  0.00  0.00    +0.000 C 
ENDROOT
BRANCH   2   4
ATOM      3  N   UNL     1      21.858  17.397  28.331  0.00  0.00    +0.000 N 
ATOM      4  C   UNL     1      22.931  15.656  27.428  0.00  0.00    +0.000 A 
ATOM      5  C   UNL     1      22.988  16.772  26.520  0.00  0.00    +0.000 A 
ATOM      6  C   UNL     1      22.314  17.837  27.114  0.00  0.00    +0.000 A 
ATOM      7  C   UNL     1      22.215  16.089  28.536  0.00  0.00    +0.000 A 
ATOM      8  C   UNL     1      23.560  16.973  25.247  0.00  0.00    +0.000 A 
ATOM      9  C   UNL     1      22.177  19.088  26.503  0.00  0.00    +0.000 A 
ATOM     10  C   UNL     1      22.753  19.255  25.237  0.00  0.00    +0.000 A 
ATOM     11  C   UNL     1      23.436  18.213  24.619  0.00  0.00    +0.000 A 
ATOM     12  H   UNL     1      21.329  17.967  28.975  0.00  0.00    +0.000 HD
BRANCH   7  13
ATOM     13  O   UNL     1      21.867  15.443  29.644  0.00  0.00    +0.000 OA
ATOM     14  H   UNL     1      21.556  16.066  30.324  0.00  0.00    +0.000 HD
ENDBRANCH   7  13
BRANCH  10  16
ATOM     15  O   UNL     1      22.676  20.618  23.296  0.00  0.00    +0.000 OA
ATOM     16  C   UNL     1      22.659  20.543  24.516  0.00  0.00    +0.000 C 
BRANCH  16  17
ATOM     17  O   UNL     1      22.557  21.549  25.430  0.00  0.00    +0.000 OA
ATOM     18  C   UNL     1      23.641  22.431  25.568  0.00  0.00    +0.000 C 
ENDBRANCH  16  17
ENDBRANCH  10  16
ENDBRANCH   2   4
BRANCH   1  22
ATOM     19  C   UNL     1      24.181   9.377  26.908  0.00  0.00    +0.000 A 
ATOM     20  C   UNL     1      23.391  10.036  25.963  0.00  0.00    +0.000 A 
ATOM     21  C   UNL     1      24.482  10.073  28.086  0.00  0.00    +0.000 A 
ATOM     22  C   UNL     1      23.200  11.993  27.371  0.00  0.00    +0.000 A 
ATOM     23  C   UNL     1      22.913  11.328  26.179  0.00  0.00    +0.000 A 
ATOM     24  C   UNL     1      24.010  11.364  28.314  0.00  0.00    +0.000 A 
BRANCH  19  26
ATOM     25  O   UNL     1      22.629   6.954  27.230  0.00  0.00    +0.000 OA
ATOM     26  N   UNL     1      24.672   8.035  26.690  0.00  0.00    +0.000 N 
ATOM     27  C   UNL     1      23.806   6.930  26.884  0.00  0.00    +0.000 C 
ATOM     28  C   UNL     1      26.077   7.943  26.281  0.00  0.00    +0.000 C 
BRANCH  27  29
ATOM     29  C   UNL     1      24.375   5.609  26.654  0.00  0.00    +0.000 C 
BRANCH  29  30
ATOM     30  N   UNL     1      24.957   4.293  26.395  0.00  0.00    +0.000 N 
ATOM     31  N   UNL     1      22.646   1.600  26.287  0.00  0.00    +0.000 N 
ATOM     32  C   UNL     1      24.438   3.380  27.451  0.00  0.00    +0.000 C 
ATOM     33  C   UNL     1      24.172   3.696  25.278  0.00  0.00    +0.000 C 
ATOM     34  C   UNL     1      23.424   2.201  27.405  0.00  0.00    +0.000 C 
ATOM     35  C   UNL     1      23.156   2.517  25.233  0.00  0.00    +0.000 C 
ATOM     36  C   UNL     1      21.249   1.947  26.510  0.00  0.00    +0.000 C 
ENDBRANCH  29  30
ENDBRANCH  27  29
ENDBRANCH  19  26
ENDBRANCH   1  22
BRANCH   2  37
ATOM     37  C   UNL     1      24.850  14.214  26.634  0.00  0.00    +0.000 A 
ATOM     38  C   UNL     1      25.966  14.374  27.454  0.00  0.00    +0.000 A 
ATOM     39  C   UNL     1      24.983  13.922  25.278  0.00  0.00    +0.000 A 
ATOM     40  C   UNL     1      27.236  14.247  26.900  0.00  0.00    +0.000 A 
ATOM     41  C   UNL     1      26.257  13.798  24.734  0.00  0.00    +0.000 A 
ATOM     42  C   UNL     1      27.381  13.960  25.543  0.00  0.00    +0.000 A 
ENDBRANCH   2  37
TORSDOF 9
ENDMDL
MODEL 7
REMARK VINA RESULT:      -6.1     10.437     15.777
REMARK  Name = 135423438_Nintedanib.pdbqt.pdb
REMARK  9 active torsions:
REMARK  status: ('A' for Active; 'I' for Inactive)
REMARK    1  A    between atoms: N_1  and  C_22
REMARK    2  A    between atoms: C_2  and  C_4
REMARK    3  A    between atoms: C_2  and  C_37
REMARK    4  A    between atoms: C_7  and  O_13
REMARK    5  A    between atoms: C_10  and  C_16
REMARK    6  A    between atoms: C_16  and  O_17
REMARK    7  A    between atoms: C_19  and  N_26
REMARK    8  A    between atoms: C_27  and  C_29
REMARK    9  A    between atoms: C_29  and  N_30
REMARK                            x       y       z     vdW  Elec       q    Type
REMARK                         _______ _______ _______ _____ _____    ______ ____
ROOT
ATOM      1  N   UNL     1      11.331  23.263  30.081  0.00  0.00    +0.000 NA
ATOM      2  C   UNL     1      10.801  22.131  30.445  0.00  0.00    +0.000 C 
ENDROOT
BRANCH   2   4
ATOM      3  N   UNL     1      13.350  19.564  29.867  0.00  0.00    +0.000 N 
ATOM      4  C   UNL     1      11.616  20.927  30.236  0.00  0.00    +0.000 A 
ATOM      5  C   UNL     1      11.150  19.565  30.193  0.00  0.00    +0.000 A 
ATOM      6  C   UNL     1      12.253  18.745  29.965  0.00  0.00    +0.000 A 
ATOM      7  C   UNL     1      12.987  20.878  30.023  0.00  0.00    +0.000 A 
ATOM      8  C   UNL     1       9.886  18.956  30.336  0.00  0.00    +0.000 A 
ATOM      9  C   UNL     1      12.162  17.353  29.867  0.00  0.00    +0.000 A 
ATOM     10  C   UNL     1      10.892  16.778  30.009  0.00  0.00    +0.000 A 
ATOM     11  C   UNL     1       9.771  17.567  30.241  0.00  0.00    +0.000 A 
ATOM     12  H   UNL     1      14.289  19.233  29.699  0.00  0.00    +0.000 HD
BRANCH   7  13
ATOM     13  O   UNL     1      13.883  21.856  29.950  0.00  0.00    +0.000 OA
ATOM     14  H   UNL     1      14.785  21.507  30.069  0.00  0.00    +0.000 HD
ENDBRANCH   7  13
BRANCH  10  16
ATOM     15  O   UNL     1       9.663  14.810  29.512  0.00  0.00    +0.000 OA
ATOM     16  C   UNL     1      10.699  15.314  29.920  0.00  0.00    +0.000 C 
BRANCH  16  17
ATOM     17  O   UNL     1      11.833  14.698  30.357  0.00  0.00    +0.000 OA
ATOM     18  C   UNL     1      11.716  13.416  30.920  0.00  0.00    +0.000 C 
ENDBRANCH  16  17
ENDBRANCH  10  16
ENDBRANCH   2   4
BRANCH   1  22
ATOM     19  C   UNL     1       9.278  26.946  30.440  0.00  0.00    +0.000 A 
ATOM     20  C   UNL     1      10.110  26.470  31.456  0.00  0.00    +0.000 A 
ATOM     21  C   UNL     1       9.150  26.150  29.294  0.00  0.00    +0.000 A 
ATOM     22  C   UNL     1      10.618  24.462  30.209  0.00  0.00    +0.000 A 
ATOM     23  C   UNL     1      10.781  25.253  31.345  0.00  0.00    +0.000 A 
ATOM     24  C   UNL     1       9.816  24.932  29.171  0.00  0.00    +0.000 A 
BRANCH  19  26
ATOM     25  O   UNL     1       9.804  29.307  28.850  0.00  0.00    +0.000 OA
ATOM     26  N   UNL     1       8.575  28.204  30.555  0.00  0.00    +0.000 N 
ATOM     27  C   UNL     1       8.932  29.287  29.713  0.00  0.00    +0.000 C 
ATOM     28  C   UNL     1       7.524  28.241  31.576  0.00  0.00    +0.000 C 
BRANCH  27  29
ATOM     29  C   UNL     1       8.184  30.524  29.893  0.00  0.00    +0.000 C 
BRANCH  29  30
ATOM     30  N   UNL     1       7.451  31.771  30.097  0.00  0.00    +0.000 N 
ATOM     31  N   UNL     1       8.024  34.292  27.664  0.00  0.00    +0.000 N 
ATOM     32  C   UNL     1       8.449  32.874  30.018  0.00  0.00    +0.000 C 
ATOM     33  C   UNL     1       6.778  32.083  28.805  0.00  0.00    +0.000 C 
ATOM     34  C   UNL     1       8.703  33.978  28.951  0.00  0.00    +0.000 C 
ATOM     35  C   UNL     1       7.032  33.186  27.737  0.00  0.00    +0.000 C 
ATOM     36  C   UNL     1       8.959  33.953  26.600  0.00  0.00    +0.000 C 
ENDBRANCH  29  30
ENDBRANCH  27  29
ENDBRANCH  19  26
ENDBRANCH   1  22
BRANCH   2  37
ATOM     37  C   UNL     1       9.461  21.978  31.039  0.00  0.00    +0.000 A 
ATOM     38  C   UNL     1       8.348  21.887  30.206  0.00  0.00    +0.000 A 
ATOM     39  C   UNL     1       9.338  21.894  32.425  0.00  0.00    +0.000 A 
ATOM     40  C   UNL     1       7.089  21.716  30.774  0.00  0.00    +0.000 A 
ATOM     41  C   UNL     1       8.075  21.724  32.983  0.00  0.00    +0.000 A 
ATOM     42  C   UNL     1       6.953  21.635  32.159  0.00  0.00    +0.000 A 
ENDBRANCH   2  37
TORSDOF 9
ENDMDL
MODEL 8
REMARK VINA RESULT:      -6.0     10.537     15.931
REMARK  Name = 135423438_Nintedanib.pdbqt.pdb
REMARK  9 active torsions:
REMARK  status: ('A' for Active; 'I' for Inactive)
REMARK    1  A    between atoms: N_1  and  C_22
REMARK    2  A    between atoms: C_2  and  C_4
REMARK    3  A    between atoms: C_2  and  C_37
REMARK    4  A    between atoms: C_7  and  O_13
REMARK    5  A    between atoms: C_10  and  C_16
REMARK    6  A    between atoms: C_16  and  O_17
REMARK    7  A    between atoms: C_19  and  N_26
REMARK    8  A    between atoms: C_27  and  C_29
REMARK    9  A    between atoms: C_29  and  N_30
REMARK                            x       y       z     vdW  Elec       q    Type
REMARK                         _______ _______ _______ _____ _____    ______ ____
ROOT
ATOM      1  N   UNL     1      18.922  31.172   9.112  0.00  0.00    +0.000 NA
ATOM      2  C   UNL     1      19.297  32.405   9.295  0.00  0.00    +0.000 C 
ENDROOT
BRANCH   2   4
ATOM      3  N   UNL     1      17.526  34.020  12.065  0.00  0.00    +0.000 N 
ATOM      4  C   UNL     1      18.832  33.059  10.525  0.00  0.00    +0.000 A 
ATOM      5  C   UNL     1      19.637  33.454  11.651  0.00  0.00    +0.000 A 
ATOM      6  C   UNL     1      18.794  34.045  12.590  0.00  0.00    +0.000 A 
ATOM      7  C   UNL     1      17.530  33.436  10.824  0.00  0.00    +0.000 A 
ATOM      8  C   UNL     1      21.010  33.355  11.959  0.00  0.00    +0.000 A 
ATOM      9  C   UNL     1      19.248  34.546  13.815  0.00  0.00    +0.000 A 
ATOM     10  C   UNL     1      20.618  34.436  14.089  0.00  0.00    +0.000 A 
ATOM     11  C   UNL     1      21.485  33.848  13.176  0.00  0.00    +0.000 A 
ATOM     12  H   UNL     1      16.713  34.389  12.536  0.00  0.00    +0.000 HD
BRANCH   7  13
ATOM     13  O   UNL     1      16.413  33.316  10.114  0.00  0.00    +0.000 OA
ATOM     14  H   UNL     1      16.458  33.856   9.306  0.00  0.00    +0.000 HD
ENDBRANCH   7  13
BRANCH  10  16
ATOM     15  O   UNL     1      20.495  35.222  16.325  0.00  0.00    +0.000 OA
ATOM     16  C   UNL     1      21.188  34.936  15.359  0.00  0.00    +0.000 C 
BRANCH  16  17
ATOM     17  O   UNL     1      22.543  35.005  15.231  0.00  0.00    +0.000 OA
ATOM     18  C   UNL     1      23.333  34.546  16.298  0.00  0.00    +0.000 C 
ENDBRANCH  16  17
ENDBRANCH  10  16
ENDBRANCH   2   4
BRANCH   1  22
ATOM     19  C   UNL     1      19.936  28.987   5.634  0.00  0.00    +0.000 A 
ATOM     20  C   UNL     1      20.327  28.561   6.905  0.00  0.00    +0.000 A 
ATOM     21  C   UNL     1      19.192  30.172   5.558  0.00  0.00    +0.000 A 
ATOM     22  C   UNL     1      19.286  30.475   7.954  0.00  0.00    +0.000 A 
ATOM     23  C   UNL     1      20.003  29.283   8.053  0.00  0.00    +0.000 A 
ATOM     24  C   UNL     1      18.861  30.903   6.698  0.00  0.00    +0.000 A 
BRANCH  19  26
ATOM     25  O   UNL     1      18.036  27.902   3.739  0.00  0.00    +0.000 OA
ATOM     26  N   UNL     1      20.277  28.246   4.440  0.00  0.00    +0.000 N 
ATOM     27  C   UNL     1      19.247  27.766   3.593  0.00  0.00    +0.000 C 
ATOM     28  C   UNL     1      21.712  28.047   4.217  0.00  0.00    +0.000 C 
BRANCH  27  29
ATOM     29  C   UNL     1      19.668  27.021   2.415  0.00  0.00    +0.000 C 
BRANCH  29  30
ATOM     30  N   UNL     1      20.075  26.249   1.243  0.00  0.00    +0.000 N 
ATOM     31  N   UNL     1      19.388  22.770   1.394  0.00  0.00    +0.000 N 
ATOM     32  C   UNL     1      20.872  25.095   1.743  0.00  0.00    +0.000 C 
ATOM     33  C   UNL     1      18.889  25.448   0.831  0.00  0.00    +0.000 C 
ATOM     34  C   UNL     1      20.571  23.570   1.813  0.00  0.00    +0.000 C 
ATOM     35  C   UNL     1      18.587  23.922   0.901  0.00  0.00    +0.000 C 
ATOM     36  C   UNL     1      18.745  22.298   2.613  0.00  0.00    +0.000 C 
ENDBRANCH  29  30
ENDBRANCH  27  29
ENDBRANCH  19  26
ENDBRANCH   1  22
BRANCH   2  37
ATOM     37  C   UNL     1      20.140  33.177   8.364  0.00  0.00    +0.000 A 
ATOM     38  C   UNL     1      19.586  34.248   7.665  0.00  0.00    +0.000 A 
ATOM     39  C   UNL     1      21.486  32.840   8.227  0.00  0.00    +0.000 A 
ATOM     40  C   UNL     1      20.395  34.988   6.809  0.00  0.00    +0.000 A 
ATOM     41  C   UNL     1      22.285  33.586   7.368  0.00  0.00    +0.000 A 
ATOM     42  C   UNL     1      21.742  34.658   6.660  0.00  0.00    +0.000 A 
ENDBRANCH   2  37
TORSDOF 9
ENDMDL
MODEL 9
REMARK VINA RESULT:      -6.0     16.060     21.179
REMARK  Name = 135423438_Nintedanib.pdbqt.pdb
REMARK  9 active torsions:
REMARK  status: ('A' for Active; 'I' for Inactive)
REMARK    1  A    between atoms: N_1  and  C_22
REMARK    2  A    between atoms: C_2  and  C_4
REMARK    3  A    between atoms: C_2  and  C_37
REMARK    4  A    between atoms: C_7  and  O_13
REMARK    5  A    between atoms: C_10  and  C_16
REMARK    6  A    between atoms: C_16  and  O_17
REMARK    7  A    between atoms: C_19  and  N_26
REMARK    8  A    between atoms: C_27  and  C_29
REMARK    9  A    between atoms: C_29  and  N_30
REMARK                            x       y       z     vdW  Elec       q    Type
REMARK                         _______ _______ _______ _____ _____    ______ ____
ROOT
ATOM      1  N   UNL     1      -0.402  29.846  15.580  0.00  0.00    +0.000 NA
ATOM      2  C   UNL     1      -0.021  29.253  14.486  0.00  0.00    +0.000 C 
ENDROOT
BRANCH   2   4
ATOM      3  N   UNL     1       2.852  31.035  13.076  0.00  0.00    +0.000 N 
ATOM      4  C   UNL     1       0.998  29.943  13.684  0.00  0.00    +0.000 A 
ATOM      5  C   UNL     1       0.943  30.224  12.273  0.00  0.00    +0.000 A 
ATOM      6  C   UNL     1       2.111  30.900  11.929  0.00  0.00    +0.000 A 
ATOM      7  C   UNL     1       2.198  30.470  14.141  0.00  0.00    +0.000 A 
ATOM      8  C   UNL     1       0.005  29.956  11.255  0.00  0.00    +0.000 A 
ATOM      9  C   UNL     1       2.390  31.327  10.626  0.00  0.00    +0.000 A 
ATOM     10  C   UNL     1       1.436  31.049   9.638  0.00  0.00    +0.000 A 
ATOM     11  C   UNL     1       0.262  30.372   9.948  0.00  0.00    +0.000 A 
ATOM     12  H   UNL     1       3.751  31.493  13.117  0.00  0.00    +0.000 HD
BRANCH   7  13
ATOM     13  O   UNL     1       2.719  30.495  15.364  0.00  0.00    +0.000 OA
ATOM     14  H   UNL     1       2.181  31.048  15.957  0.00  0.00    +0.000 HD
ENDBRANCH   7  13
BRANCH  10  16
ATOM     15  O   UNL     1       1.104  30.896   7.293  0.00  0.00    +0.000 OA
ATOM     16  C   UNL     1       1.645  31.461   8.233  0.00  0.00    +0.000 C 
BRANCH  16  17
ATOM     17  O   UNL     1       2.502  32.521   8.212  0.00  0.00    +0.000 OA
ATOM     18  C   UNL     1       2.810  33.099   6.970  0.00  0.00    +0.000 C 
ENDBRANCH  16  17
ENDBRANCH  10  16
ENDBRANCH   2   4
BRANCH   1  22
ATOM     19  C   UNL     1      -3.349  28.201  18.132  0.00  0.00    +0.000 A 
ATOM     20  C   UNL     1      -2.052  27.686  18.086  0.00  0.00    +0.000 A 
ATOM     21  C   UNL     1      -3.636  29.288  17.295  0.00  0.00    +0.000 A 
ATOM     22  C   UNL     1      -1.393  29.283  16.393  0.00  0.00    +0.000 A 
ATOM     23  C   UNL     1      -1.081  28.220  17.240  0.00  0.00    +0.000 A 
ATOM     24  C   UNL     1      -2.674  29.831  16.445  0.00  0.00    +0.000 A 
BRANCH  19  26
ATOM     25  O   UNL     1      -4.618  25.622  17.790  0.00  0.00    +0.000 OA
ATOM     26  N   UNL     1      -4.361  27.646  19.003  0.00  0.00    +0.000 N 
ATOM     27  C   UNL     1      -4.905  26.367  18.722  0.00  0.00    +0.000 C 
ATOM     28  C   UNL     1      -4.749  28.496  20.132  0.00  0.00    +0.000 C 
BRANCH  27  29
ATOM     29  C   UNL     1      -5.925  25.878  19.639  0.00  0.00    +0.000 C 
BRANCH  29  30
ATOM     30  N   UNL     1      -6.933  25.362  20.562  0.00  0.00    +0.000 N 
ATOM     31  N   UNL     1      -5.778  22.935  22.881  0.00  0.00    +0.000 N 
ATOM     32  C   UNL     1      -6.856  23.876  20.496  0.00  0.00    +0.000 C 
ATOM     33  C   UNL     1      -6.357  25.485  21.930  0.00  0.00    +0.000 C 
ATOM     34  C   UNL     1      -6.346  22.812  21.511  0.00  0.00    +0.000 C 
ATOM     35  C   UNL     1      -5.847  24.420  22.945  0.00  0.00    +0.000 C 
ATOM     36  C   UNL     1      -4.368  22.581  22.786  0.00  0.00    +0.000 C 
ENDBRANCH  29  30
ENDBRANCH  27  29
ENDBRANCH  19  26
ENDBRANCH   1  22
BRANCH   2  37
ATOM     37  C   UNL     1      -0.537  27.959  14.004  0.00  0.00    +0.000 A 
ATOM     38  C   UNL     1      -1.799  27.900  13.417  0.00  0.00    +0.000 A 
ATOM     39  C   UNL     1       0.265  26.824  14.114  0.00  0.00    +0.000 A 
ATOM     40  C   UNL     1      -2.267  26.679  12.940  0.00  0.00    +0.000 A 
ATOM     41  C   UNL     1      -0.213  25.609  13.635  0.00  0.00    +0.000 A 
ATOM     42  C   UNL     1      -1.476  25.537  13.049  0.00  0.00    +0.000 A 
ENDBRANCH   2  37
TORSDOF 9
ENDMDL
