MODEL 1
REMARK VINA RESULT:      -6.9      0.000      0.000
REMARK  Name = 14132199_RiccardinD.pdbqt.pdb
REMARK  3 active torsions:
REMARK  status: ('A' for Active; 'I' for Inactive)
REMARK    1  A    between atoms: C_11  and  O_30
REMARK    2  A    between atoms: C_16  and  O_32
REMARK    3  A    between atoms: C_28  and  O_34
REMARK                            x       y       z     vdW  Elec       q    Type
REMARK                         _______ _______ _______ _____ _____    ______ ____
ROOT
ATOM      1  O   UNL     1       4.736  15.700   1.686  0.00  0.00    +0.000 OA
ATOM      2  C   UNL     1       3.753  12.454   7.757  0.00  0.00    +0.000 C 
ATOM      3  C   UNL     1       3.054  12.103   8.960  0.00  0.00    +0.000 A 
ATOM      4  C   UNL     1       1.808  12.694   9.295  0.00  0.00    +0.000 A 
ATOM      5  C   UNL     1       4.356  12.918   6.421  0.00  0.00    +0.000 C 
ATOM      6  C   UNL     1       0.414  16.534   5.425  0.00  0.00    +0.000 C 
ATOM      7  C   UNL     1       1.245  13.792   8.477  0.00  0.00    +0.000 A 
ATOM      8  C   UNL     1       0.487  15.779   6.631  0.00  0.00    +0.000 A 
ATOM      9  C   UNL     1       0.789  17.084   4.046  0.00  0.00    +0.000 C 
ATOM     10  C   UNL     1       4.732  13.469   5.160  0.00  0.00    +0.000 A 
ATOM     11  C   UNL     1       0.065  13.676   7.728  0.00  0.00    +0.000 A 
ATOM     12  C   UNL     1       1.574  17.235   2.871  0.00  0.00    +0.000 A 
ATOM     13  C   UNL     1       1.968  14.988   8.361  0.00  0.00    +0.000 A 
ATOM     14  C   UNL     1      -0.305  14.647   6.795  0.00  0.00    +0.000 A 
ATOM     15  C   UNL     1       1.602  15.968   7.443  0.00  0.00    +0.000 A 
ATOM     16  C   UNL     1       1.157  12.201  10.440  0.00  0.00    +0.000 A 
ATOM     17  C   UNL     1       3.621  11.114   9.767  0.00  0.00    +0.000 A 
ATOM     18  C   UNL     1       1.737  11.227  11.253  0.00  0.00    +0.000 A 
ATOM     19  C   UNL     1       2.974  10.690  10.921  0.00  0.00    +0.000 A 
ATOM     20  C   UNL     1       2.717  16.444   2.817  0.00  0.00    +0.000 A 
ATOM     21  C   UNL     1       5.442  14.670   5.116  0.00  0.00    +0.000 A 
ATOM     22  C   UNL     1       4.204  12.922   3.990  0.00  0.00    +0.000 A 
ATOM     23  C   UNL     1       3.596  16.485   1.741  0.00  0.00    +0.000 A 
ATOM     24  C   UNL     1       1.283  18.098   1.825  0.00  0.00    +0.000 A 
ATOM     25  C   UNL     1       4.921  14.870   2.776  0.00  0.00    +0.000 A 
ATOM     26  C   UNL     1       5.549  15.371   3.918  0.00  0.00    +0.000 A 
ATOM     27  C   UNL     1       4.307  13.617   2.787  0.00  0.00    +0.000 A 
ATOM     28  C   UNL     1       3.303  17.351   0.693  0.00  0.00    +0.000 A 
ATOM     29  C   UNL     1       2.156  18.152   0.731  0.00  0.00    +0.000 A 
ENDROOT
BRANCH  11  30
ATOM     30  O   UNL     1      -0.735  12.578   7.901  0.00  0.00    +0.000 OA
ATOM     31  H   UNL     1      -0.263  11.799   7.548  0.00  0.00    +0.000 HD
ENDBRANCH  11  30
BRANCH  16  32
ATOM     32  O   UNL     1      -0.090  12.629  10.814  0.00  0.00    +0.000 OA
ATOM     33  H   UNL     1      -0.353  12.091  11.584  0.00  0.00    +0.000 HD
ENDBRANCH  16  32
BRANCH  28  34
ATOM     34  O   UNL     1       4.119  17.446  -0.399  0.00  0.00    +0.000 OA
ATOM     35  H   UNL     1       4.398  18.377  -0.472  0.00  0.00    +0.000 HD
ENDBRANCH  28  34
TORSDOF 3
ENDMDL
MODEL 2
REMARK VINA RESULT:      -6.7     15.776     18.592
REMARK  Name = 14132199_RiccardinD.pdbqt.pdb
REMARK  3 active torsions:
REMARK  status: ('A' for Active; 'I' for Inactive)
REMARK    1  A    between atoms: C_11  and  O_30
REMARK    2  A    between atoms: C_16  and  O_32
REMARK    3  A    between atoms: C_28  and  O_34
REMARK                            x       y       z     vdW  Elec       q    Type
REMARK                         _______ _______ _______ _____ _____    ______ ____
ROOT
ATOM      1  O   UNL     1      -0.132  10.234  22.295  0.00  0.00    +0.000 OA
ATOM      2  C   UNL     1      -3.475  16.093  20.606  0.00  0.00    +0.000 C 
ATOM      3  C   UNL     1      -3.750  17.501  20.631  0.00  0.00    +0.000 A 
ATOM      4  C   UNL     1      -3.018  18.388  21.463  0.00  0.00    +0.000 A 
ATOM      5  C   UNL     1      -3.037  14.621  20.678  0.00  0.00    +0.000 C 
ATOM      6  C   UNL     1       0.682  15.486  24.555  0.00  0.00    +0.000 C 
ATOM      7  C   UNL     1      -2.026  17.872  22.433  0.00  0.00    +0.000 A 
ATOM      8  C   UNL     1      -0.187  16.507  24.072  0.00  0.00    +0.000 A 
ATOM      9  C   UNL     1       1.322  14.107  24.734  0.00  0.00    +0.000 C 
ATOM     10  C   UNL     1      -2.475  13.326  20.883  0.00  0.00    +0.000 A 
ATOM     11  C   UNL     1      -0.648  18.117  22.341  0.00  0.00    +0.000 A 
ATOM     12  C   UNL     1       1.509  12.716  24.510  0.00  0.00    +0.000 A 
ATOM     13  C   UNL     1      -2.461  17.013  23.453  0.00  0.00    +0.000 A 
ATOM     14  C   UNL     1       0.271  17.428  23.135  0.00  0.00    +0.000 A 
ATOM     15  C   UNL     1      -1.556  16.329  24.259  0.00  0.00    +0.000 A 
ATOM     16  C   UNL     1      -3.294  19.761  21.330  0.00  0.00    +0.000 A 
ATOM     17  C   UNL     1      -4.734  17.978  19.762  0.00  0.00    +0.000 A 
ATOM     18  C   UNL     1      -4.292  20.230  20.475  0.00  0.00    +0.000 A 
ATOM     19  C   UNL     1      -5.019  19.336  19.698  0.00  0.00    +0.000 A 
ATOM     20  C   UNL     1       0.663  12.151  23.561  0.00  0.00    +0.000 A 
ATOM     21  C   UNL     1      -2.948  12.527  21.925  0.00  0.00    +0.000 A 
ATOM     22  C   UNL     1      -1.322  12.962  20.186  0.00  0.00    +0.000 A 
ATOM     23  C   UNL     1       0.712  10.800  23.238  0.00  0.00    +0.000 A 
ATOM     24  C   UNL     1       2.439  11.922  25.164  0.00  0.00    +0.000 A 
ATOM     25  C   UNL     1      -1.010  11.119  21.698  0.00  0.00    +0.000 A 
ATOM     26  C   UNL     1      -2.221  11.410  22.330  0.00  0.00    +0.000 A 
ATOM     27  C   UNL     1      -0.589  11.847  20.585  0.00  0.00    +0.000 A 
ATOM     28  C   UNL     1       1.645  10.005  23.894  0.00  0.00    +0.000 A 
ATOM     29  C   UNL     1       2.504  10.559  24.850  0.00  0.00    +0.000 A 
ENDROOT
BRANCH  11  30
ATOM     30  O   UNL     1      -0.189  19.041  21.440  0.00  0.00    +0.000 OA
ATOM     31  H   UNL     1       0.739  18.823  21.227  0.00  0.00    +0.000 HD
ENDBRANCH  11  30
BRANCH  16  32
ATOM     32  O   UNL     1      -2.591  20.718  22.013  0.00  0.00    +0.000 OA
ATOM     33  H   UNL     1      -2.929  21.583  21.712  0.00  0.00    +0.000 HD
ENDBRANCH  16  32
BRANCH  28  34
ATOM     34  O   UNL     1       1.752   8.669  23.629  0.00  0.00    +0.000 OA
ATOM     35  H   UNL     1       2.204   8.579  22.770  0.00  0.00    +0.000 HD
ENDBRANCH  28  34
TORSDOF 3
ENDMDL
MODEL 3
REMARK VINA RESULT:      -6.5     12.242     15.736
REMARK  Name = 14132199_RiccardinD.pdbqt.pdb
REMARK  3 active torsions:
REMARK  status: ('A' for Active; 'I' for Inactive)
REMARK    1  A    between atoms: C_11  and  O_30
REMARK    2  A    between atoms: C_16  and  O_32
REMARK    3  A    between atoms: C_28  and  O_34
REMARK                            x       y       z     vdW  Elec       q    Type
REMARK                         _______ _______ _______ _____ _____    ______ ____
ROOT
ATOM      1  O   UNL     1      14.428  20.711   1.010  0.00  0.00    +0.000 OA
ATOM      2  C   UNL     1      19.834  16.413   1.821  0.00  0.00    +0.000 C 
ATOM      3  C   UNL     1      20.493  15.173   2.117  0.00  0.00    +0.000 A 
ATOM      4  C   UNL     1      19.769  14.031   2.545  0.00  0.00    +0.000 A 
ATOM      5  C   UNL     1      18.977  17.653   1.518  0.00  0.00    +0.000 C 
ATOM      6  C   UNL     1      14.310  15.307   3.043  0.00  0.00    +0.000 C 
ATOM      7  C   UNL     1      18.318  14.114   2.826  0.00  0.00    +0.000 A 
ATOM      8  C   UNL     1      15.578  14.666   3.168  0.00  0.00    +0.000 A 
ATOM      9  C   UNL     1      13.266  16.384   2.740  0.00  0.00    +0.000 C 
ATOM     10  C   UNL     1      18.009  18.674   1.285  0.00  0.00    +0.000 A 
ATOM     11  C   UNL     1      17.341  13.444   2.074  0.00  0.00    +0.000 A 
ATOM     12  C   UNL     1      12.785  17.653   2.318  0.00  0.00    +0.000 A 
ATOM     13  C   UNL     1      17.872  14.977   3.836  0.00  0.00    +0.000 A 
ATOM     14  C   UNL     1      15.982  13.729   2.222  0.00  0.00    +0.000 A 
ATOM     15  C   UNL     1      16.520  15.261   4.003  0.00  0.00    +0.000 A 
ATOM     16  C   UNL     1      20.497  12.837   2.704  0.00  0.00    +0.000 A 
ATOM     17  C   UNL     1      21.874  15.116   1.917  0.00  0.00    +0.000 A 
ATOM     18  C   UNL     1      21.879  12.791   2.522  0.00  0.00    +0.000 A 
ATOM     19  C   UNL     1      22.569  13.934   2.137  0.00  0.00    +0.000 A 
ATOM     20  C   UNL     1      13.762  18.540   1.878  0.00  0.00    +0.000 A 
ATOM     21  C   UNL     1      17.601  19.492   2.339  0.00  0.00    +0.000 A 
ATOM     22  C   UNL     1      17.325  18.703   0.068  0.00  0.00    +0.000 A 
ATOM     23  C   UNL     1      13.455  19.825   1.446  0.00  0.00    +0.000 A 
ATOM     24  C   UNL     1      11.455  18.045   2.331  0.00  0.00    +0.000 A 
ATOM     25  C   UNL     1      15.717  20.211   1.028  0.00  0.00    +0.000 A 
ATOM     26  C   UNL     1      16.457  20.276   2.210  0.00  0.00    +0.000 A 
ATOM     27  C   UNL     1      16.179  19.483  -0.069  0.00  0.00    +0.000 A 
ATOM     28  C   UNL     1      12.121  20.216   1.459  0.00  0.00    +0.000 A 
ATOM     29  C   UNL     1      11.126  19.335   1.897  0.00  0.00    +0.000 A 
ENDROOT
BRANCH  11  30
ATOM     30  O   UNL     1      17.728  12.501   1.158  0.00  0.00    +0.000 OA
ATOM     31  H   UNL     1      18.158  11.769   1.640  0.00  0.00    +0.000 HD
ENDBRANCH  11  30
BRANCH  16  32
ATOM     32  O   UNL     1      19.894  11.650   3.026  0.00  0.00    +0.000 OA
ATOM     33  H   UNL     1      19.829  11.623   4.000  0.00  0.00    +0.000 HD
ENDBRANCH  16  32
BRANCH  28  34
ATOM     34  O   UNL     1      11.743  21.463   1.048  0.00  0.00    +0.000 OA
ATOM     35  H   UNL     1      11.620  22.007   1.848  0.00  0.00    +0.000 HD
ENDBRANCH  28  34
TORSDOF 3
ENDMDL
MODEL 4
REMARK VINA RESULT:      -6.5     28.642     30.612
REMARK  Name = 14132199_RiccardinD.pdbqt.pdb
REMARK  3 active torsions:
REMARK  status: ('A' for Active; 'I' for Inactive)
REMARK    1  A    between atoms: C_11  and  O_30
REMARK    2  A    between atoms: C_16  and  O_32
REMARK    3  A    between atoms: C_28  and  O_34
REMARK                            x       y       z     vdW  Elec       q    Type
REMARK                         _______ _______ _______ _____ _____    ______ ____
ROOT
ATOM      1  O   UNL     1      30.083   9.725  21.127  0.00  0.00    +0.000 OA
ATOM      2  C   UNL     1      25.761  14.034  24.461  0.00  0.00    +0.000 C 
ATOM      3  C   UNL     1      24.648  14.393  25.292  0.00  0.00    +0.000 A 
ATOM      4  C   UNL     1      23.771  13.413  25.825  0.00  0.00    +0.000 A 
ATOM      5  C   UNL     1      26.919  13.481  23.614  0.00  0.00    +0.000 C 
ATOM      6  C   UNL     1      25.263   8.311  23.977  0.00  0.00    +0.000 C 
ATOM      7  C   UNL     1      23.899  11.990  25.437  0.00  0.00    +0.000 A 
ATOM      8  C   UNL     1      24.523   9.402  24.519  0.00  0.00    +0.000 A 
ATOM      9  C   UNL     1      26.361   7.543  23.237  0.00  0.00    +0.000 C 
ATOM     10  C   UNL     1      27.913  12.769  22.880  0.00  0.00    +0.000 A 
ATOM     11  C   UNL     1      24.267  10.971  26.328  0.00  0.00    +0.000 A 
ATOM     12  C   UNL     1      27.552   7.375  22.480  0.00  0.00    +0.000 A 
ATOM     13  C   UNL     1      23.736  11.640  24.089  0.00  0.00    +0.000 A 
ATOM     14  C   UNL     1      24.600   9.692  25.877  0.00  0.00    +0.000 A 
ATOM     15  C   UNL     1      24.052  10.365  23.629  0.00  0.00    +0.000 A 
ATOM     16  C   UNL     1      22.778  13.863  26.714  0.00  0.00    +0.000 A 
ATOM     17  C   UNL     1      24.489  15.746  25.603  0.00  0.00    +0.000 A 
ATOM     18  C   UNL     1      22.611  15.216  27.006  0.00  0.00    +0.000 A 
ATOM     19  C   UNL     1      23.462  16.159  26.442  0.00  0.00    +0.000 A 
ATOM     20  C   UNL     1      28.231   8.550  22.177  0.00  0.00    +0.000 A 
ATOM     21  C   UNL     1      27.682  12.443  21.543  0.00  0.00    +0.000 A 
ATOM     22  C   UNL     1      29.004  12.222  23.558  0.00  0.00    +0.000 A 
ATOM     23  C   UNL     1      29.406   8.555  21.433  0.00  0.00    +0.000 A 
ATOM     24  C   UNL     1      28.048   6.158  22.037  0.00  0.00    +0.000 A 
ATOM     25  C   UNL     1      29.505  10.876  21.630  0.00  0.00    +0.000 A 
ATOM     26  C   UNL     1      28.487  11.500  20.907  0.00  0.00    +0.000 A 
ATOM     27  C   UNL     1      29.814  11.279  22.930  0.00  0.00    +0.000 A 
ATOM     28  C   UNL     1      29.902   7.334  20.989  0.00  0.00    +0.000 A 
ATOM     29  C   UNL     1      29.231   6.143  21.287  0.00  0.00    +0.000 A 
ENDROOT
BRANCH  11  30
ATOM     30  O   UNL     1      24.321  11.240  27.670  0.00  0.00    +0.000 OA
ATOM     31  H   UNL     1      23.445  11.570  27.949  0.00  0.00    +0.000 HD
ENDBRANCH  11  30
BRANCH  16  32
ATOM     32  O   UNL     1      21.931  13.001  27.361  0.00  0.00    +0.000 OA
ATOM     33  H   UNL     1      21.825  13.341  28.270  0.00  0.00    +0.000 HD
ENDBRANCH  16  32
BRANCH  28  34
ATOM     34  O   UNL     1      31.050   7.260  20.253  0.00  0.00    +0.000 OA
ATOM     35  H   UNL     1      31.765   7.646  20.792  0.00  0.00    +0.000 HD
ENDBRANCH  28  34
TORSDOF 3
ENDMDL
MODEL 5
REMARK VINA RESULT:      -6.4     16.009     19.125
REMARK  Name = 14132199_RiccardinD.pdbqt.pdb
REMARK  3 active torsions:
REMARK  status: ('A' for Active; 'I' for Inactive)
REMARK    1  A    between atoms: C_11  and  O_30
REMARK    2  A    between atoms: C_16  and  O_32
REMARK    3  A    between atoms: C_28  and  O_34
REMARK                            x       y       z     vdW  Elec       q    Type
REMARK                         _______ _______ _______ _____ _____    ______ ____
ROOT
ATOM      1  O   UNL     1       0.891   8.462  22.801  0.00  0.00    +0.000 OA
ATOM      2  C   UNL     1      -2.166  14.434  20.970  0.00  0.00    +0.000 C 
ATOM      3  C   UNL     1      -2.478  15.832  21.062  0.00  0.00    +0.000 A 
ATOM      4  C   UNL     1      -1.967  16.639  22.111  0.00  0.00    +0.000 A 
ATOM      5  C   UNL     1      -1.715  12.965  21.000  0.00  0.00    +0.000 C 
ATOM      6  C   UNL     1       1.055  13.480  25.655  0.00  0.00    +0.000 C 
ATOM      7  C   UNL     1      -1.195  16.040  23.223  0.00  0.00    +0.000 A 
ATOM      8  C   UNL     1       0.283  14.537  25.090  0.00  0.00    +0.000 A 
ATOM      9  C   UNL     1       1.679  12.095  25.842  0.00  0.00    +0.000 C 
ATOM     10  C   UNL     1      -1.175  11.660  21.203  0.00  0.00    +0.000 A 
ATOM     11  C   UNL     1       0.163  16.302  23.456  0.00  0.00    +0.000 A 
ATOM     12  C   UNL     1       1.947  10.733  25.537  0.00  0.00    +0.000 A 
ATOM     13  C   UNL     1      -1.816  15.085  24.040  0.00  0.00    +0.000 A 
ATOM     14  C   UNL     1       0.907  15.546  24.364  0.00  0.00    +0.000 A 
ATOM     15  C   UNL     1      -1.088  14.334  24.958  0.00  0.00    +0.000 A 
ATOM     16  C   UNL     1      -2.246  18.017  22.048  0.00  0.00    +0.000 A 
ATOM     17  C   UNL     1      -3.264  16.382  20.048  0.00  0.00    +0.000 A 
ATOM     18  C   UNL     1      -3.048  18.559  21.043  0.00  0.00    +0.000 A 
ATOM     19  C   UNL     1      -3.565  17.739  20.048  0.00  0.00    +0.000 A 
ATOM     20  C   UNL     1       1.342  10.255  24.380  0.00  0.00    +0.000 A 
ATOM     21  C   UNL     1      -1.840  10.762  22.039  0.00  0.00    +0.000 A 
ATOM     22  C   UNL     1       0.111  11.372  20.743  0.00  0.00    +0.000 A 
ATOM     23  C   UNL     1       1.496   8.942  23.953  0.00  0.00    +0.000 A 
ATOM     24  C   UNL     1       2.735   9.887  26.303  0.00  0.00    +0.000 A 
ATOM     25  C   UNL     1       0.139   9.395  22.111  0.00  0.00    +0.000 A 
ATOM     26  C   UNL     1      -1.187   9.616  22.488  0.00  0.00    +0.000 A 
ATOM     27  C   UNL     1       0.770  10.228  21.188  0.00  0.00    +0.000 A 
ATOM     28  C   UNL     1       2.286   8.094  24.720  0.00  0.00    +0.000 A 
ATOM     29  C   UNL     1       2.904   8.560  25.887  0.00  0.00    +0.000 A 
ENDROOT
BRANCH  11  30
ATOM     30  O   UNL     1       0.781  17.311  22.764  0.00  0.00    +0.000 OA
ATOM     31  H   UNL     1       1.242  17.882  23.408  0.00  0.00    +0.000 HD
ENDBRANCH  11  30
BRANCH  16  32
ATOM     32  O   UNL     1      -1.733  18.909  22.952  0.00  0.00    +0.000 OA
ATOM     33  H   UNL     1      -2.480  19.215  23.500  0.00  0.00    +0.000 HD
ENDBRANCH  16  32
BRANCH  28  34
ATOM     34  O   UNL     1       2.484   6.790  24.364  0.00  0.00    +0.000 OA
ATOM     35  H   UNL     1       2.326   6.246  25.156  0.00  0.00    +0.000 HD
ENDBRANCH  28  34
TORSDOF 3
ENDMDL
MODEL 6
REMARK VINA RESULT:      -6.2     29.309     30.932
REMARK  Name = 14132199_RiccardinD.pdbqt.pdb
REMARK  3 active torsions:
REMARK  status: ('A' for Active; 'I' for Inactive)
REMARK    1  A    between atoms: C_11  and  O_30
REMARK    2  A    between atoms: C_16  and  O_32
REMARK    3  A    between atoms: C_28  and  O_34
REMARK                            x       y       z     vdW  Elec       q    Type
REMARK                         _______ _______ _______ _____ _____    ______ ____
ROOT
ATOM      1  O   UNL     1      24.736  17.724  27.432  0.00  0.00    +0.000 OA
ATOM      2  C   UNL     1      26.851  12.334  23.580  0.00  0.00    +0.000 C 
ATOM      3  C   UNL     1      26.896  10.966  23.149  0.00  0.00    +0.000 A 
ATOM      4  C   UNL     1      26.143   9.956  23.801  0.00  0.00    +0.000 A 
ATOM      5  C   UNL     1      26.669  13.751  24.148  0.00  0.00    +0.000 C 
ATOM      6  C   UNL     1      23.380  12.160  28.180  0.00  0.00    +0.000 C 
ATOM      7  C   UNL     1      25.378  10.255  25.032  0.00  0.00    +0.000 A 
ATOM      8  C   UNL     1      24.005  11.246  27.283  0.00  0.00    +0.000 A 
ATOM      9  C   UNL     1      22.998  13.479  28.857  0.00  0.00    +0.000 C 
ATOM     10  C   UNL     1      26.353  14.974  24.811  0.00  0.00    +0.000 A 
ATOM     11  C   UNL     1      23.978  10.211  25.108  0.00  0.00    +0.000 A 
ATOM     12  C   UNL     1      23.011  14.883  29.079  0.00  0.00    +0.000 A 
ATOM     13  C   UNL     1      26.071  10.699  26.168  0.00  0.00    +0.000 A 
ATOM     14  C   UNL     1      23.290  10.721  26.212  0.00  0.00    +0.000 A 
ATOM     15  C   UNL     1      25.397  11.199  27.278  0.00  0.00    +0.000 A 
ATOM     16  C   UNL     1      26.176   8.670  23.232  0.00  0.00    +0.000 A 
ATOM     17  C   UNL     1      27.674  10.673  22.026  0.00  0.00    +0.000 A 
ATOM     18  C   UNL     1      26.968   8.377  22.122  0.00  0.00    +0.000 A 
ATOM     19  C   UNL     1      27.725   9.378  21.525  0.00  0.00    +0.000 A 
ATOM     20  C   UNL     1      23.809  15.613  28.205  0.00  0.00    +0.000 A 
ATOM     21  C   UNL     1      27.076  15.351  25.943  0.00  0.00    +0.000 A 
ATOM     22  C   UNL     1      25.195  15.667  24.454  0.00  0.00    +0.000 A 
ATOM     23  C   UNL     1      23.938  16.994  28.299  0.00  0.00    +0.000 A 
ATOM     24  C   UNL     1      22.311  15.536  30.082  0.00  0.00    +0.000 A 
ATOM     25  C   UNL     1      25.377  16.973  26.465  0.00  0.00    +0.000 A 
ATOM     26  C   UNL     1      26.595  16.363  26.771  0.00  0.00    +0.000 A 
ATOM     27  C   UNL     1      24.707  16.680  25.277  0.00  0.00    +0.000 A 
ATOM     28  C   UNL     1      23.236  17.648  29.306  0.00  0.00    +0.000 A 
ATOM     29  C   UNL     1      22.427  16.928  30.192  0.00  0.00    +0.000 A 
ENDROOT
BRANCH  11  30
ATOM     30  O   UNL     1      23.266   9.671  24.070  0.00  0.00    +0.000 OA
ATOM     31  H   UNL     1      23.257  10.319  23.339  0.00  0.00    +0.000 HD
ENDBRANCH  11  30
BRANCH  16  32
ATOM     32  O   UNL     1      25.420   7.635  23.718  0.00  0.00    +0.000 OA
ATOM     33  H   UNL     1      24.508   7.972  23.810  0.00  0.00    +0.000 HD
ENDBRANCH  16  32
BRANCH  28  34
ATOM     34  O   UNL     1      23.312  19.003  29.460  0.00  0.00    +0.000 OA
ATOM     35  H   UNL     1      22.799  19.234  30.256  0.00  0.00    +0.000 HD
ENDBRANCH  28  34
TORSDOF 3
ENDMDL
MODEL 7
REMARK VINA RESULT:      -6.2      9.582     12.790
REMARK  Name = 14132199_RiccardinD.pdbqt.pdb
REMARK  3 active torsions:
REMARK  status: ('A' for Active; 'I' for Inactive)
REMARK    1  A    between atoms: C_11  and  O_30
REMARK    2  A    between atoms: C_16  and  O_32
REMARK    3  A    between atoms: C_28  and  O_34
REMARK                            x       y       z     vdW  Elec       q    Type
REMARK                         _______ _______ _______ _____ _____    ______ ____
ROOT
ATOM      1  O   UNL     1      18.501  17.123   2.100  0.00  0.00    +0.000 OA
ATOM      2  C   UNL     1      12.436  13.734   2.406  0.00  0.00    +0.000 C 
ATOM      3  C   UNL     1      11.008  13.593   2.380  0.00  0.00    +0.000 A 
ATOM      4  C   UNL     1      10.152  14.717   2.248  0.00  0.00    +0.000 A 
ATOM      5  C   UNL     1      13.939  14.054   2.388  0.00  0.00    +0.000 C 
ATOM      6  C   UNL     1      13.210  19.439   2.106  0.00  0.00    +0.000 C 
ATOM      7  C   UNL     1      10.699  16.092   2.259  0.00  0.00    +0.000 A 
ATOM      8  C   UNL     1      12.133  18.516   2.243  0.00  0.00    +0.000 A 
ATOM      9  C   UNL     1      14.639  19.977   1.996  0.00  0.00    +0.000 C 
ATOM     10  C   UNL     1      15.272  14.560   2.337  0.00  0.00    +0.000 A 
ATOM     11  C   UNL     1      10.659  16.954   1.153  0.00  0.00    +0.000 A 
ATOM     12  C   UNL     1      16.058  19.910   1.950  0.00  0.00    +0.000 A 
ATOM     13  C   UNL     1      11.380  16.540   3.400  0.00  0.00    +0.000 A 
ATOM     14  C   UNL     1      11.385  18.147   1.129  0.00  0.00    +0.000 A 
ATOM     15  C   UNL     1      12.098  17.733   3.393  0.00  0.00    +0.000 A 
ATOM     16  C   UNL     1       8.775  14.458   2.125  0.00  0.00    +0.000 A 
ATOM     17  C   UNL     1      10.490  12.297   2.439  0.00  0.00    +0.000 A 
ATOM     18  C   UNL     1       8.261  13.164   2.204  0.00  0.00    +0.000 A 
ATOM     19  C   UNL     1       9.119  12.083   2.370  0.00  0.00    +0.000 A 
ATOM     20  C   UNL     1      16.594  18.630   2.032  0.00  0.00    +0.000 A 
ATOM     21  C   UNL     1      15.888  15.000   3.510  0.00  0.00    +0.000 A 
ATOM     22  C   UNL     1      15.862  14.811   1.098  0.00  0.00    +0.000 A 
ATOM     23  C   UNL     1      17.964  18.398   2.014  0.00  0.00    +0.000 A 
ATOM     24  C   UNL     1      16.903  21.005   1.843  0.00  0.00    +0.000 A 
ATOM     25  C   UNL     1      17.567  16.107   2.191  0.00  0.00    +0.000 A 
ATOM     26  C   UNL     1      17.048  15.768   3.442  0.00  0.00    +0.000 A 
ATOM     27  C   UNL     1      17.022  15.579   1.020  0.00  0.00    +0.000 A 
ATOM     28  C   UNL     1      18.810  19.496   1.907  0.00  0.00    +0.000 A 
ATOM     29  C   UNL     1      18.287  20.791   1.821  0.00  0.00    +0.000 A 
ENDROOT
BRANCH  11  30
ATOM     30  O   UNL     1       9.904  16.611   0.061  0.00  0.00    +0.000 OA
ATOM     31  H   UNL     1      10.386  15.923  -0.436  0.00  0.00    +0.000 HD
ENDBRANCH  11  30
BRANCH  16  32
ATOM     32  O   UNL     1       7.860  15.453   1.902  0.00  0.00    +0.000 OA
ATOM     33  H   UNL     1       7.239  15.438   2.655  0.00  0.00    +0.000 HD
ENDBRANCH  16  32
BRANCH  28  34
ATOM     34  O   UNL     1      20.168  19.348   1.883  0.00  0.00    +0.000 OA
ATOM     35  H   UNL     1      20.544  20.176   1.534  0.00  0.00    +0.000 HD
ENDBRANCH  28  34
TORSDOF 3
ENDMDL
MODEL 8
REMARK VINA RESULT:      -6.2     29.032     31.783
REMARK  Name = 14132199_RiccardinD.pdbqt.pdb
REMARK  3 active torsions:
REMARK  status: ('A' for Active; 'I' for Inactive)
REMARK    1  A    between atoms: C_11  and  O_30
REMARK    2  A    between atoms: C_16  and  O_32
REMARK    3  A    between atoms: C_28  and  O_34
REMARK                            x       y       z     vdW  Elec       q    Type
REMARK                         _______ _______ _______ _____ _____    ______ ____
ROOT
ATOM      1  O   UNL     1      23.697  15.132  32.462  0.00  0.00    +0.000 OA
ATOM      2  C   UNL     1      24.874   9.728  28.246  0.00  0.00    +0.000 C 
ATOM      3  C   UNL     1      24.930   9.026  26.996  0.00  0.00    +0.000 A 
ATOM      4  C   UNL     1      24.501   9.629  25.785  0.00  0.00    +0.000 A 
ATOM      5  C   UNL     1      24.774  10.624  29.491  0.00  0.00    +0.000 C 
ATOM      6  C   UNL     1      22.486  14.779  26.826  0.00  0.00    +0.000 C 
ATOM      7  C   UNL     1      23.860  10.963  25.788  0.00  0.00    +0.000 A 
ATOM      8  C   UNL     1      22.773  13.526  26.210  0.00  0.00    +0.000 A 
ATOM      9  C   UNL     1      22.365  15.858  27.906  0.00  0.00    +0.000 C 
ATOM     10  C   UNL     1      24.613  11.612  30.508  0.00  0.00    +0.000 A 
ATOM     11  C   UNL     1      24.433  12.102  25.202  0.00  0.00    +0.000 A 
ATOM     12  C   UNL     1      22.469  16.419  29.207  0.00  0.00    +0.000 A 
ATOM     13  C   UNL     1      22.659  11.135  26.489  0.00  0.00    +0.000 A 
ATOM     14  C   UNL     1      23.912  13.378  25.426  0.00  0.00    +0.000 A 
ATOM     15  C   UNL     1      22.122  12.400  26.709  0.00  0.00    +0.000 A 
ATOM     16  C   UNL     1      24.699   8.894  24.602  0.00  0.00    +0.000 A 
ATOM     17  C   UNL     1      25.473   7.739  27.006  0.00  0.00    +0.000 A 
ATOM     18  C   UNL     1      25.224   7.602  24.620  0.00  0.00    +0.000 A 
ATOM     19  C   UNL     1      25.603   7.021  25.824  0.00  0.00    +0.000 A 
ATOM     20  C   UNL     1      23.007  15.576  30.173  0.00  0.00    +0.000 A 
ATOM     21  C   UNL     1      23.385  11.736  31.160  0.00  0.00    +0.000 A 
ATOM     22  C   UNL     1      25.604  12.578  30.687  0.00  0.00    +0.000 A 
ATOM     23  C   UNL     1      23.163  15.971  31.497  0.00  0.00    +0.000 A 
ATOM     24  C   UNL     1      22.070  17.700  29.556  0.00  0.00    +0.000 A 
ATOM     25  C   UNL     1      24.070  13.883  32.001  0.00  0.00    +0.000 A 
ATOM     26  C   UNL     1      23.113  12.870  31.921  0.00  0.00    +0.000 A 
ATOM     27  C   UNL     1      25.340  13.716  31.446  0.00  0.00    +0.000 A 
ATOM     28  C   UNL     1      22.763  17.256  31.845  0.00  0.00    +0.000 A 
ATOM     29  C   UNL     1      22.221  18.117  30.885  0.00  0.00    +0.000 A 
ENDROOT
BRANCH  11  30
ATOM     30  O   UNL     1      25.540  11.964  24.407  0.00  0.00    +0.000 OA
ATOM     31  H   UNL     1      26.036  12.805  24.429  0.00  0.00    +0.000 HD
ENDBRANCH  11  30
BRANCH  16  32
ATOM     32  O   UNL     1      24.409   9.406  23.365  0.00  0.00    +0.000 OA
ATOM     33  H   UNL     1      25.254   9.712  22.983  0.00  0.00    +0.000 HD
ENDBRANCH  16  32
BRANCH  28  34
ATOM     34  O   UNL     1      22.885  17.716  33.126  0.00  0.00    +0.000 OA
ATOM     35  H   UNL     1      23.838  17.800  33.314  0.00  0.00    +0.000 HD
ENDBRANCH  28  34
TORSDOF 3
ENDMDL
MODEL 9
REMARK VINA RESULT:      -6.2     27.359     28.416
REMARK  Name = 14132199_RiccardinD.pdbqt.pdb
REMARK  3 active torsions:
REMARK  status: ('A' for Active; 'I' for Inactive)
REMARK    1  A    between atoms: C_11  and  O_30
REMARK    2  A    between atoms: C_16  and  O_32
REMARK    3  A    between atoms: C_28  and  O_34
REMARK                            x       y       z     vdW  Elec       q    Type
REMARK                         _______ _______ _______ _____ _____    ______ ____
ROOT
ATOM      1  O   UNL     1      18.786  38.136  16.902  0.00  0.00    +0.000 OA
ATOM      2  C   UNL     1      16.445  34.866  22.575  0.00  0.00    +0.000 C 
ATOM      3  C   UNL     1      15.585  34.002  23.331  0.00  0.00    +0.000 A 
ATOM      4  C   UNL     1      14.468  33.359  22.737  0.00  0.00    +0.000 A 
ATOM      5  C   UNL     1      17.281  35.736  21.622  0.00  0.00    +0.000 C 
ATOM      6  C   UNL     1      13.996  34.944  17.357  0.00  0.00    +0.000 C 
ATOM      7  C   UNL     1      14.075  33.659  21.342  0.00  0.00    +0.000 A 
ATOM      8  C   UNL     1      13.713  34.437  18.659  0.00  0.00    +0.000 A 
ATOM      9  C   UNL     1      14.709  35.690  16.227  0.00  0.00    +0.000 C 
ATOM     10  C   UNL     1      17.917  36.474  20.580  0.00  0.00    +0.000 A 
ATOM     11  C   UNL     1      14.139  32.724  20.298  0.00  0.00    +0.000 A 
ATOM     12  C   UNL     1      15.713  36.497  15.627  0.00  0.00    +0.000 A 
ATOM     13  C   UNL     1      13.704  34.970  21.010  0.00  0.00    +0.000 A 
ATOM     14  C   UNL     1      13.983  33.106  18.964  0.00  0.00    +0.000 A 
ATOM     15  C   UNL     1      13.534  35.361  19.685  0.00  0.00    +0.000 A 
ATOM     16  C   UNL     1      13.755  32.450  23.539  0.00  0.00    +0.000 A 
ATOM     17  C   UNL     1      15.919  33.774  24.668  0.00  0.00    +0.000 A 
ATOM     18  C   UNL     1      14.081  32.240  24.879  0.00  0.00    +0.000 A 
ATOM     19  C   UNL     1      15.158  32.910  25.446  0.00  0.00    +0.000 A 
ATOM     20  C   UNL     1      16.728  36.913  16.482  0.00  0.00    +0.000 A 
ATOM     21  C   UNL     1      17.491  37.772  20.295  0.00  0.00    +0.000 A 
ATOM     22  C   UNL     1      18.803  35.821  19.722  0.00  0.00    +0.000 A 
ATOM     23  C   UNL     1      17.776  37.717  16.051  0.00  0.00    +0.000 A 
ATOM     24  C   UNL     1      15.732  36.885  14.295  0.00  0.00    +0.000 A 
ATOM     25  C   UNL     1      18.674  37.680  18.202  0.00  0.00    +0.000 A 
ATOM     26  C   UNL     1      17.878  38.387  19.106  0.00  0.00    +0.000 A 
ATOM     27  C   UNL     1      19.195  36.428  18.531  0.00  0.00    +0.000 A 
ATOM     28  C   UNL     1      17.793  38.106  14.716  0.00  0.00    +0.000 A 
ATOM     29  C   UNL     1      16.781  37.694  13.842  0.00  0.00    +0.000 A 
ENDROOT
BRANCH  11  30
ATOM     30  O   UNL     1      14.379  31.407  20.590  0.00  0.00    +0.000 OA
ATOM     31  H   UNL     1      13.521  30.972  20.757  0.00  0.00    +0.000 HD
ENDBRANCH  11  30
BRANCH  16  32
ATOM     32  O   UNL     1      12.716  31.703  23.050  0.00  0.00    +0.000 OA
ATOM     33  H   UNL     1      12.861  31.612  22.090  0.00  0.00    +0.000 HD
ENDBRANCH  16  32
BRANCH  28  34
ATOM     34  O   UNL     1      18.791  38.896  14.219  0.00  0.00    +0.000 OA
ATOM     35  H   UNL     1      19.612  38.372  14.237  0.00  0.00    +0.000 HD
ENDBRANCH  28  34
TORSDOF 3
ENDMDL
