MODEL 1
REMARK VINA RESULT:      -3.7      0.000      0.000
REMARK  Name = 146026348_FluorouracilMononitrate.pdbqt.pdb
REMARK  2 active torsions:
REMARK  status: ('A' for Active; 'I' for Inactive)
REMARK    1  A    between atoms: N_4  and  O_10
REMARK    2  A    between atoms: O_10  and  N_13
REMARK                            x       y       z     vdW  Elec       q    Type
REMARK                         _______ _______ _______ _____ _____    ______ ____
ROOT
ATOM      1  F   UNL     1       7.904  29.004  31.340  0.00  0.00    +0.000 F 
ATOM      2  O   UNL     1       8.158  26.473  30.185  0.00  0.00    +0.000 OA
ATOM      3  O   UNL     1      11.329  28.340  27.298  0.00  0.00    +0.000 OA
ATOM      4  N   UNL     1       9.629  27.398  28.617  0.00  0.00    +0.000 N 
ATOM      5  N   UNL     1       8.631  28.779  30.235  0.00  0.00    +0.000 N 
ATOM      6  C   UNL     1       8.735  27.453  29.723  0.00  0.00    +0.000 A 
ATOM      7  C   UNL     1      10.450  28.421  28.140  0.00  0.00    +0.000 A 
ATOM      8  C   UNL     1      10.165  29.658  28.830  0.00  0.00    +0.000 A 
ATOM      9  C   UNL     1       9.381  29.773  29.722  0.00  0.00    +0.000 A 
ENDROOT
BRANCH   4  10
ATOM     10  O   UNL     1       9.873  26.113  28.096  0.00  0.00    +0.000 OA
BRANCH  10  13
ATOM     11  O   UNL     1       8.933  26.404  26.074  0.00  0.00    +0.000 OA
ATOM     12  O   UNL     1       8.322  24.699  27.385  0.00  0.00    +0.000 OA
ATOM     13  N   UNL     1       8.959  25.708  27.092  0.00  0.00    +0.000 N 
ENDBRANCH  10  13
ENDBRANCH   4  10
TORSDOF 2
ENDMDL
MODEL 2
REMARK VINA RESULT:      -3.4      9.357     10.110
REMARK  Name = 146026348_FluorouracilMononitrate.pdbqt.pdb
REMARK  2 active torsions:
REMARK  status: ('A' for Active; 'I' for Inactive)
REMARK    1  A    between atoms: N_4  and  O_10
REMARK    2  A    between atoms: O_10  and  N_13
REMARK                            x       y       z     vdW  Elec       q    Type
REMARK                         _______ _______ _______ _____ _____    ______ ____
ROOT
ATOM      1  F   UNL     1      13.139  18.374  33.679  0.00  0.00    +0.000 F 
ATOM      2  O   UNL     1      11.132  17.293  32.062  0.00  0.00    +0.000 OA
ATOM      3  O   UNL     1      13.012  19.674  28.502  0.00  0.00    +0.000 OA
ATOM      4  N   UNL     1      11.940  18.590  30.289  0.00  0.00    +0.000 N 
ATOM      5  N   UNL     1      12.947  18.755  32.407  0.00  0.00    +0.000 N 
ATOM      6  C   UNL     1      11.920  18.134  31.637  0.00  0.00    +0.000 A 
ATOM      7  C   UNL     1      12.899  19.407  29.687  0.00  0.00    +0.000 A 
ATOM      8  C   UNL     1      13.836  19.894  30.672  0.00  0.00    +0.000 A 
ATOM      9  C   UNL     1      13.826  19.593  31.826  0.00  0.00    +0.000 A 
ENDROOT
BRANCH   4  10
ATOM     10  O   UNL     1      11.023  17.968  29.423  0.00  0.00    +0.000 OA
BRANCH  10  13
ATOM     11  O   UNL     1      12.502  16.437  28.697  0.00  0.00    +0.000 OA
ATOM     12  O   UNL     1      10.421  15.841  29.260  0.00  0.00    +0.000 OA
ATOM     13  N   UNL     1      11.349  16.629  29.092  0.00  0.00    +0.000 N 
ENDBRANCH  10  13
ENDBRANCH   4  10
TORSDOF 2
ENDMDL
MODEL 3
REMARK VINA RESULT:      -3.4     29.407     30.715
REMARK  Name = 146026348_FluorouracilMononitrate.pdbqt.pdb
REMARK  2 active torsions:
REMARK  status: ('A' for Active; 'I' for Inactive)
REMARK    1  A    between atoms: N_4  and  O_10
REMARK    2  A    between atoms: O_10  and  N_13
REMARK                            x       y       z     vdW  Elec       q    Type
REMARK                         _______ _______ _______ _____ _____    ______ ____
ROOT
ATOM      1  F   UNL     1       6.402   9.060   3.720  0.00  0.00    +0.000 F 
ATOM      2  O   UNL     1       8.234  11.150   4.013  0.00  0.00    +0.000 OA
ATOM      3  O   UNL     1      11.623   7.973   3.467  0.00  0.00    +0.000 OA
ATOM      4  N   UNL     1       9.962   9.575   3.906  0.00  0.00    +0.000 N 
ATOM      5  N   UNL     1       7.725   8.859   3.811  0.00  0.00    +0.000 N 
ATOM      6  C   UNL     1       8.598   9.980   3.930  0.00  0.00    +0.000 A 
ATOM      7  C   UNL     1      10.461   8.298   3.645  0.00  0.00    +0.000 A 
ATOM      8  C   UNL     1       9.380   7.344   3.549  0.00  0.00    +0.000 A 
ATOM      9  C   UNL     1       8.221   7.621   3.625  0.00  0.00    +0.000 A 
ENDROOT
BRANCH   4  10
ATOM     10  O   UNL     1      10.906  10.618   3.924  0.00  0.00    +0.000 OA
BRANCH  10  13
ATOM     11  O   UNL     1      12.829  10.841   5.068  0.00  0.00    +0.000 OA
ATOM     12  O   UNL     1      10.865  10.773   6.135  0.00  0.00    +0.000 OA
ATOM     13  N   UNL     1      11.602  10.753   5.151  0.00  0.00    +0.000 N 
ENDBRANCH  10  13
ENDBRANCH   4  10
TORSDOF 2
ENDMDL
MODEL 4
REMARK VINA RESULT:      -3.4     26.427     27.058
REMARK  Name = 146026348_FluorouracilMononitrate.pdbqt.pdb
REMARK  2 active torsions:
REMARK  status: ('A' for Active; 'I' for Inactive)
REMARK    1  A    between atoms: N_4  and  O_10
REMARK    2  A    between atoms: O_10  and  N_13
REMARK                            x       y       z     vdW  Elec       q    Type
REMARK                         _______ _______ _______ _____ _____    ______ ____
ROOT
ATOM      1  F   UNL     1      29.903  12.691  18.434  0.00  0.00    +0.000 F 
ATOM      2  O   UNL     1      29.521  15.390  17.819  0.00  0.00    +0.000 OA
ATOM      3  O   UNL     1      27.355  13.978  13.922  0.00  0.00    +0.000 OA
ATOM      4  N   UNL     1      28.574  14.734  15.782  0.00  0.00    +0.000 N 
ATOM      5  N   UNL     1      29.402  13.105  17.260  0.00  0.00    +0.000 N 
ATOM      6  C   UNL     1      29.210  14.499  17.033  0.00  0.00    +0.000 A 
ATOM      7  C   UNL     1      28.037  13.782  14.914  0.00  0.00    +0.000 A 
ATOM      8  C   UNL     1      28.351  12.448  15.372  0.00  0.00    +0.000 A 
ATOM      9  C   UNL     1      28.936  12.197  16.381  0.00  0.00    +0.000 A 
ENDROOT
BRANCH   4  10
ATOM     10  O   UNL     1      28.255  16.076  15.504  0.00  0.00    +0.000 OA
BRANCH  10  13
ATOM     11  O   UNL     1      30.239  16.402  14.495  0.00  0.00    +0.000 OA
ATOM     12  O   UNL     1      28.375  17.337  13.686  0.00  0.00    +0.000 OA
ATOM     13  N   UNL     1      29.032  16.658  14.472  0.00  0.00    +0.000 N 
ENDBRANCH  10  13
ENDBRANCH   4  10
TORSDOF 2
ENDMDL
MODEL 5
REMARK VINA RESULT:      -3.4     34.317     35.607
REMARK  Name = 146026348_FluorouracilMononitrate.pdbqt.pdb
REMARK  2 active torsions:
REMARK  status: ('A' for Active; 'I' for Inactive)
REMARK    1  A    between atoms: N_4  and  O_10
REMARK    2  A    between atoms: O_10  and  N_13
REMARK                            x       y       z     vdW  Elec       q    Type
REMARK                         _______ _______ _______ _____ _____    ______ ____
ROOT
ATOM      1  F   UNL     1      12.046  -3.133   5.957  0.00  0.00    +0.000 F 
ATOM      2  O   UNL     1      10.025  -3.649   7.817  0.00  0.00    +0.000 OA
ATOM      3  O   UNL     1      10.343   0.840   9.092  0.00  0.00    +0.000 OA
ATOM      4  N   UNL     1      10.261  -1.455   8.598  0.00  0.00    +0.000 N 
ATOM      5  N   UNL     1      11.658  -2.236   6.876  0.00  0.00    +0.000 N 
ATOM      6  C   UNL     1      10.599  -2.564   7.773  0.00  0.00    +0.000 A 
ATOM      7  C   UNL     1      10.740  -0.148   8.496  0.00  0.00    +0.000 A 
ATOM      8  C   UNL     1      11.792  -0.072   7.509  0.00  0.00    +0.000 A 
ATOM      9  C   UNL     1      12.158  -0.986   6.835  0.00  0.00    +0.000 A 
ENDROOT
BRANCH   4  10
ATOM     10  O   UNL     1       9.162  -1.648   9.455  0.00  0.00    +0.000 OA
BRANCH  10  13
ATOM     11  O   UNL     1       9.167  -0.928  11.585  0.00  0.00    +0.000 OA
ATOM     12  O   UNL     1      10.105  -2.882  11.036  0.00  0.00    +0.000 OA
ATOM     13  N   UNL     1       9.510  -1.830  10.816  0.00  0.00    +0.000 N 
ENDBRANCH  10  13
ENDBRANCH   4  10
TORSDOF 2
ENDMDL
MODEL 6
REMARK VINA RESULT:      -3.3     21.354     22.235
REMARK  Name = 146026348_FluorouracilMononitrate.pdbqt.pdb
REMARK  2 active torsions:
REMARK  status: ('A' for Active; 'I' for Inactive)
REMARK    1  A    between atoms: N_4  and  O_10
REMARK    2  A    between atoms: O_10  and  N_13
REMARK                            x       y       z     vdW  Elec       q    Type
REMARK                         _______ _______ _______ _____ _____    ______ ____
ROOT
ATOM      1  F   UNL     1      27.554  12.786  25.901  0.00  0.00    +0.000 F 
ATOM      2  O   UNL     1      24.984  13.732  26.457  0.00  0.00    +0.000 OA
ATOM      3  O   UNL     1      23.405  10.696  23.268  0.00  0.00    +0.000 OA
ATOM      4  N   UNL     1      24.167  12.345  24.758  0.00  0.00    +0.000 N 
ATOM      5  N   UNL     1      26.476  12.421  25.191  0.00  0.00    +0.000 N 
ATOM      6  C   UNL     1      25.193  12.925  25.556  0.00  0.00    +0.000 A 
ATOM      7  C   UNL     1      24.297  11.304  23.838  0.00  0.00    +0.000 A 
ATOM      8  C   UNL     1      25.689  10.963  23.656  0.00  0.00    +0.000 A 
ATOM      9  C   UNL     1      26.594  11.462  24.253  0.00  0.00    +0.000 A 
ENDROOT
BRANCH   4  10
ATOM     10  O   UNL     1      22.852  12.708  25.103  0.00  0.00    +0.000 OA
BRANCH  10  13
ATOM     11  O   UNL     1      22.450  10.899  26.377  0.00  0.00    +0.000 OA
ATOM     12  O   UNL     1      21.983  12.954  27.126  0.00  0.00    +0.000 OA
ATOM     13  N   UNL     1      22.384  12.129  26.308  0.00  0.00    +0.000 N 
ENDBRANCH  10  13
ENDBRANCH   4  10
TORSDOF 2
ENDMDL
MODEL 7
REMARK VINA RESULT:      -3.3     15.713     16.671
REMARK  Name = 146026348_FluorouracilMononitrate.pdbqt.pdb
REMARK  2 active torsions:
REMARK  status: ('A' for Active; 'I' for Inactive)
REMARK    1  A    between atoms: N_4  and  O_10
REMARK    2  A    between atoms: O_10  and  N_13
REMARK                            x       y       z     vdW  Elec       q    Type
REMARK                         _______ _______ _______ _____ _____    ______ ____
ROOT
ATOM      1  F   UNL     1       5.397  36.380  14.208  0.00  0.00    +0.000 F 
ATOM      2  O   UNL     1       6.976  35.427  12.109  0.00  0.00    +0.000 OA
ATOM      3  O   UNL     1       9.088  32.660  15.233  0.00  0.00    +0.000 OA
ATOM      4  N   UNL     1       8.168  34.145  13.662  0.00  0.00    +0.000 N 
ATOM      5  N   UNL     1       6.437  35.554  14.398  0.00  0.00    +0.000 N 
ATOM      6  C   UNL     1       7.177  35.088  13.272  0.00  0.00    +0.000 A 
ATOM      7  C   UNL     1       8.348  33.581  14.926  0.00  0.00    +0.000 A 
ATOM      8  C   UNL     1       7.472  34.208  15.888  0.00  0.00    +0.000 A 
ATOM      9  C   UNL     1       6.667  35.049  15.625  0.00  0.00    +0.000 A 
ENDROOT
BRANCH   4  10
ATOM     10  O   UNL     1       8.892  33.554  12.610  0.00  0.00    +0.000 OA
BRANCH  10  13
ATOM     11  O   UNL     1      10.408  35.193  12.335  0.00  0.00    +0.000 OA
ATOM     12  O   UNL     1      11.055  33.074  12.640  0.00  0.00    +0.000 OA
ATOM     13  N   UNL     1      10.239  33.984  12.516  0.00  0.00    +0.000 N 
ENDBRANCH  10  13
ENDBRANCH   4  10
TORSDOF 2
ENDMDL
MODEL 8
REMARK VINA RESULT:      -3.3     26.547     27.657
REMARK  Name = 146026348_FluorouracilMononitrate.pdbqt.pdb
REMARK  2 active torsions:
REMARK  status: ('A' for Active; 'I' for Inactive)
REMARK    1  A    between atoms: N_4  and  O_10
REMARK    2  A    between atoms: O_10  and  N_13
REMARK                            x       y       z     vdW  Elec       q    Type
REMARK                         _______ _______ _______ _____ _____    ______ ____
ROOT
ATOM      1  F   UNL     1      28.037  22.735   5.690  0.00  0.00    +0.000 F 
ATOM      2  O   UNL     1      28.455  21.777   8.281  0.00  0.00    +0.000 OA
ATOM      3  O   UNL     1      26.133  25.534   9.819  0.00  0.00    +0.000 OA
ATOM      4  N   UNL     1      27.442  23.720   9.103  0.00  0.00    +0.000 N 
ATOM      5  N   UNL     1      27.719  23.441   6.786  0.00  0.00    +0.000 N 
ATOM      6  C   UNL     1      27.937  22.871   8.074  0.00  0.00    +0.000 A 
ATOM      7  C   UNL     1      26.693  24.888   8.949  0.00  0.00    +0.000 A 
ATOM      8  C   UNL     1      26.600  25.247   7.553  0.00  0.00    +0.000 A 
ATOM      9  C   UNL     1      27.051  24.603   6.655  0.00  0.00    +0.000 A 
ENDROOT
BRANCH   4  10
ATOM     10  O   UNL     1      27.525  23.205  10.409  0.00  0.00    +0.000 OA
BRANCH  10  13
ATOM     11  O   UNL     1      29.185  24.579  11.054  0.00  0.00    +0.000 OA
ATOM     12  O   UNL     1      29.276  22.388  11.496  0.00  0.00    +0.000 OA
ATOM     13  N   UNL     1      28.777  23.414  11.040  0.00  0.00    +0.000 N 
ENDBRANCH  10  13
ENDBRANCH   4  10
TORSDOF 2
ENDMDL
MODEL 9
REMARK VINA RESULT:      -3.2     16.579     17.311
REMARK  Name = 146026348_FluorouracilMononitrate.pdbqt.pdb
REMARK  2 active torsions:
REMARK  status: ('A' for Active; 'I' for Inactive)
REMARK    1  A    between atoms: N_4  and  O_10
REMARK    2  A    between atoms: O_10  and  N_13
REMARK                            x       y       z     vdW  Elec       q    Type
REMARK                         _______ _______ _______ _____ _____    ______ ____
ROOT
ATOM      1  F   UNL     1      27.666  26.895  26.187  0.00  0.00    +0.000 F 
ATOM      2  O   UNL     1      27.023  24.185  25.957  0.00  0.00    +0.000 OA
ATOM      3  O   UNL     1      24.836  25.259  21.965  0.00  0.00    +0.000 OA
ATOM      4  N   UNL     1      25.782  24.700  24.041  0.00  0.00    +0.000 N 
ATOM      5  N   UNL     1      26.843  26.421  25.239  0.00  0.00    +0.000 N 
ATOM      6  C   UNL     1      26.587  25.020  25.169  0.00  0.00    +0.000 A 
ATOM      7  C   UNL     1      25.390  25.556  23.010  0.00  0.00    +0.000 A 
ATOM      8  C   UNL     1      25.781  26.915  23.308  0.00  0.00    +0.000 A 
ATOM      9  C   UNL     1      26.402  27.247  24.271  0.00  0.00    +0.000 A 
ENDROOT
BRANCH   4  10
ATOM     10  O   UNL     1      25.549  23.329  23.830  0.00  0.00    +0.000 OA
BRANCH  10  13
ATOM     11  O   UNL     1      23.782  23.314  25.220  0.00  0.00    +0.000 OA
ATOM     12  O   UNL     1      23.730  22.183  23.291  0.00  0.00    +0.000 OA
ATOM     13  N   UNL     1      24.236  22.904  24.149  0.00  0.00    +0.000 N 
ENDBRANCH  10  13
ENDBRANCH   4  10
TORSDOF 2
ENDMDL
