MODEL 1
REMARK VINA RESULT:      -6.7      0.000      0.000
REMARK  Name = 179268_Nortopsentin.pdbqt.pdb
REMARK  2 active torsions:
REMARK  status: ('A' for Active; 'I' for Inactive)
REMARK    1  A    between atoms: C_3  and  C_9
REMARK    2  A    between atoms: C_4  and  C_20
REMARK                            x       y       z     vdW  Elec       q    Type
REMARK                         _______ _______ _______ _____ _____    ______ ____
ROOT
ATOM      1  N   UNL     1      -0.643  28.942  15.429  0.00  0.00    +0.000 N 
ATOM      2  N   UNL     1      -0.684  26.734  15.569  0.00  0.00    +0.000 NA
ATOM      3  C   UNL     1       0.119  28.489  14.388  0.00  0.00    +0.000 A 
ATOM      4  C   UNL     1      -1.110  27.852  16.120  0.00  0.00    +0.000 A 
ATOM      5  C   UNL     1       0.080  27.117  14.493  0.00  0.00    +0.000 A 
ATOM      6  H   UNL     1      -0.835  29.904  15.662  0.00  0.00    +0.000 HD
ENDROOT
BRANCH   3   9
ATOM      7 BR   UNL     1       5.001  33.690  13.061  0.00  0.00    +0.000 Br
ATOM      8  N   UNL     1       1.424  30.084  11.389  0.00  0.00    +0.000 N 
ATOM      9  C   UNL     1       0.824  29.303  13.378  0.00  0.00    +0.000 A 
ATOM     10  C   UNL     1       1.807  30.314  13.578  0.00  0.00    +0.000 A 
ATOM     11  C   UNL     1       2.164  30.786  12.311  0.00  0.00    +0.000 A 
ATOM     12  C   UNL     1       0.612  29.187  12.024  0.00  0.00    +0.000 A 
ATOM     13  C   UNL     1       2.433  30.881  14.705  0.00  0.00    +0.000 A 
ATOM     14  C   UNL     1       3.115  31.795  12.114  0.00  0.00    +0.000 A 
ATOM     15  C   UNL     1       3.383  31.887  14.532  0.00  0.00    +0.000 A 
ATOM     16  C   UNL     1       3.711  32.329  13.256  0.00  0.00    +0.000 A 
ATOM     17  H   UNL     1       1.471  30.211  10.387  0.00  0.00    +0.000 HD
ENDBRANCH   3   9
BRANCH   4  20
ATOM     18 BR   UNL     1      -6.480  31.361  19.489  0.00  0.00    +0.000 Br
ATOM     19  N   UNL     1      -2.855  27.434  19.299  0.00  0.00    +0.000 N 
ATOM     20  C   UNL     1      -1.978  27.928  17.322  0.00  0.00    +0.000 A 
ATOM     21  C   UNL     1      -3.004  28.874  17.598  0.00  0.00    +0.000 A 
ATOM     22  C   UNL     1      -3.537  28.540  18.845  0.00  0.00    +0.000 A 
ATOM     23  C   UNL     1      -1.909  27.057  18.385  0.00  0.00    +0.000 A 
ATOM     24  C   UNL     1      -3.536  29.983  16.911  0.00  0.00    +0.000 A 
ATOM     25  C   UNL     1      -4.576  29.258  19.445  0.00  0.00    +0.000 A 
ATOM     26  C   UNL     1      -4.574  30.715  17.493  0.00  0.00    +0.000 A 
ATOM     27  C   UNL     1      -5.077  30.350  18.735  0.00  0.00    +0.000 A 
ATOM     28  H   UNL     1      -3.029  26.971  20.181  0.00  0.00    +0.000 HD
ENDBRANCH   4  20
TORSDOF 2
ENDMDL
MODEL 2
REMARK VINA RESULT:      -6.7      0.458      8.090
REMARK  Name = 179268_Nortopsentin.pdbqt.pdb
REMARK  2 active torsions:
REMARK  status: ('A' for Active; 'I' for Inactive)
REMARK    1  A    between atoms: C_3  and  C_9
REMARK    2  A    between atoms: C_4  and  C_20
REMARK                            x       y       z     vdW  Elec       q    Type
REMARK                         _______ _______ _______ _____ _____    ______ ____
ROOT
ATOM      1  N   UNL     1      -0.517  29.101  15.260  0.00  0.00    +0.000 N 
ATOM      2  N   UNL     1       0.288  27.309  14.243  0.00  0.00    +0.000 NA
ATOM      3  C   UNL     1      -1.001  28.029  15.958  0.00  0.00    +0.000 A 
ATOM      4  C   UNL     1       0.257  28.625  14.232  0.00  0.00    +0.000 A 
ATOM      5  C   UNL     1      -0.490  26.927  15.309  0.00  0.00    +0.000 A 
ATOM      6  H   UNL     1      -0.690  30.075  15.456  0.00  0.00    +0.000 HD
ENDROOT
BRANCH   3   9
ATOM      7 BR   UNL     1      -6.440  31.328  19.447  0.00  0.00    +0.000 Br
ATOM      8  N   UNL     1      -2.755  27.469  19.096  0.00  0.00    +0.000 N 
ATOM      9  C   UNL     1      -1.879  28.059  17.144  0.00  0.00    +0.000 A 
ATOM     10  C   UNL     1      -2.922  28.978  17.457  0.00  0.00    +0.000 A 
ATOM     11  C   UNL     1      -3.453  28.583  18.688  0.00  0.00    +0.000 A 
ATOM     12  C   UNL     1      -1.804  27.147  18.170  0.00  0.00    +0.000 A 
ATOM     13  C   UNL     1      -3.472  30.109  16.821  0.00  0.00    +0.000 A 
ATOM     14  C   UNL     1      -4.505  29.259  19.317  0.00  0.00    +0.000 A 
ATOM     15  C   UNL     1      -4.521  30.797  17.430  0.00  0.00    +0.000 A 
ATOM     16  C   UNL     1      -5.021  30.372  18.654  0.00  0.00    +0.000 A 
ATOM     17  H   UNL     1      -2.921  26.962  19.955  0.00  0.00    +0.000 HD
ENDBRANCH   3   9
BRANCH   4  20
ATOM     18 BR   UNL     1       5.100  33.913  13.184  0.00  0.00    +0.000 Br
ATOM     19  N   UNL     1       1.586  30.348  11.301  0.00  0.00    +0.000 N 
ATOM     20  C   UNL     1       0.962  29.482  13.246  0.00  0.00    +0.000 A 
ATOM     21  C   UNL     1       1.931  30.491  13.503  0.00  0.00    +0.000 A 
ATOM     22  C   UNL     1       2.305  31.019  12.265  0.00  0.00    +0.000 A 
ATOM     23  C   UNL     1       0.771  29.417  11.884  0.00  0.00    +0.000 A 
ATOM     24  C   UNL     1       2.531  31.012  14.667  0.00  0.00    +0.000 A 
ATOM     25  C   UNL     1       3.248  32.041  12.126  0.00  0.00    +0.000 A 
ATOM     26  C   UNL     1       3.474  32.034  14.552  0.00  0.00    +0.000 A 
ATOM     27  C   UNL     1       3.819  32.532  13.302  0.00  0.00    +0.000 A 
ATOM     28  H   UNL     1       1.652  30.522  10.307  0.00  0.00    +0.000 HD
ENDBRANCH   4  20
TORSDOF 2
ENDMDL
MODEL 3
REMARK VINA RESULT:      -6.5      2.799      8.512
REMARK  Name = 179268_Nortopsentin.pdbqt.pdb
REMARK  2 active torsions:
REMARK  status: ('A' for Active; 'I' for Inactive)
REMARK    1  A    between atoms: C_3  and  C_9
REMARK    2  A    between atoms: C_4  and  C_20
REMARK                            x       y       z     vdW  Elec       q    Type
REMARK                         _______ _______ _______ _____ _____    ______ ____
ROOT
ATOM      1  N   UNL     1       1.120  29.098  13.743  0.00  0.00    +0.000 N 
ATOM      2  N   UNL     1       0.151  30.954  14.457  0.00  0.00    +0.000 NA
ATOM      3  C   UNL     1       0.055  28.694  14.500  0.00  0.00    +0.000 A 
ATOM      4  C   UNL     1       1.145  30.470  13.741  0.00  0.00    +0.000 A 
ATOM      5  C   UNL     1      -0.532  29.862  14.933  0.00  0.00    +0.000 A 
ATOM      6  H   UNL     1       1.779  28.503  13.265  0.00  0.00    +0.000 HD
ENDROOT
BRANCH   3   9
ATOM      7 BR   UNL     1      -4.287  24.275  18.276  0.00  0.00    +0.000 Br
ATOM      8  N   UNL     1      -0.431  25.092  14.663  0.00  0.00    +0.000 N 
ATOM      9  C   UNL     1      -0.363  27.307  14.784  0.00  0.00    +0.000 A 
ATOM     10  C   UNL     1      -1.357  26.845  15.693  0.00  0.00    +0.000 A 
ATOM     11  C   UNL     1      -1.377  25.450  15.596  0.00  0.00    +0.000 A 
ATOM     12  C   UNL     1       0.185  26.206  14.168  0.00  0.00    +0.000 A 
ATOM     13  C   UNL     1      -2.245  27.467  16.593  0.00  0.00    +0.000 A 
ATOM     14  C   UNL     1      -2.238  24.645  16.351  0.00  0.00    +0.000 A 
ATOM     15  C   UNL     1      -3.112  26.684  17.356  0.00  0.00    +0.000 A 
ATOM     16  C   UNL     1      -3.101  25.300  17.229  0.00  0.00    +0.000 A 
ATOM     17  H   UNL     1      -0.221  24.143  14.383  0.00  0.00    +0.000 HD
ENDBRANCH   3   9
BRANCH   4  20
ATOM     18 BR   UNL     1       6.703  35.082  14.330  0.00  0.00    +0.000 Br
ATOM     19  N   UNL     1       3.307  32.205  11.366  0.00  0.00    +0.000 N 
ATOM     20  C   UNL     1       2.155  31.290  13.027  0.00  0.00    +0.000 A 
ATOM     21  C   UNL     1       3.154  32.130  13.593  0.00  0.00    +0.000 A 
ATOM     22  C   UNL     1       3.862  32.692  12.527  0.00  0.00    +0.000 A 
ATOM     23  C   UNL     1       2.273  31.357  11.657  0.00  0.00    +0.000 A 
ATOM     24  C   UNL     1       3.531  32.471  14.907  0.00  0.00    +0.000 A 
ATOM     25  C   UNL     1       4.929  33.577  12.705  0.00  0.00    +0.000 A 
ATOM     26  C   UNL     1       4.593  33.355  15.107  0.00  0.00    +0.000 A 
ATOM     27  C   UNL     1       5.272  33.891  14.021  0.00  0.00    +0.000 A 
ATOM     28  H   UNL     1       3.619  32.442  10.434  0.00  0.00    +0.000 HD
ENDBRANCH   4  20
TORSDOF 2
ENDMDL
MODEL 4
REMARK VINA RESULT:      -6.4     29.759     31.642
REMARK  Name = 179268_Nortopsentin.pdbqt.pdb
REMARK  2 active torsions:
REMARK  status: ('A' for Active; 'I' for Inactive)
REMARK    1  A    between atoms: C_3  and  C_9
REMARK    2  A    between atoms: C_4  and  C_20
REMARK                            x       y       z     vdW  Elec       q    Type
REMARK                         _______ _______ _______ _____ _____    ______ ____
ROOT
ATOM      1  N   UNL     1      23.777  13.688  25.714  0.00  0.00    +0.000 N 
ATOM      2  N   UNL     1      22.349  12.016  25.956  0.00  0.00    +0.000 NA
ATOM      3  C   UNL     1      22.815  14.142  26.574  0.00  0.00    +0.000 A 
ATOM      4  C   UNL     1      23.460  12.400  25.363  0.00  0.00    +0.000 A 
ATOM      5  C   UNL     1      21.939  13.089  26.710  0.00  0.00    +0.000 A 
ATOM      6  H   UNL     1      24.583  14.198  25.387  0.00  0.00    +0.000 HD
ENDROOT
BRANCH   3   9
ATOM      7 BR   UNL     1      23.135  21.341  25.729  0.00  0.00    +0.000 Br
ATOM      8  N   UNL     1      22.520  17.007  28.799  0.00  0.00    +0.000 N 
ATOM      9  C   UNL     1      22.744  15.473  27.210  0.00  0.00    +0.000 A 
ATOM     10  C   UNL     1      22.875  16.756  26.607  0.00  0.00    +0.000 A 
ATOM     11  C   UNL     1      22.731  17.700  27.629  0.00  0.00    +0.000 A 
ATOM     12  C   UNL     1      22.527  15.662  28.555  0.00  0.00    +0.000 A 
ATOM     13  C   UNL     1      23.103  17.218  25.296  0.00  0.00    +0.000 A 
ATOM     14  C   UNL     1      22.802  19.080  27.408  0.00  0.00    +0.000 A 
ATOM     15  C   UNL     1      23.178  18.589  25.052  0.00  0.00    +0.000 A 
ATOM     16  C   UNL     1      23.028  19.495  26.096  0.00  0.00    +0.000 A 
ATOM     17  H   UNL     1      22.381  17.428  29.707  0.00  0.00    +0.000 HD
ENDBRANCH   3   9
BRANCH   4  20
ATOM     18 BR   UNL     1      26.164   5.820  23.988  0.00  0.00    +0.000 Br
ATOM     19  N   UNL     1      25.502  10.966  22.698  0.00  0.00    +0.000 N 
ATOM     20  C   UNL     1      24.264  11.559  24.442  0.00  0.00    +0.000 A 
ATOM     21  C   UNL     1      24.576  10.177  24.571  0.00  0.00    +0.000 A 
ATOM     22  C   UNL     1      25.354   9.832  23.463  0.00  0.00    +0.000 A 
ATOM     23  C   UNL     1      24.847  12.017  23.282  0.00  0.00    +0.000 A 
ATOM     24  C   UNL     1      24.274   9.180  25.520  0.00  0.00    +0.000 A 
ATOM     25  C   UNL     1      25.847   8.541  23.252  0.00  0.00    +0.000 A 
ATOM     26  C   UNL     1      24.758   7.884  25.329  0.00  0.00    +0.000 A 
ATOM     27  C   UNL     1      25.528   7.582  24.214  0.00  0.00    +0.000 A 
ATOM     28  H   UNL     1      26.020  11.014  21.831  0.00  0.00    +0.000 HD
ENDBRANCH   4  20
TORSDOF 2
ENDMDL
MODEL 5
REMARK VINA RESULT:      -6.4     26.614     28.435
REMARK  Name = 179268_Nortopsentin.pdbqt.pdb
REMARK  2 active torsions:
REMARK  status: ('A' for Active; 'I' for Inactive)
REMARK    1  A    between atoms: C_3  and  C_9
REMARK    2  A    between atoms: C_4  and  C_20
REMARK                            x       y       z     vdW  Elec       q    Type
REMARK                         _______ _______ _______ _____ _____    ______ ____
ROOT
ATOM      1  N   UNL     1      23.670  20.631  25.565  0.00  0.00    +0.000 N 
ATOM      2  N   UNL     1      22.472  19.710  23.950  0.00  0.00    +0.000 NA
ATOM      3  C   UNL     1      23.552  21.589  24.597  0.00  0.00    +0.000 A 
ATOM      4  C   UNL     1      23.005  19.510  25.137  0.00  0.00    +0.000 A 
ATOM      5  C   UNL     1      22.806  20.997  23.604  0.00  0.00    +0.000 A 
ATOM      6  H   UNL     1      24.157  20.718  26.444  0.00  0.00    +0.000 HD
ENDROOT
BRANCH   3   9
ATOM      7 BR   UNL     1      23.684  28.069  27.859  0.00  0.00    +0.000 Br
ATOM      8  N   UNL     1      25.326  24.716  24.031  0.00  0.00    +0.000 N 
ATOM      9  C   UNL     1      24.109  22.957  24.623  0.00  0.00    +0.000 A 
ATOM     10  C   UNL     1      23.829  24.015  25.534  0.00  0.00    +0.000 A 
ATOM     11  C   UNL     1      24.607  25.107  25.137  0.00  0.00    +0.000 A 
ATOM     12  C   UNL     1      25.032  23.420  23.714  0.00  0.00    +0.000 A 
ATOM     13  C   UNL     1      22.992  24.161  26.658  0.00  0.00    +0.000 A 
ATOM     14  C   UNL     1      24.592  26.337  25.805  0.00  0.00    +0.000 A 
ATOM     15  C   UNL     1      22.962  25.378  27.339  0.00  0.00    +0.000 A 
ATOM     16  C   UNL     1      23.751  26.440  26.913  0.00  0.00    +0.000 A 
ATOM     17  H   UNL     1      25.977  25.301  23.525  0.00  0.00    +0.000 HD
ENDBRANCH   3   9
BRANCH   4  20
ATOM     18 BR   UNL     1      25.333  12.694  25.935  0.00  0.00    +0.000 Br
ATOM     19  N   UNL     1      22.240  16.787  27.446  0.00  0.00    +0.000 N 
ATOM     20  C   UNL     1      22.901  18.248  25.912  0.00  0.00    +0.000 A 
ATOM     21  C   UNL     1      23.615  17.035  25.703  0.00  0.00    +0.000 A 
ATOM     22  C   UNL     1      23.180  16.136  26.679  0.00  0.00    +0.000 A 
ATOM     23  C   UNL     1      22.064  18.065  26.989  0.00  0.00    +0.000 A 
ATOM     24  C   UNL     1      24.590  16.609  24.780  0.00  0.00    +0.000 A 
ATOM     25  C   UNL     1      23.668  14.830  26.783  0.00  0.00    +0.000 A 
ATOM     26  C   UNL     1      25.091  15.308  24.864  0.00  0.00    +0.000 A 
ATOM     27  C   UNL     1      24.633  14.444  25.850  0.00  0.00    +0.000 A 
ATOM     28  H   UNL     1      21.752  16.378  28.231  0.00  0.00    +0.000 HD
ENDBRANCH   4  20
TORSDOF 2
ENDMDL
MODEL 6
REMARK VINA RESULT:      -6.3     26.857     27.952
REMARK  Name = 179268_Nortopsentin.pdbqt.pdb
REMARK  2 active torsions:
REMARK  status: ('A' for Active; 'I' for Inactive)
REMARK    1  A    between atoms: C_3  and  C_9
REMARK    2  A    between atoms: C_4  and  C_20
REMARK                            x       y       z     vdW  Elec       q    Type
REMARK                         _______ _______ _______ _____ _____    ______ ____
ROOT
ATOM      1  N   UNL     1      23.844  22.807  24.437  0.00  0.00    +0.000 N 
ATOM      2  N   UNL     1      23.187  22.445  26.518  0.00  0.00    +0.000 NA
ATOM      3  C   UNL     1      23.987  24.003  25.085  0.00  0.00    +0.000 A 
ATOM      4  C   UNL     1      23.358  21.891  25.336  0.00  0.00    +0.000 A 
ATOM      5  C   UNL     1      23.574  23.756  26.375  0.00  0.00    +0.000 A 
ATOM      6  H   UNL     1      24.054  22.617  23.469  0.00  0.00    +0.000 HD
ENDROOT
BRANCH   3   9
ATOM      7 BR   UNL     1      29.157  27.404  21.297  0.00  0.00    +0.000 Br
ATOM      8  N   UNL     1      24.542  27.431  23.998  0.00  0.00    +0.000 N 
ATOM      9  C   UNL     1      24.478  25.273  24.515  0.00  0.00    +0.000 A 
ATOM     10  C   UNL     1      25.665  25.513  23.765  0.00  0.00    +0.000 A 
ATOM     11  C   UNL     1      25.678  26.876  23.455  0.00  0.00    +0.000 A 
ATOM     12  C   UNL     1      23.812  26.470  24.639  0.00  0.00    +0.000 A 
ATOM     13  C   UNL     1      26.734  24.713  23.316  0.00  0.00    +0.000 A 
ATOM     14  C   UNL     1      26.704  27.481  22.719  0.00  0.00    +0.000 A 
ATOM     15  C   UNL     1      27.767  25.294  22.581  0.00  0.00    +0.000 A 
ATOM     16  C   UNL     1      27.743  26.653  22.293  0.00  0.00    +0.000 A 
ATOM     17  H   UNL     1      24.283  28.406  23.933  0.00  0.00    +0.000 HD
ENDBRANCH   3   9
BRANCH   4  20
ATOM     18 BR   UNL     1      22.875  15.104  27.827  0.00  0.00    +0.000 Br
ATOM     19  N   UNL     1      22.529  18.662  23.850  0.00  0.00    +0.000 N 
ATOM     20  C   UNL     1      23.069  20.471  25.015  0.00  0.00    +0.000 A 
ATOM     21  C   UNL     1      23.095  19.355  25.897  0.00  0.00    +0.000 A 
ATOM     22  C   UNL     1      22.753  18.233  25.139  0.00  0.00    +0.000 A 
ATOM     23  C   UNL     1      22.718  20.014  23.765  0.00  0.00    +0.000 A 
ATOM     24  C   UNL     1      23.376  19.184  27.267  0.00  0.00    +0.000 A 
ATOM     25  C   UNL     1      22.675  16.945  25.678  0.00  0.00    +0.000 A 
ATOM     26  C   UNL     1      23.305  17.906  27.825  0.00  0.00    +0.000 A 
ATOM     27  C   UNL     1      22.961  16.816  27.038  0.00  0.00    +0.000 A 
ATOM     28  H   UNL     1      22.264  18.062  23.080  0.00  0.00    +0.000 HD
ENDBRANCH   4  20
TORSDOF 2
ENDMDL
MODEL 7
REMARK VINA RESULT:      -6.2      3.541      8.593
REMARK  Name = 179268_Nortopsentin.pdbqt.pdb
REMARK  2 active torsions:
REMARK  status: ('A' for Active; 'I' for Inactive)
REMARK    1  A    between atoms: C_3  and  C_9
REMARK    2  A    between atoms: C_4  and  C_20
REMARK                            x       y       z     vdW  Elec       q    Type
REMARK                         _______ _______ _______ _____ _____    ______ ____
ROOT
ATOM      1  N   UNL     1       2.280  30.374  14.745  0.00  0.00    +0.000 N 
ATOM      2  N   UNL     1       1.394  31.896  13.407  0.00  0.00    +0.000 NA
ATOM      3  C   UNL     1       0.948  30.074  14.671  0.00  0.00    +0.000 A 
ATOM      4  C   UNL     1       2.510  31.481  13.968  0.00  0.00    +0.000 A 
ATOM      5  C   UNL     1       0.417  31.031  13.835  0.00  0.00    +0.000 A 
ATOM      6  H   UNL     1       2.981  29.878  15.273  0.00  0.00    +0.000 HD
ENDROOT
BRANCH   3   9
ATOM      7 BR   UNL     1      -2.142  23.537  14.060  0.00  0.00    +0.000 Br
ATOM      8  N   UNL     1      -0.707  27.788  16.968  0.00  0.00    +0.000 N 
ATOM      9  C   UNL     1       0.245  28.963  15.344  0.00  0.00    +0.000 A 
ATOM     10  C   UNL     1      -0.230  27.742  14.786  0.00  0.00    +0.000 A 
ATOM     11  C   UNL     1      -0.824  27.025  15.830  0.00  0.00    +0.000 A 
ATOM     12  C   UNL     1      -0.063  28.960  16.684  0.00  0.00    +0.000 A 
ATOM     13  C   UNL     1      -0.220  27.168  13.500  0.00  0.00    +0.000 A 
ATOM     14  C   UNL     1      -1.407  25.765  15.654  0.00  0.00    +0.000 A 
ATOM     15  C   UNL     1      -0.794  25.912  13.302  0.00  0.00    +0.000 A 
ATOM     16  C   UNL     1      -1.374  25.232  14.365  0.00  0.00    +0.000 A 
ATOM     17  H   UNL     1      -1.047  27.524  17.883  0.00  0.00    +0.000 HD
ENDBRANCH   3   9
BRANCH   4  20
ATOM     18 BR   UNL     1       7.023  36.751  16.060  0.00  0.00    +0.000 Br
ATOM     19  N   UNL     1       5.877  32.514  13.005  0.00  0.00    +0.000 N 
ATOM     20  C   UNL     1       3.839  32.119  13.788  0.00  0.00    +0.000 A 
ATOM     21  C   UNL     1       4.365  33.247  14.478  0.00  0.00    +0.000 A 
ATOM     22  C   UNL     1       5.646  33.472  13.966  0.00  0.00    +0.000 A 
ATOM     23  C   UNL     1       4.790  31.691  12.890  0.00  0.00    +0.000 A 
ATOM     24  C   UNL     1       3.883  34.100  15.489  0.00  0.00    +0.000 A 
ATOM     25  C   UNL     1       6.471  34.508  14.412  0.00  0.00    +0.000 A 
ATOM     26  C   UNL     1       4.691  35.143  15.948  0.00  0.00    +0.000 A 
ATOM     27  C   UNL     1       5.958  35.334  15.414  0.00  0.00    +0.000 A 
ATOM     28  H   UNL     1       6.727  32.434  12.465  0.00  0.00    +0.000 HD
ENDBRANCH   4  20
TORSDOF 2
ENDMDL
MODEL 8
REMARK VINA RESULT:      -6.2     29.369     31.415
REMARK  Name = 179268_Nortopsentin.pdbqt.pdb
REMARK  2 active torsions:
REMARK  status: ('A' for Active; 'I' for Inactive)
REMARK    1  A    between atoms: C_3  and  C_9
REMARK    2  A    between atoms: C_4  and  C_20
REMARK                            x       y       z     vdW  Elec       q    Type
REMARK                         _______ _______ _______ _____ _____    ______ ____
ROOT
ATOM      1  N   UNL     1      23.794  13.893  25.518  0.00  0.00    +0.000 N 
ATOM      2  N   UNL     1      22.611  12.058  25.878  0.00  0.00    +0.000 NA
ATOM      3  C   UNL     1      22.854  14.233  26.451  0.00  0.00    +0.000 A 
ATOM      4  C   UNL     1      23.615  12.571  25.197  0.00  0.00    +0.000 A 
ATOM      5  C   UNL     1      22.130  13.081  26.660  0.00  0.00    +0.000 A 
ATOM      6  H   UNL     1      24.500  14.496  25.126  0.00  0.00    +0.000 HD
ENDROOT
BRANCH   3   9
ATOM      7 BR   UNL     1      22.930  21.449  25.689  0.00  0.00    +0.000 Br
ATOM      8  N   UNL     1      22.230  17.058  28.659  0.00  0.00    +0.000 N 
ATOM      9  C   UNL     1      22.665  15.553  27.087  0.00  0.00    +0.000 A 
ATOM     10  C   UNL     1      22.795  16.847  26.508  0.00  0.00    +0.000 A 
ATOM     11  C   UNL     1      22.515  17.772  27.519  0.00  0.00    +0.000 A 
ATOM     12  C   UNL     1      22.318  15.718  28.408  0.00  0.00    +0.000 A 
ATOM     13  C   UNL     1      23.121  17.333  25.226  0.00  0.00    +0.000 A 
ATOM     14  C   UNL     1      22.545  19.157  27.315  0.00  0.00    +0.000 A 
ATOM     15  C   UNL     1      23.156  18.709  25.000  0.00  0.00    +0.000 A 
ATOM     16  C   UNL     1      22.872  19.596  26.031  0.00  0.00    +0.000 A 
ATOM     17  H   UNL     1      21.990  17.463  29.554  0.00  0.00    +0.000 HD
ENDBRANCH   3   9
BRANCH   4  20
ATOM     18 BR   UNL     1      29.780  12.379  21.395  0.00  0.00    +0.000 Br
ATOM     19  N   UNL     1      25.085  10.241  22.802  0.00  0.00    +0.000 N 
ATOM     20  C   UNL     1      24.443  11.825  24.217  0.00  0.00    +0.000 A 
ATOM     21  C   UNL     1      25.715  12.189  23.695  0.00  0.00    +0.000 A 
ATOM     22  C   UNL     1      26.094  11.177  22.809  0.00  0.00    +0.000 A 
ATOM     23  C   UNL     1      24.081  10.624  23.649  0.00  0.00    +0.000 A 
ATOM     24  C   UNL     1      26.587  13.279  23.886  0.00  0.00    +0.000 A 
ATOM     25  C   UNL     1      27.300  11.196  22.103  0.00  0.00    +0.000 A 
ATOM     26  C   UNL     1      27.796  13.319  23.190  0.00  0.00    +0.000 A 
ATOM     27  C   UNL     1      28.137  12.293  22.318  0.00  0.00    +0.000 A 
ATOM     28  H   UNL     1      25.087   9.395  22.249  0.00  0.00    +0.000 HD
ENDBRANCH   4  20
TORSDOF 2
ENDMDL
MODEL 9
REMARK VINA RESULT:      -6.1     18.803     20.724
REMARK  Name = 179268_Nortopsentin.pdbqt.pdb
REMARK  2 active torsions:
REMARK  status: ('A' for Active; 'I' for Inactive)
REMARK    1  A    between atoms: C_3  and  C_9
REMARK    2  A    between atoms: C_4  and  C_20
REMARK                            x       y       z     vdW  Elec       q    Type
REMARK                         _______ _______ _______ _____ _____    ______ ____
ROOT
ATOM      1  N   UNL     1      11.288  23.005  29.948  0.00  0.00    +0.000 N 
ATOM      2  N   UNL     1      10.302  21.707  31.444  0.00  0.00    +0.000 NA
ATOM      3  C   UNL     1      10.091  23.604  30.229  0.00  0.00    +0.000 A 
ATOM      4  C   UNL     1      11.378  21.862  30.701  0.00  0.00    +0.000 A 
ATOM      5  C   UNL     1       9.496  22.782  31.159  0.00  0.00    +0.000 A 
ATOM      6  H   UNL     1      11.990  23.333  29.303  0.00  0.00    +0.000 HD
ENDROOT
BRANCH   3   9
ATOM      7 BR   UNL     1      11.525  30.307  27.848  0.00  0.00    +0.000 Br
ATOM      8  N   UNL     1       8.104  26.319  28.844  0.00  0.00    +0.000 N 
ATOM      9  C   UNL     1       9.565  24.858  29.654  0.00  0.00    +0.000 A 
ATOM     10  C   UNL     1      10.272  26.044  29.306  0.00  0.00    +0.000 A 
ATOM     11  C   UNL     1       9.329  26.944  28.801  0.00  0.00    +0.000 A 
ATOM     12  C   UNL     1       8.237  25.060  29.357  0.00  0.00    +0.000 A 
ATOM     13  C   UNL     1      11.620  26.450  29.369  0.00  0.00    +0.000 A 
ATOM     14  C   UNL     1       9.662  28.228  28.355  0.00  0.00    +0.000 A 
ATOM     15  C   UNL     1      11.975  27.726  28.929  0.00  0.00    +0.000 A 
ATOM     16  C   UNL     1      11.007  28.591  28.433  0.00  0.00    +0.000 A 
ATOM     17  H   UNL     1       7.231  26.730  28.540  0.00  0.00    +0.000 HD
ENDBRANCH   3   9
BRANCH   4  20
ATOM     18 BR   UNL     1      13.726  15.167  29.226  0.00  0.00    +0.000 Br
ATOM     19  N   UNL     1      14.605  20.166  30.907  0.00  0.00    +0.000 N 
ATOM     20  C   UNL     1      12.534  20.931  30.679  0.00  0.00    +0.000 A 
ATOM     21  C   UNL     1      12.548  19.566  30.277  0.00  0.00    +0.000 A 
ATOM     22  C   UNL     1      13.860  19.112  30.430  0.00  0.00    +0.000 A 
ATOM     23  C   UNL     1      13.812  21.271  31.062  0.00  0.00    +0.000 A 
ATOM     24  C   UNL     1      11.575  18.669  29.795  0.00  0.00    +0.000 A 
ATOM     25  C   UNL     1      14.253  17.805  30.127  0.00  0.00    +0.000 A 
ATOM     26  C   UNL     1      11.946  17.358  29.487  0.00  0.00    +0.000 A 
ATOM     27  C   UNL     1      13.261  16.945  29.653  0.00  0.00    +0.000 A 
ATOM     28  H   UNL     1      15.594  20.127  31.113  0.00  0.00    +0.000 HD
ENDBRANCH   4  20
TORSDOF 2
ENDMDL
