MODEL 1
REMARK VINA RESULT:      -3.7      0.000      0.000
REMARK  Name = 21574552_Mertensene.pdbqt.pdb
REMARK  1 active torsions:
REMARK  status: ('A' for Active; 'I' for Inactive)
REMARK    1  A    between atoms: C_4  and  C_13
REMARK                            x       y       z     vdW  Elec       q    Type
REMARK                         _______ _______ _______ _____ _____    ______ ____
ROOT
ATOM      1 BR   UNL     1      31.618  12.245  14.803  0.00  0.00    +0.000 Br
ATOM      2 CL   UNL     1      28.876  12.795  20.050  0.00  0.00    +0.000 Cl
ATOM      3 CL   UNL     1      31.693  10.881  20.080  0.00  0.00    +0.000 Cl
ATOM      4  C   UNL     1      29.018  12.095  16.269  0.00  0.00    +0.000 C 
ATOM      5  C   UNL     1      28.631  11.809  17.655  0.00  0.00    +0.000 C 
ATOM      6  C   UNL     1      29.121  11.402  18.969  0.00  0.00    +0.000 C 
ATOM      7  C   UNL     1      30.538  11.797  16.231  0.00  0.00    +0.000 C 
ATOM      8  C   UNL     1      30.616  11.114  18.773  0.00  0.00    +0.000 C 
ATOM      9  C   UNL     1      31.115  11.359  17.459  0.00  0.00    +0.000 C 
ATOM     10  C   UNL     1      28.285  11.136  15.304  0.00  0.00    +0.000 C 
ATOM     11  C   UNL     1      28.370  10.195  19.539  0.00  0.00    +0.000 C 
ENDROOT
BRANCH   4  13
ATOM     12 CL   UNL     1      28.248  16.340  15.295  0.00  0.00    +0.000 Cl
ATOM     13  C   UNL     1      28.769  13.508  15.944  0.00  0.00    +0.000 C 
ATOM     14  C   UNL     1      28.562  14.661  15.680  0.00  0.00    +0.000 C 
ENDBRANCH   4  13
TORSDOF 1
ENDMDL
MODEL 2
REMARK VINA RESULT:      -3.7     33.381     34.882
REMARK  Name = 21574552_Mertensene.pdbqt.pdb
REMARK  1 active torsions:
REMARK  status: ('A' for Active; 'I' for Inactive)
REMARK    1  A    between atoms: C_4  and  C_13
REMARK                            x       y       z     vdW  Elec       q    Type
REMARK                         _______ _______ _______ _____ _____    ______ ____
ROOT
ATOM      1 BR   UNL     1      -4.508  25.289  13.709  0.00  0.00    +0.000 Br
ATOM      2 CL   UNL     1      -0.733  28.333  17.150  0.00  0.00    +0.000 Cl
ATOM      3 CL   UNL     1      -1.611  29.876  14.243  0.00  0.00    +0.000 Cl
ATOM      4  C   UNL     1      -1.982  25.196  15.303  0.00  0.00    +0.000 C 
ATOM      5  C   UNL     1      -0.975  26.188  15.698  0.00  0.00    +0.000 C 
ATOM      6  C   UNL     1      -0.548  27.576  15.549  0.00  0.00    +0.000 C 
ATOM      7  C   UNL     1      -2.900  25.961  14.317  0.00  0.00    +0.000 C 
ATOM      8  C   UNL     1      -1.520  28.193  14.533  0.00  0.00    +0.000 C 
ATOM      9  C   UNL     1      -2.552  27.323  14.074  0.00  0.00    +0.000 C 
ATOM     10  C   UNL     1      -1.306  24.019  14.563  0.00  0.00    +0.000 C 
ATOM     11  C   UNL     1       0.912  27.709  15.105  0.00  0.00    +0.000 C 
ENDROOT
BRANCH   4  13
ATOM     12 CL   UNL     1      -4.304  23.834  18.812  0.00  0.00    +0.000 Cl
ATOM     13  C   UNL     1      -2.753  24.749  16.474  0.00  0.00    +0.000 C 
ATOM     14  C   UNL     1      -3.383  24.381  17.427  0.00  0.00    +0.000 C 
ENDBRANCH   4  13
TORSDOF 1
ENDMDL
MODEL 3
REMARK VINA RESULT:      -3.6     33.220     34.523
REMARK  Name = 21574552_Mertensene.pdbqt.pdb
REMARK  1 active torsions:
REMARK  status: ('A' for Active; 'I' for Inactive)
REMARK    1  A    between atoms: C_4  and  C_13
REMARK                            x       y       z     vdW  Elec       q    Type
REMARK                         _______ _______ _______ _____ _____    ______ ____
ROOT
ATOM      1 BR   UNL     1      -1.098  32.166  12.192  0.00  0.00    +0.000 Br
ATOM      2 CL   UNL     1      -0.433  26.299  12.893  0.00  0.00    +0.000 Cl
ATOM      3 CL   UNL     1      -2.746  27.749  14.929  0.00  0.00    +0.000 Cl
ATOM      4  C   UNL     1       0.835  29.917  12.556  0.00  0.00    +0.000 C 
ATOM      5  C   UNL     1       0.768  28.590  13.178  0.00  0.00    +0.000 C 
ATOM      6  C   UNL     1      -0.069  27.680  13.956  0.00  0.00    +0.000 C 
ATOM      7  C   UNL     1      -0.512  30.581  12.935  0.00  0.00    +0.000 C 
ATOM      8  C   UNL     1      -1.341  28.476  14.280  0.00  0.00    +0.000 C 
ATOM      9  C   UNL     1      -1.395  29.788  13.725  0.00  0.00    +0.000 C 
ATOM     10  C   UNL     1       1.997  30.732  13.169  0.00  0.00    +0.000 C 
ATOM     11  C   UNL     1       0.626  27.162  15.219  0.00  0.00    +0.000 C 
ENDROOT
BRANCH   4  13
ATOM     12 CL   UNL     1       1.158  29.548   8.161  0.00  0.00    +0.000 Cl
ATOM     13  C   UNL     1       0.950  29.796  11.094  0.00  0.00    +0.000 C 
ATOM     14  C   UNL     1       1.039  29.697   9.901  0.00  0.00    +0.000 C 
ENDBRANCH   4  13
TORSDOF 1
ENDMDL
MODEL 4
REMARK VINA RESULT:      -3.6      3.162      4.462
REMARK  Name = 21574552_Mertensene.pdbqt.pdb
REMARK  1 active torsions:
REMARK  status: ('A' for Active; 'I' for Inactive)
REMARK    1  A    between atoms: C_4  and  C_13
REMARK                            x       y       z     vdW  Elec       q    Type
REMARK                         _______ _______ _______ _____ _____    ______ ____
ROOT
ATOM      1 BR   UNL     1      27.475  15.779  12.871  0.00  0.00    +0.000 Br
ATOM      2 CL   UNL     1      30.999  12.335  16.200  0.00  0.00    +0.000 Cl
ATOM      3 CL   UNL     1      27.922  11.040  15.528  0.00  0.00    +0.000 Cl
ATOM      4  C   UNL     1      29.285  15.646  15.245  0.00  0.00    +0.000 C 
ATOM      5  C   UNL     1      29.692  14.586  16.173  0.00  0.00    +0.000 C 
ATOM      6  C   UNL     1      29.480  13.193  16.557  0.00  0.00    +0.000 C 
ATOM      7  C   UNL     1      28.170  14.994  14.390  0.00  0.00    +0.000 C 
ATOM      8  C   UNL     1      28.341  12.693  15.658  0.00  0.00    +0.000 C 
ATOM      9  C   UNL     1      27.859  13.638  14.706  0.00  0.00    +0.000 C 
ATOM     10  C   UNL     1      28.695  16.840  16.029  0.00  0.00    +0.000 C 
ATOM     11  C   UNL     1      29.156  13.026  18.045  0.00  0.00    +0.000 C 
ENDROOT
BRANCH   4  13
ATOM     12 CL   UNL     1      32.674  16.866  12.679  0.00  0.00    +0.000 Cl
ATOM     13  C   UNL     1      30.414  16.045  14.390  0.00  0.00    +0.000 C 
ATOM     14  C   UNL     1      31.334  16.374  13.693  0.00  0.00    +0.000 C 
ENDBRANCH   4  13
TORSDOF 1
ENDMDL
MODEL 5
REMARK VINA RESULT:      -3.6     27.574     28.734
REMARK  Name = 21574552_Mertensene.pdbqt.pdb
REMARK  1 active torsions:
REMARK  status: ('A' for Active; 'I' for Inactive)
REMARK    1  A    between atoms: C_4  and  C_13
REMARK                            x       y       z     vdW  Elec       q    Type
REMARK                         _______ _______ _______ _____ _____    ______ ____
ROOT
ATOM      1 BR   UNL     1       8.468  19.953  30.398  0.00  0.00    +0.000 Br
ATOM      2 CL   UNL     1       5.303  24.846  29.215  0.00  0.00    +0.000 Cl
ATOM      3 CL   UNL     1       8.574  24.974  28.277  0.00  0.00    +0.000 Cl
ATOM      4  C   UNL     1       6.557  21.987  31.466  0.00  0.00    +0.000 C 
ATOM      5  C   UNL     1       6.258  23.388  31.148  0.00  0.00    +0.000 C 
ATOM      6  C   UNL     1       6.652  24.535  30.335  0.00  0.00    +0.000 C 
ATOM      7  C   UNL     1       7.807  21.663  30.610  0.00  0.00    +0.000 C 
ATOM      8  C   UNL     1       7.905  24.081  29.574  0.00  0.00    +0.000 C 
ATOM      9  C   UNL     1       8.297  22.730  29.800  0.00  0.00    +0.000 C 
ATOM     10  C   UNL     1       6.913  21.848  32.963  0.00  0.00    +0.000 C 
ATOM     11  C   UNL     1       6.906  25.797  31.166  0.00  0.00    +0.000 C 
ENDROOT
BRANCH   4  13
ATOM     12 CL   UNL     1       3.179  19.390  30.282  0.00  0.00    +0.000 Cl
ATOM     13  C   UNL     1       5.435  21.118  31.077  0.00  0.00    +0.000 C 
ATOM     14  C   UNL     1       4.519  20.412  30.757  0.00  0.00    +0.000 C 
ENDBRANCH   4  13
TORSDOF 1
ENDMDL
MODEL 6
REMARK VINA RESULT:      -3.5     33.694     35.057
REMARK  Name = 21574552_Mertensene.pdbqt.pdb
REMARK  1 active torsions:
REMARK  status: ('A' for Active; 'I' for Inactive)
REMARK    1  A    between atoms: C_4  and  C_13
REMARK                            x       y       z     vdW  Elec       q    Type
REMARK                         _______ _______ _______ _____ _____    ______ ____
ROOT
ATOM      1 BR   UNL     1      -3.343  26.639  12.193  0.00  0.00    +0.000 Br
ATOM      2 CL   UNL     1      -2.139  27.517  17.949  0.00  0.00    +0.000 Cl
ATOM      3 CL   UNL     1      -2.769  30.341  16.153  0.00  0.00    +0.000 Cl
ATOM      4  C   UNL     1      -1.501  26.017  14.463  0.00  0.00    +0.000 C 
ATOM      5  C   UNL     1      -1.115  26.711  15.697  0.00  0.00    +0.000 C 
ATOM      6  C   UNL     1      -1.257  27.945  16.463  0.00  0.00    +0.000 C 
ATOM      7  C   UNL     1      -2.357  27.057  13.696  0.00  0.00    +0.000 C 
ATOM      8  C   UNL     1      -2.092  28.880  15.577  0.00  0.00    +0.000 C 
ATOM      9  C   UNL     1      -2.531  28.315  14.344  0.00  0.00    +0.000 C 
ATOM     10  C   UNL     1      -0.244  25.677  13.630  0.00  0.00    +0.000 C 
ATOM     11  C   UNL     1       0.090  28.567  16.849  0.00  0.00    +0.000 C 
ENDROOT
BRANCH   4  13
ATOM     12 CL   UNL     1      -3.900  22.421  15.395  0.00  0.00    +0.000 Cl
ATOM     13  C   UNL     1      -2.305  24.824  14.771  0.00  0.00    +0.000 C 
ATOM     14  C   UNL     1      -2.958  23.849  15.023  0.00  0.00    +0.000 C 
ENDBRANCH   4  13
TORSDOF 1
ENDMDL
MODEL 7
REMARK VINA RESULT:      -3.4     33.484     35.398
REMARK  Name = 21574552_Mertensene.pdbqt.pdb
REMARK  1 active torsions:
REMARK  status: ('A' for Active; 'I' for Inactive)
REMARK    1  A    between atoms: C_4  and  C_13
REMARK                            x       y       z     vdW  Elec       q    Type
REMARK                         _______ _______ _______ _____ _____    ______ ____
ROOT
ATOM      1 BR   UNL     1      -3.869  24.361  16.859  0.00  0.00    +0.000 Br
ATOM      2 CL   UNL     1      -1.342  28.518  13.439  0.00  0.00    +0.000 Cl
ATOM      3 CL   UNL     1       0.015  25.404  13.178  0.00  0.00    +0.000 Cl
ATOM      4  C   UNL     1      -2.719  27.118  16.749  0.00  0.00    +0.000 C 
ATOM      5  C   UNL     1      -1.720  27.785  15.908  0.00  0.00    +0.000 C 
ATOM      6  C   UNL     1      -0.743  27.593  14.839  0.00  0.00    +0.000 C 
ATOM      7  C   UNL     1      -2.639  25.630  16.324  0.00  0.00    +0.000 C 
ATOM      8  C   UNL     1      -0.751  26.086  14.547  0.00  0.00    +0.000 C 
ATOM      9  C   UNL     1      -1.690  25.326  15.305  0.00  0.00    +0.000 C 
ATOM     10  C   UNL     1      -2.329  27.245  18.239  0.00  0.00    +0.000 C 
ATOM     11  C   UNL     1       0.654  28.102  15.207  0.00  0.00    +0.000 C 
ENDROOT
BRANCH   4  13
ATOM     12 CL   UNL     1      -6.750  28.746  15.936  0.00  0.00    +0.000 Cl
ATOM     13  C   UNL     1      -4.062  27.653  16.477  0.00  0.00    +0.000 C 
ATOM     14  C   UNL     1      -5.157  28.092  16.256  0.00  0.00    +0.000 C 
ENDBRANCH   4  13
TORSDOF 1
ENDMDL
MODEL 8
REMARK VINA RESULT:      -3.4      2.735      4.672
REMARK  Name = 21574552_Mertensene.pdbqt.pdb
REMARK  1 active torsions:
REMARK  status: ('A' for Active; 'I' for Inactive)
REMARK    1  A    between atoms: C_4  and  C_13
REMARK                            x       y       z     vdW  Elec       q    Type
REMARK                         _______ _______ _______ _____ _____    ______ ____
ROOT
ATOM      1 BR   UNL     1      32.321  12.232  18.983  0.00  0.00    +0.000 Br
ATOM      2 CL   UNL     1      27.795  11.052  15.310  0.00  0.00    +0.000 Cl
ATOM      3 CL   UNL     1      30.778  11.667  13.784  0.00  0.00    +0.000 Cl
ATOM      4  C   UNL     1      29.484  12.844  18.268  0.00  0.00    +0.000 C 
ATOM      5  C   UNL     1      28.697  12.783  17.032  0.00  0.00    +0.000 C 
ATOM      6  C   UNL     1      28.752  12.527  15.595  0.00  0.00    +0.000 C 
ATOM      7  C   UNL     1      30.935  12.555  17.807  0.00  0.00    +0.000 C 
ATOM      8  C   UNL     1      30.236  12.289  15.282  0.00  0.00    +0.000 C 
ATOM      9  C   UNL     1      31.107  12.321  16.410  0.00  0.00    +0.000 C 
ATOM     10  C   UNL     1      29.415  14.265  18.872  0.00  0.00    +0.000 C 
ATOM     11  C   UNL     1      28.161  13.669  14.761  0.00  0.00    +0.000 C 
ENDROOT
BRANCH   4  13
ATOM     12 CL   UNL     1      28.119   9.746  21.114  0.00  0.00    +0.000 Cl
ATOM     13  C   UNL     1      29.037  11.812  19.217  0.00  0.00    +0.000 C 
ATOM     14  C   UNL     1      28.669  10.971  19.990  0.00  0.00    +0.000 C 
ENDBRANCH   4  13
TORSDOF 1
ENDMDL
MODEL 9
REMARK VINA RESULT:      -3.3     21.091     22.566
REMARK  Name = 21574552_Mertensene.pdbqt.pdb
REMARK  1 active torsions:
REMARK  status: ('A' for Active; 'I' for Inactive)
REMARK    1  A    between atoms: C_4  and  C_13
REMARK                            x       y       z     vdW  Elec       q    Type
REMARK                         _______ _______ _______ _____ _____    ______ ____
ROOT
ATOM      1 BR   UNL     1      13.269  -4.208  27.294  0.00  0.00    +0.000 Br
ATOM      2 CL   UNL     1      16.029   0.937  26.166  0.00  0.00    +0.000 Cl
ATOM      3 CL   UNL     1      13.618   1.081  28.568  0.00  0.00    +0.000 Cl
ATOM      4  C   UNL     1      14.185  -2.296  25.187  0.00  0.00    +0.000 C 
ATOM      5  C   UNL     1      14.438  -0.852  25.146  0.00  0.00    +0.000 C 
ATOM      6  C   UNL     1      14.354   0.395  25.902  0.00  0.00    +0.000 C 
ATOM      7  C   UNL     1      13.546  -2.528  26.580  0.00  0.00    +0.000 C 
ATOM      8  C   UNL     1      13.680   0.019  27.229  0.00  0.00    +0.000 C 
ATOM      9  C   UNL     1      13.386  -1.366  27.390  0.00  0.00    +0.000 C 
ATOM     10  C   UNL     1      13.173  -2.690  24.088  0.00  0.00    +0.000 C 
ATOM     11  C   UNL     1      13.589   1.495  25.158  0.00  0.00    +0.000 C 
ENDROOT
BRANCH   4  13
ATOM     12 CL   UNL     1      17.970  -4.557  24.837  0.00  0.00    +0.000 Cl
ATOM     13  C   UNL     1      15.447  -3.045  25.077  0.00  0.00    +0.000 C 
ATOM     14  C   UNL     1      16.475  -3.657  24.983  0.00  0.00    +0.000 C 
ENDBRANCH   4  13
TORSDOF 1
ENDMDL
