MODEL 1
REMARK VINA RESULT:      -7.1      0.000      0.000
REMARK  Name = 222284_BetaSitosterol.pdbqt.pdb
REMARK  5 active torsions:
REMARK  status: ('A' for Active; 'I' for Inactive)
REMARK    1  A    between atoms: C_5  and  C_22
REMARK    2  A    between atoms: C_19  and  O_20
REMARK    3  A    between atoms: C_22  and  C_24
REMARK    4  A    between atoms: C_25  and  C_26
REMARK    5  A    between atoms: C_26  and  C_30
REMARK                            x       y       z     vdW  Elec       q    Type
REMARK                         _______ _______ _______ _____ _____    ______ ____
ROOT
ATOM      1  C   UNL     1       3.167  15.434   3.118  0.00  0.00    +0.000 C 
ATOM      2  C   UNL     1       1.728  15.993   3.584  0.00  0.00    +0.000 C 
ATOM      3  C   UNL     1       1.234  15.830   4.967  0.00  0.00    +0.000 C 
ATOM      4  C   UNL     1       2.060  15.414   6.158  0.00  0.00    +0.000 C 
ATOM      5  C   UNL     1       3.731  16.559   2.265  0.00  0.00    +0.000 C 
ATOM      6  C   UNL     1       3.908  15.208   4.360  0.00  0.00    +0.000 C 
ATOM      7  C   UNL     1       1.472  15.182   7.576  0.00  0.00    +0.000 C 
ATOM      8  C   UNL     1       1.512  17.226   2.891  0.00  0.00    +0.000 C 
ATOM      9  C   UNL     1       3.410  15.170   5.785  0.00  0.00    +0.000 C 
ATOM     10  C   UNL     1       2.754  17.586   2.121  0.00  0.00    +0.000 C 
ATOM     11  C   UNL     1      -0.088  16.195   5.319  0.00  0.00    +0.000 C 
ATOM     12  C   UNL     1       2.939  14.148   2.283  0.00  0.00    +0.000 C 
ATOM     13  C   UNL     1      -0.025  15.845   7.799  0.00  0.00    +0.000 C 
ATOM     14  C   UNL     1       2.319  15.857   8.604  0.00  0.00    +0.000 C 
ATOM     15  C   UNL     1      -0.646  16.185   6.710  0.00  0.00    +0.000 C 
ATOM     16  C   UNL     1       1.338  13.652   7.827  0.00  0.00    +0.000 C 
ATOM     17  C   UNL     1      -0.152  16.718   8.943  0.00  0.00    +0.000 C 
ATOM     18  C   UNL     1       2.036  16.844   9.749  0.00  0.00    +0.000 C 
ATOM     19  C   UNL     1       0.695  17.287   9.946  0.00  0.00    +0.000 C 
ENDROOT
BRANCH  19  20
ATOM     20  O   UNL     1       0.231  17.615  11.186  0.00  0.00    +0.000 OA
ATOM     21  H   UNL     1       0.356  18.560  11.376  0.00  0.00    +0.000 HD
ENDBRANCH  19  20
BRANCH   5  22
ATOM     22  C   UNL     1       5.061  16.600   1.741  0.00  0.00    +0.000 C 
ATOM     23  C   UNL     1       5.825  15.352   1.379  0.00  0.00    +0.000 C 
BRANCH  22  24
ATOM     24  C   UNL     1       5.746  17.823   1.508  0.00  0.00    +0.000 C 
ATOM     25  C   UNL     1       6.484  19.151   1.284  0.00  0.00    +0.000 C 
BRANCH  25  26
ATOM     26  C   UNL     1       7.158  20.395   1.088  0.00  0.00    +0.000 C 
ATOM     27  C   UNL     1       6.471  21.517   0.486  0.00  0.00    +0.000 C 
ATOM     28  C   UNL     1       5.018  21.445   0.054  0.00  0.00    +0.000 C 
ATOM     29  C   UNL     1       7.132  22.848   0.203  0.00  0.00    +0.000 C 
BRANCH  26  30
ATOM     30  C   UNL     1       8.511  20.540   1.492  0.00  0.00    +0.000 C 
ATOM     31  C   UNL     1       9.978  20.641   1.926  0.00  0.00    +0.000 C 
ENDBRANCH  26  30
ENDBRANCH  25  26
ENDBRANCH  22  24
ENDBRANCH   5  22
TORSDOF 5
ENDMDL
MODEL 2
REMARK VINA RESULT:      -6.6     25.088     27.132
REMARK  Name = 222284_BetaSitosterol.pdbqt.pdb
REMARK  5 active torsions:
REMARK  status: ('A' for Active; 'I' for Inactive)
REMARK    1  A    between atoms: C_5  and  C_22
REMARK    2  A    between atoms: C_19  and  O_20
REMARK    3  A    between atoms: C_22  and  C_24
REMARK    4  A    between atoms: C_25  and  C_26
REMARK    5  A    between atoms: C_26  and  C_30
REMARK                            x       y       z     vdW  Elec       q    Type
REMARK                         _______ _______ _______ _____ _____    ______ ____
ROOT
ATOM      1  C   UNL     1       3.607  18.453  31.374  0.00  0.00    +0.000 C 
ATOM      2  C   UNL     1       3.047  19.694  30.510  0.00  0.00    +0.000 C 
ATOM      3  C   UNL     1       3.755  20.989  30.448  0.00  0.00    +0.000 C 
ATOM      4  C   UNL     1       5.170  21.246  30.902  0.00  0.00    +0.000 C 
ATOM      5  C   UNL     1       3.398  17.255  30.461  0.00  0.00    +0.000 C 
ATOM      6  C   UNL     1       5.016  18.767  31.622  0.00  0.00    +0.000 C 
ATOM      7  C   UNL     1       5.839  22.647  30.885  0.00  0.00    +0.000 C 
ATOM      8  C   UNL     1       2.453  19.149  29.328  0.00  0.00    +0.000 C 
ATOM      9  C   UNL     1       5.760  20.066  31.432  0.00  0.00    +0.000 C 
ATOM     10  C   UNL     1       2.707  17.666  29.284  0.00  0.00    +0.000 C 
ATOM     11  C   UNL     1       3.175  22.110  29.806  0.00  0.00    +0.000 C 
ATOM     12  C   UNL     1       2.755  18.338  32.665  0.00  0.00    +0.000 C 
ATOM     13  C   UNL     1       5.064  23.750  29.931  0.00  0.00    +0.000 C 
ATOM     14  C   UNL     1       7.207  22.559  30.293  0.00  0.00    +0.000 C 
ATOM     15  C   UNL     1       3.856  23.426  29.581  0.00  0.00    +0.000 C 
ATOM     16  C   UNL     1       5.854  23.221  32.331  0.00  0.00    +0.000 C 
ATOM     17  C   UNL     1       5.892  24.411  28.948  0.00  0.00    +0.000 C 
ATOM     18  C   UNL     1       7.940  23.311  29.168  0.00  0.00    +0.000 C 
ATOM     19  C   UNL     1       7.235  24.329  28.461  0.00  0.00    +0.000 C 
ENDROOT
BRANCH  19  20
ATOM     20  O   UNL     1       7.883  25.409  27.938  0.00  0.00    +0.000 OA
ATOM     21  H   UNL     1       7.257  26.086  27.631  0.00  0.00    +0.000 HD
ENDBRANCH  19  20
BRANCH   5  22
ATOM     22  C   UNL     1       3.878  15.934  30.723  0.00  0.00    +0.000 C 
ATOM     23  C   UNL     1       2.950  14.772  30.972  0.00  0.00    +0.000 C 
BRANCH  22  24
ATOM     24  C   UNL     1       5.264  15.623  30.746  0.00  0.00    +0.000 C 
ATOM     25  C   UNL     1       6.767  15.308  30.753  0.00  0.00    +0.000 C 
BRANCH  25  26
ATOM     26  C   UNL     1       8.165  15.017  30.739  0.00  0.00    +0.000 C 
ATOM     27  C   UNL     1       9.140  16.085  30.775  0.00  0.00    +0.000 C 
ATOM     28  C   UNL     1       8.742  17.547  30.846  0.00  0.00    +0.000 C 
ATOM     29  C   UNL     1      10.634  15.856  30.717  0.00  0.00    +0.000 C 
BRANCH  26  30
ATOM     30  C   UNL     1       8.608  13.668  30.699  0.00  0.00    +0.000 C 
ATOM     31  C   UNL     1       9.075  12.208  30.709  0.00  0.00    +0.000 C 
ENDBRANCH  26  30
ENDBRANCH  25  26
ENDBRANCH  22  24
ENDBRANCH   5  22
TORSDOF 5
ENDMDL
MODEL 3
REMARK VINA RESULT:      -6.6     27.183     29.655
REMARK  Name = 222284_BetaSitosterol.pdbqt.pdb
REMARK  5 active torsions:
REMARK  status: ('A' for Active; 'I' for Inactive)
REMARK    1  A    between atoms: C_5  and  C_22
REMARK    2  A    between atoms: C_19  and  O_20
REMARK    3  A    between atoms: C_22  and  C_24
REMARK    4  A    between atoms: C_25  and  C_26
REMARK    5  A    between atoms: C_26  and  C_30
REMARK                            x       y       z     vdW  Elec       q    Type
REMARK                         _______ _______ _______ _____ _____    ______ ____
ROOT
ATOM      1  C   UNL     1      29.601  13.467  17.481  0.00  0.00    +0.000 C 
ATOM      2  C   UNL     1      29.305  11.915  17.801  0.00  0.00    +0.000 C 
ATOM      3  C   UNL     1      29.009  11.438  19.167  0.00  0.00    +0.000 C 
ATOM      4  C   UNL     1      28.662  12.306  20.351  0.00  0.00    +0.000 C 
ATOM      5  C   UNL     1      28.822  13.726  16.201  0.00  0.00    +0.000 C 
ATOM      6  C   UNL     1      29.090  14.199  18.642  0.00  0.00    +0.000 C 
ATOM      7  C   UNL     1      28.436  11.756  21.786  0.00  0.00    +0.000 C 
ATOM      8  C   UNL     1      28.574  11.389  16.689  0.00  0.00    +0.000 C 
ATOM      9  C   UNL     1      28.669  13.682  19.996  0.00  0.00    +0.000 C 
ATOM     10  C   UNL     1      28.246  12.508  15.738  0.00  0.00    +0.000 C 
ATOM     11  C   UNL     1      28.898  10.055  19.452  0.00  0.00    +0.000 C 
ATOM     12  C   UNL     1      31.127  13.633  17.260  0.00  0.00    +0.000 C 
ATOM     13  C   UNL     1      28.165  10.127  21.846  0.00  0.00    +0.000 C 
ATOM     14  C   UNL     1      27.200  12.347  22.377  0.00  0.00    +0.000 C 
ATOM     15  C   UNL     1      28.483   9.474  20.770  0.00  0.00    +0.000 C 
ATOM     16  C   UNL     1      29.702  12.043  22.644  0.00  0.00    +0.000 C 
ATOM     17  C   UNL     1      26.967   9.724  22.546  0.00  0.00    +0.000 C 
ATOM     18  C   UNL     1      25.943  11.762  23.045  0.00  0.00    +0.000 C 
ATOM     19  C   UNL     1      25.833  10.345  23.158  0.00  0.00    +0.000 C 
ENDROOT
BRANCH  19  20
ATOM     20  O   UNL     1      25.160   9.766  24.194  0.00  0.00    +0.000 OA
ATOM     21  H   UNL     1      25.193  10.318  24.993  0.00  0.00    +0.000 HD
ENDBRANCH  19  20
BRANCH   5  22
ATOM     22  C   UNL     1      28.647  15.010  15.597  0.00  0.00    +0.000 C 
ATOM     23  C   UNL     1      28.141  15.177  14.186  0.00  0.00    +0.000 C 
BRANCH  22  24
ATOM     24  C   UNL     1      28.922  16.218  16.292  0.00  0.00    +0.000 C 
ATOM     25  C   UNL     1      29.196  17.519  17.061  0.00  0.00    +0.000 C 
BRANCH  25  26
ATOM     26  C   UNL     1      29.432  18.733  17.776  0.00  0.00    +0.000 C 
ATOM     27  C   UNL     1      29.365  18.762  19.220  0.00  0.00    +0.000 C 
ATOM     28  C   UNL     1      29.065  17.524  20.046  0.00  0.00    +0.000 C 
ATOM     29  C   UNL     1      29.557  20.018  20.042  0.00  0.00    +0.000 C 
BRANCH  26  30
ATOM     30  C   UNL     1      29.743  19.924  17.067  0.00  0.00    +0.000 C 
ATOM     31  C   UNL     1      30.045  21.236  16.335  0.00  0.00    +0.000 C 
ENDBRANCH  26  30
ENDBRANCH  25  26
ENDBRANCH  22  24
ENDBRANCH   5  22
TORSDOF 5
ENDMDL
MODEL 4
REMARK VINA RESULT:      -6.3     12.199     15.858
REMARK  Name = 222284_BetaSitosterol.pdbqt.pdb
REMARK  5 active torsions:
REMARK  status: ('A' for Active; 'I' for Inactive)
REMARK    1  A    between atoms: C_5  and  C_22
REMARK    2  A    between atoms: C_19  and  O_20
REMARK    3  A    between atoms: C_22  and  C_24
REMARK    4  A    between atoms: C_25  and  C_26
REMARK    5  A    between atoms: C_26  and  C_30
REMARK                            x       y       z     vdW  Elec       q    Type
REMARK                         _______ _______ _______ _____ _____    ______ ____
ROOT
ATOM      1  C   UNL     1      18.265  20.812   1.033  0.00  0.00    +0.000 C 
ATOM      2  C   UNL     1      16.732  20.406   1.323  0.00  0.00    +0.000 C 
ATOM      3  C   UNL     1      16.310  18.999   1.486  0.00  0.00    +0.000 C 
ATOM      4  C   UNL     1      17.227  17.819   1.694  0.00  0.00    +0.000 C 
ATOM      5  C   UNL     1      18.496  22.014   1.936  0.00  0.00    +0.000 C 
ATOM      6  C   UNL     1      19.049  19.633   1.410  0.00  0.00    +0.000 C 
ATOM      7  C   UNL     1      16.733  16.350   1.781  0.00  0.00    +0.000 C 
ATOM      8  C   UNL     1      16.183  21.417   2.175  0.00  0.00    +0.000 C 
ATOM      9  C   UNL     1      18.589  18.225   1.699  0.00  0.00    +0.000 C 
ATOM     10  C   UNL     1      17.275  22.371   2.578  0.00  0.00    +0.000 C 
ATOM     11  C   UNL     1      14.941  18.654   1.592  0.00  0.00    +0.000 C 
ATOM     12  C   UNL     1      18.390  21.194  -0.464  0.00  0.00    +0.000 C 
ATOM     13  C   UNL     1      15.114  16.201   2.073  0.00  0.00    +0.000 C 
ATOM     14  C   UNL     1      17.372  15.658   2.939  0.00  0.00    +0.000 C 
ATOM     15  C   UNL     1      14.416  17.279   1.880  0.00  0.00    +0.000 C 
ATOM     16  C   UNL     1      17.022  15.636   0.428  0.00  0.00    +0.000 C 
ATOM     17  C   UNL     1      14.762  15.368   3.200  0.00  0.00    +0.000 C 
ATOM     18  C   UNL     1      16.839  14.844   4.130  0.00  0.00    +0.000 C 
ATOM     19  C   UNL     1      15.429  14.667   4.254  0.00  0.00    +0.000 C 
ENDROOT
BRANCH  19  20
ATOM     20  O   UNL     1      14.901  13.547   4.827  0.00  0.00    +0.000 OA
ATOM     21  H   UNL     1      14.095  13.750   5.330  0.00  0.00    +0.000 HD
ENDBRANCH  19  20
BRANCH   5  22
ATOM     22  C   UNL     1      19.761  22.646   2.148  0.00  0.00    +0.000 C 
ATOM     23  C   UNL     1      21.043  21.863   2.279  0.00  0.00    +0.000 C 
BRANCH  22  24
ATOM     24  C   UNL     1      19.898  24.058   2.229  0.00  0.00    +0.000 C 
ATOM     25  C   UNL     1      20.049  25.582   2.346  0.00  0.00    +0.000 C 
BRANCH  25  26
ATOM     26  C   UNL     1      20.178  26.999   2.470  0.00  0.00    +0.000 C 
ATOM     27  C   UNL     1      21.325  27.578   3.133  0.00  0.00    +0.000 C 
ATOM     28  C   UNL     1      22.446  26.732   3.709  0.00  0.00    +0.000 C 
ATOM     29  C   UNL     1      21.507  29.065   3.343  0.00  0.00    +0.000 C 
BRANCH  26  30
ATOM     30  C   UNL     1      19.178  27.851   1.931  0.00  0.00    +0.000 C 
ATOM     31  C   UNL     1      18.074  28.727   1.328  0.00  0.00    +0.000 C 
ENDBRANCH  26  30
ENDBRANCH  25  26
ENDBRANCH  22  24
ENDBRANCH   5  22
TORSDOF 5
ENDMDL
MODEL 5
REMARK VINA RESULT:      -6.3     15.719     20.995
REMARK  Name = 222284_BetaSitosterol.pdbqt.pdb
REMARK  5 active torsions:
REMARK  status: ('A' for Active; 'I' for Inactive)
REMARK    1  A    between atoms: C_5  and  C_22
REMARK    2  A    between atoms: C_19  and  O_20
REMARK    3  A    between atoms: C_22  and  C_24
REMARK    4  A    between atoms: C_25  and  C_26
REMARK    5  A    between atoms: C_26  and  C_30
REMARK                            x       y       z     vdW  Elec       q    Type
REMARK                         _______ _______ _______ _____ _____    ______ ____
ROOT
ATOM      1  C   UNL     1      21.455  28.079   3.404  0.00  0.00    +0.000 C 
ATOM      2  C   UNL     1      19.865  27.833   3.292  0.00  0.00    +0.000 C 
ATOM      3  C   UNL     1      19.302  26.630   2.646  0.00  0.00    +0.000 C 
ATOM      4  C   UNL     1      20.065  25.380   2.284  0.00  0.00    +0.000 C 
ATOM      5  C   UNL     1      21.640  28.597   4.822  0.00  0.00    +0.000 C 
ATOM      6  C   UNL     1      22.060  26.766   3.171  0.00  0.00    +0.000 C 
ATOM      7  C   UNL     1      19.437  24.174   1.535  0.00  0.00    +0.000 C 
ATOM      8  C   UNL     1      19.276  28.340   4.493  0.00  0.00    +0.000 C 
ATOM      9  C   UNL     1      21.439  25.502   2.629  0.00  0.00    +0.000 C 
ATOM     10  C   UNL     1      20.367  28.765   5.439  0.00  0.00    +0.000 C 
ATOM     11  C   UNL     1      17.908  26.503   2.426  0.00  0.00    +0.000 C 
ATOM     12  C   UNL     1      21.855  29.147   2.353  0.00  0.00    +0.000 C 
ATOM     13  C   UNL     1      17.785  24.158   1.553  0.00  0.00    +0.000 C 
ATOM     14  C   UNL     1      19.815  22.896   2.206  0.00  0.00    +0.000 C 
ATOM     15  C   UNL     1      17.225  25.279   1.895  0.00  0.00    +0.000 C 
ATOM     16  C   UNL     1      19.879  24.216   0.044  0.00  0.00    +0.000 C 
ATOM     17  C   UNL     1      17.183  22.935   2.032  0.00  0.00    +0.000 C 
ATOM     18  C   UNL     1      19.026  21.684   2.732  0.00  0.00    +0.000 C 
ATOM     19  C   UNL     1      17.605  21.697   2.613  0.00  0.00    +0.000 C 
ENDROOT
BRANCH  19  20
ATOM     20  O   UNL     1      16.895  20.543   2.456  0.00  0.00    +0.000 OA
ATOM     21  H   UNL     1      16.071  20.559   2.971  0.00  0.00    +0.000 HD
ENDBRANCH  19  20
BRANCH   5  22
ATOM     22  C   UNL     1      22.904  28.819   5.452  0.00  0.00    +0.000 C 
ATOM     23  C   UNL     1      23.264  30.132   6.099  0.00  0.00    +0.000 C 
BRANCH  22  24
ATOM     24  C   UNL     1      23.901  27.809   5.528  0.00  0.00    +0.000 C 
ATOM     25  C   UNL     1      24.971  26.709   5.583  0.00  0.00    +0.000 C 
BRANCH  25  26
ATOM     26  C   UNL     1      25.953  25.673   5.627  0.00  0.00    +0.000 C 
ATOM     27  C   UNL     1      26.904  25.606   6.714  0.00  0.00    +0.000 C 
ATOM     28  C   UNL     1      26.902  26.602   7.859  0.00  0.00    +0.000 C 
ATOM     29  C   UNL     1      28.001  24.569   6.804  0.00  0.00    +0.000 C 
BRANCH  26  30
ATOM     30  C   UNL     1      25.996  24.693   4.600  0.00  0.00    +0.000 C 
ATOM     31  C   UNL     1      25.987  23.630   3.495  0.00  0.00    +0.000 C 
ENDBRANCH  26  30
ENDBRANCH  25  26
ENDBRANCH  22  24
ENDBRANCH   5  22
TORSDOF 5
ENDMDL
MODEL 6
REMARK VINA RESULT:      -6.2      3.036      6.242
REMARK  Name = 222284_BetaSitosterol.pdbqt.pdb
REMARK  5 active torsions:
REMARK  status: ('A' for Active; 'I' for Inactive)
REMARK    1  A    between atoms: C_5  and  C_22
REMARK    2  A    between atoms: C_19  and  O_20
REMARK    3  A    between atoms: C_22  and  C_24
REMARK    4  A    between atoms: C_25  and  C_26
REMARK    5  A    between atoms: C_26  and  C_30
REMARK                            x       y       z     vdW  Elec       q    Type
REMARK                         _______ _______ _______ _____ _____    ______ ____
ROOT
ATOM      1  C   UNL     1       7.099  18.990   0.020  0.00  0.00    +0.000 C 
ATOM      2  C   UNL     1       5.589  18.971   0.586  0.00  0.00    +0.000 C 
ATOM      3  C   UNL     1       5.027  17.793   1.278  0.00  0.00    +0.000 C 
ATOM      4  C   UNL     1       5.811  16.615   1.800  0.00  0.00    +0.000 C 
ATOM      5  C   UNL     1       7.611  20.368   0.409  0.00  0.00    +0.000 C 
ATOM      6  C   UNL     1       7.779  17.892   0.710  0.00  0.00    +0.000 C 
ATOM      7  C   UNL     1       5.158  15.366   2.451  0.00  0.00    +0.000 C 
ATOM      8  C   UNL     1       5.306  20.286   1.073  0.00  0.00    +0.000 C 
ATOM      9  C   UNL     1       7.198  16.762   1.524  0.00  0.00    +0.000 C 
ATOM     10  C   UNL     1       6.556  21.121   1.000  0.00  0.00    +0.000 C 
ATOM     11  C   UNL     1       3.657  17.740   1.637  0.00  0.00    +0.000 C 
ATOM     12  C   UNL     1       7.040  18.820  -1.520  0.00  0.00    +0.000 C 
ATOM     13  C   UNL     1       3.597  15.600   2.937  0.00  0.00    +0.000 C 
ATOM     14  C   UNL     1       5.875  15.006   3.710  0.00  0.00    +0.000 C 
ATOM     15  C   UNL     1       3.017  16.652   2.444  0.00  0.00    +0.000 C 
ATOM     16  C   UNL     1       5.148  14.201   1.419  0.00  0.00    +0.000 C 
ATOM     17  C   UNL     1       3.320  15.266   4.316  0.00  0.00    +0.000 C 
ATOM     18  C   UNL     1       5.434  14.741   5.159  0.00  0.00    +0.000 C 
ATOM     19  C   UNL     1       4.049  14.858   5.478  0.00  0.00    +0.000 C 
ENDROOT
BRANCH  19  20
ATOM     20  O   UNL     1       3.480  14.102   6.460  0.00  0.00    +0.000 OA
ATOM     21  H   UNL     1       2.708  14.546   6.851  0.00  0.00    +0.000 HD
ENDBRANCH  19  20
BRANCH   5  22
ATOM     22  C   UNL     1       8.962  20.811   0.256  0.00  0.00    +0.000 C 
ATOM     23  C   UNL     1       9.317  22.097  -0.447  0.00  0.00    +0.000 C 
BRANCH  22  24
ATOM     24  C   UNL     1      10.063  20.076   0.774  0.00  0.00    +0.000 C 
ATOM     25  C   UNL     1      11.244  19.260   1.319  0.00  0.00    +0.000 C 
BRANCH  25  26
ATOM     26  C   UNL     1      12.331  18.486   1.828  0.00  0.00    +0.000 C 
ATOM     27  C   UNL     1      12.132  17.107   2.219  0.00  0.00    +0.000 C 
ATOM     28  C   UNL     1      10.789  16.412   2.097  0.00  0.00    +0.000 C 
ATOM     29  C   UNL     1      13.222  16.240   2.810  0.00  0.00    +0.000 C 
BRANCH  26  30
ATOM     30  C   UNL     1      13.621  19.067   1.946  0.00  0.00    +0.000 C 
ATOM     31  C   UNL     1      14.991  19.739   2.093  0.00  0.00    +0.000 C 
ENDBRANCH  26  30
ENDBRANCH  25  26
ENDBRANCH  22  24
ENDBRANCH   5  22
TORSDOF 5
ENDMDL
MODEL 7
REMARK VINA RESULT:      -6.2     26.043     28.029
REMARK  Name = 222284_BetaSitosterol.pdbqt.pdb
REMARK  5 active torsions:
REMARK  status: ('A' for Active; 'I' for Inactive)
REMARK    1  A    between atoms: C_5  and  C_22
REMARK    2  A    between atoms: C_19  and  O_20
REMARK    3  A    between atoms: C_22  and  C_24
REMARK    4  A    between atoms: C_25  and  C_26
REMARK    5  A    between atoms: C_26  and  C_30
REMARK                            x       y       z     vdW  Elec       q    Type
REMARK                         _______ _______ _______ _____ _____    ______ ____
ROOT
ATOM      1  C   UNL     1      10.090  19.494  30.890  0.00  0.00    +0.000 C 
ATOM      2  C   UNL     1       9.788  18.581  32.185  0.00  0.00    +0.000 C 
ATOM      3  C   UNL     1       9.786  17.106  32.121  0.00  0.00    +0.000 C 
ATOM      4  C   UNL     1      10.326  16.268  30.988  0.00  0.00    +0.000 C 
ATOM      5  C   UNL     1      11.008  20.582  31.423  0.00  0.00    +0.000 C 
ATOM      6  C   UNL     1      10.736  18.594  29.932  0.00  0.00    +0.000 C 
ATOM      7  C   UNL     1      10.228  14.719  30.939  0.00  0.00    +0.000 C 
ATOM      8  C   UNL     1      10.369  19.245  33.311  0.00  0.00    +0.000 C 
ATOM      9  C   UNL     1      10.838  17.088  29.945  0.00  0.00    +0.000 C 
ATOM     10  C   UNL     1      11.147  20.442  32.834  0.00  0.00    +0.000 C 
ATOM     11  C   UNL     1       9.375  16.326  33.229  0.00  0.00    +0.000 C 
ATOM     12  C   UNL     1       8.746  20.081  30.388  0.00  0.00    +0.000 C 
ATOM     13  C   UNL     1       9.896  14.021  32.399  0.00  0.00    +0.000 C 
ATOM     14  C   UNL     1      11.544  14.131  30.551  0.00  0.00    +0.000 C 
ATOM     15  C   UNL     1       9.452  14.831  33.311  0.00  0.00    +0.000 C 
ATOM     16  C   UNL     1       9.084  14.314  29.965  0.00  0.00    +0.000 C 
ATOM     17  C   UNL     1      10.813  12.984  32.812  0.00  0.00    +0.000 C 
ATOM     18  C   UNL     1      12.453  13.045  31.151  0.00  0.00    +0.000 C 
ATOM     19  C   UNL     1      12.043  12.409  32.359  0.00  0.00    +0.000 C 
ENDROOT
BRANCH  19  20
ATOM     20  O   UNL     1      12.381  11.115  32.631  0.00  0.00    +0.000 OA
ATOM     21  H   UNL     1      12.466  10.590  31.818  0.00  0.00    +0.000 HD
ENDBRANCH  19  20
BRANCH   5  22
ATOM     22  C   UNL     1      11.675  21.556  30.616  0.00  0.00    +0.000 C 
ATOM     23  C   UNL     1      13.124  21.423  30.221  0.00  0.00    +0.000 C 
BRANCH  22  24
ATOM     24  C   UNL     1      11.010  22.708  30.115  0.00  0.00    +0.000 C 
ATOM     25  C   UNL     1      10.288  23.962  29.599  0.00  0.00    +0.000 C 
BRANCH  25  26
ATOM     26  C   UNL     1       9.605  25.127  29.135  0.00  0.00    +0.000 C 
ATOM     27  C   UNL     1      10.297  26.392  29.027  0.00  0.00    +0.000 C 
ATOM     28  C   UNL     1      11.765  26.549  29.377  0.00  0.00    +0.000 C 
ATOM     29  C   UNL     1       9.628  27.677  28.589  0.00  0.00    +0.000 C 
BRANCH  26  30
ATOM     30  C   UNL     1       8.236  25.045  28.766  0.00  0.00    +0.000 C 
ATOM     31  C   UNL     1       6.747  24.938  28.418  0.00  0.00    +0.000 C 
ENDBRANCH  26  30
ENDBRANCH  25  26
ENDBRANCH  22  24
ENDBRANCH   5  22
TORSDOF 5
ENDMDL
MODEL 8
REMARK VINA RESULT:      -6.0     27.333     29.410
REMARK  Name = 222284_BetaSitosterol.pdbqt.pdb
REMARK  5 active torsions:
REMARK  status: ('A' for Active; 'I' for Inactive)
REMARK    1  A    between atoms: C_5  and  C_22
REMARK    2  A    between atoms: C_19  and  O_20
REMARK    3  A    between atoms: C_22  and  C_24
REMARK    4  A    between atoms: C_25  and  C_26
REMARK    5  A    between atoms: C_26  and  C_30
REMARK                            x       y       z     vdW  Elec       q    Type
REMARK                         _______ _______ _______ _____ _____    ______ ____
ROOT
ATOM      1  C   UNL     1      30.053  14.708  16.032  0.00  0.00    +0.000 C 
ATOM      2  C   UNL     1      29.308  13.289  16.208  0.00  0.00    +0.000 C 
ATOM      3  C   UNL     1      29.195  12.620  17.520  0.00  0.00    +0.000 C 
ATOM      4  C   UNL     1      29.470  13.252  18.862  0.00  0.00    +0.000 C 
ATOM      5  C   UNL     1      29.137  15.481  15.096  0.00  0.00    +0.000 C 
ATOM      6  C   UNL     1      30.125  15.270  17.382  0.00  0.00    +0.000 C 
ATOM      7  C   UNL     1      29.410  12.479  20.207  0.00  0.00    +0.000 C 
ATOM      8  C   UNL     1      28.196  13.283  15.307  0.00  0.00    +0.000 C 
ATOM      9  C   UNL     1      29.882  14.605  18.715  0.00  0.00    +0.000 C 
ATOM     10  C   UNL     1      28.073  14.638  14.663  0.00  0.00    +0.000 C 
ATOM     11  C   UNL     1      28.670  11.310  17.631  0.00  0.00    +0.000 C 
ATOM     12  C   UNL     1      31.438  14.451  15.386  0.00  0.00    +0.000 C 
ATOM     13  C   UNL     1      28.600  11.042  20.121  0.00  0.00    +0.000 C 
ATOM     14  C   UNL     1      28.643  13.263  21.220  0.00  0.00    +0.000 C 
ATOM     15  C   UNL     1      28.400  10.592  18.919  0.00  0.00    +0.000 C 
ATOM     16  C   UNL     1      30.860  12.161  20.675  0.00  0.00    +0.000 C 
ATOM     17  C   UNL     1      27.540  10.869  21.087  0.00  0.00    +0.000 C 
ATOM     18  C   UNL     1      27.458  12.948  22.148  0.00  0.00    +0.000 C 
ATOM     19  C   UNL     1      26.880  11.645  22.092  0.00  0.00    +0.000 C 
ENDROOT
BRANCH  19  20
ATOM     20  O   UNL     1      26.312  11.073  23.192  0.00  0.00    +0.000 OA
ATOM     21  H   UNL     1      26.985  10.728  23.803  0.00  0.00    +0.000 HD
ENDBRANCH  19  20
BRANCH   5  22
ATOM     22  C   UNL     1      29.293  16.861  14.755  0.00  0.00    +0.000 C 
ATOM     23  C   UNL     1      29.447  17.329  13.330  0.00  0.00    +0.000 C 
BRANCH  22  24
ATOM     24  C   UNL     1      29.293  17.888  15.738  0.00  0.00    +0.000 C 
ATOM     25  C   UNL     1      29.302  18.979  16.819  0.00  0.00    +0.000 C 
BRANCH  25  26
ATOM     26  C   UNL     1      29.301  19.981  17.837  0.00  0.00    +0.000 C 
ATOM     27  C   UNL     1      29.093  21.372  17.499  0.00  0.00    +0.000 C 
ATOM     28  C   UNL     1      28.848  21.836  16.076  0.00  0.00    +0.000 C 
ATOM     29  C   UNL     1      29.125  22.493  18.515  0.00  0.00    +0.000 C 
BRANCH  26  30
ATOM     30  C   UNL     1      29.499  19.613  19.194  0.00  0.00    +0.000 C 
ATOM     31  C   UNL     1      29.680  19.172  20.651  0.00  0.00    +0.000 C 
ENDBRANCH  26  30
ENDBRANCH  25  26
ENDBRANCH  22  24
ENDBRANCH   5  22
TORSDOF 5
ENDMDL
MODEL 9
REMARK VINA RESULT:      -6.0     21.545     24.067
REMARK  Name = 222284_BetaSitosterol.pdbqt.pdb
REMARK  5 active torsions:
REMARK  status: ('A' for Active; 'I' for Inactive)
REMARK    1  A    between atoms: C_5  and  C_22
REMARK    2  A    between atoms: C_19  and  O_20
REMARK    3  A    between atoms: C_22  and  C_24
REMARK    4  A    between atoms: C_25  and  C_26
REMARK    5  A    between atoms: C_26  and  C_30
REMARK                            x       y       z     vdW  Elec       q    Type
REMARK                         _______ _______ _______ _____ _____    ______ ____
ROOT
ATOM      1  C   UNL     1      23.414  28.866   5.288  0.00  0.00    +0.000 C 
ATOM      2  C   UNL     1      23.637  27.497   4.466  0.00  0.00    +0.000 C 
ATOM      3  C   UNL     1      24.694  26.529   4.826  0.00  0.00    +0.000 C 
ATOM      4  C   UNL     1      25.483  26.518   6.111  0.00  0.00    +0.000 C 
ATOM      5  C   UNL     1      21.902  28.962   5.423  0.00  0.00    +0.000 C 
ATOM      6  C   UNL     1      24.108  28.663   6.561  0.00  0.00    +0.000 C 
ATOM      7  C   UNL     1      26.638  25.523   6.405  0.00  0.00    +0.000 C 
ATOM      8  C   UNL     1      22.344  27.026   4.074  0.00  0.00    +0.000 C 
ATOM      9  C   UNL     1      25.094  27.591   6.959  0.00  0.00    +0.000 C 
ATOM     10  C   UNL     1      21.289  27.901   4.697  0.00  0.00    +0.000 C 
ATOM     11  C   UNL     1      24.970  25.408   4.005  0.00  0.00    +0.000 C 
ATOM     12  C   UNL     1      23.984  30.035   4.444  0.00  0.00    +0.000 C 
ATOM     13  C   UNL     1      26.656  24.203   5.412  0.00  0.00    +0.000 C 
ATOM     14  C   UNL     1      26.486  24.943   7.771  0.00  0.00    +0.000 C 
ATOM     15  C   UNL     1      25.931  24.308   4.340  0.00  0.00    +0.000 C 
ATOM     16  C   UNL     1      27.999  26.256   6.219  0.00  0.00    +0.000 C 
ATOM     17  C   UNL     1      26.679  22.924   6.083  0.00  0.00    +0.000 C 
ATOM     18  C   UNL     1      26.463  23.511   8.333  0.00  0.00    +0.000 C 
ATOM     19  C   UNL     1      26.593  22.423   7.421  0.00  0.00    +0.000 C 
ENDROOT
BRANCH  19  20
ATOM     20  O   UNL     1      27.182  21.250   7.795  0.00  0.00    +0.000 OA
ATOM     21  H   UNL     1      27.585  20.796   7.036  0.00  0.00    +0.000 HD
ENDBRANCH  19  20
BRANCH   5  22
ATOM     22  C   UNL     1      21.213  29.935   6.211  0.00  0.00    +0.000 C 
ATOM     23  C   UNL     1      20.683  29.631   7.589  0.00  0.00    +0.000 C 
BRANCH  22  24
ATOM     24  C   UNL     1      20.998  31.264   5.754  0.00  0.00    +0.000 C 
ATOM     25  C   UNL     1      20.737  32.697   5.267  0.00  0.00    +0.000 C 
BRANCH  25  26
ATOM     26  C   UNL     1      20.480  34.023   4.805  0.00  0.00    +0.000 C 
ATOM     27  C   UNL     1      20.037  35.050   5.723  0.00  0.00    +0.000 C 
ATOM     28  C   UNL     1      19.842  34.787   7.204  0.00  0.00    +0.000 C 
ATOM     29  C   UNL     1      19.700  36.462   5.299  0.00  0.00    +0.000 C 
BRANCH  26  30
ATOM     30  C   UNL     1      20.666  34.345   3.434  0.00  0.00    +0.000 C 
ATOM     31  C   UNL     1      20.882  34.741   1.969  0.00  0.00    +0.000 C 
ENDBRANCH  26  30
ENDBRANCH  25  26
ENDBRANCH  22  24
ENDBRANCH   5  22
TORSDOF 5
ENDMDL
