MODEL 1
REMARK VINA RESULT:      -6.0      0.000      0.000
REMARK  Name = 25023738_BI-D-1870.pdbqt.pdb
REMARK  4 active torsions:
REMARK  status: ('A' for Active; 'I' for Inactive)
REMARK    1  A    between atoms: N_2  and  C_26
REMARK    2  A    between atoms: N_14  and  C_16
REMARK    3  A    between atoms: C_20  and  O_24
REMARK    4  A    between atoms: C_27  and  C_28
REMARK                            x       y       z     vdW  Elec       q    Type
REMARK                         _______ _______ _______ _____ _____    ______ ____
ROOT
ATOM      1  O   UNL     1      13.822  17.750  32.261  0.00  0.00    +0.000 OA
ATOM      2  N   UNL     1      11.021  19.864  31.380  0.00  0.00    +0.000 N 
ATOM      3  N   UNL     1      13.838  19.932  31.444  0.00  0.00    +0.000 N 
ATOM      4  N   UNL     1      10.986  22.097  30.542  0.00  0.00    +0.000 NA
ATOM      5  N   UNL     1      12.956  23.306  30.153  0.00  0.00    +0.000 NA
ATOM      6  C   UNL     1      11.696  18.746  31.821  0.00  0.00    +0.000 C 
ATOM      7  C   UNL     1      11.700  21.029  30.966  0.00  0.00    +0.000 A 
ATOM      8  C   UNL     1      13.204  18.745  31.869  0.00  0.00    +0.000 C 
ATOM      9  C   UNL     1      13.076  21.048  31.002  0.00  0.00    +0.000 A 
ATOM     10  C   UNL     1      10.919  17.510  32.260  0.00  0.00    +0.000 C 
ATOM     11  C   UNL     1      15.285  20.118  31.420  0.00  0.00    +0.000 C 
ATOM     12  C   UNL     1      13.643  22.230  30.578  0.00  0.00    +0.000 A 
ATOM     13  C   UNL     1      11.628  23.207  30.147  0.00  0.00    +0.000 A 
ATOM     14  N   UNL     1      10.931  24.324  29.706  0.00  0.00    +0.000 N 
ATOM     15  H   UNL     1      11.567  25.068  29.447  0.00  0.00    +0.000 HD
ENDROOT
BRANCH  14  16
ATOM     16  C   UNL     1       9.560  24.567  29.568  0.00  0.00    +0.000 A 
ATOM     17  C   UNL     1       9.056  24.946  28.317  0.00  0.00    +0.000 A 
ATOM     18  C   UNL     1       7.696  25.196  28.141  0.00  0.00    +0.000 A 
ATOM     19  F   UNL     1       7.253  25.557  26.928  0.00  0.00    +0.000 F 
ATOM     20  C   UNL     1       6.814  25.075  29.207  0.00  0.00    +0.000 A 
ATOM     21  C   UNL     1       7.306  24.700  30.449  0.00  0.00    +0.000 A 
ATOM     22  F   UNL     1       6.464  24.578  31.486  0.00  0.00    +0.000 F 
ATOM     23  C   UNL     1       8.663  24.448  30.632  0.00  0.00    +0.000 A 
BRANCH  20  24
ATOM     24  O   UNL     1       5.482  25.322  29.028  0.00  0.00    +0.000 OA
ATOM     25  H   UNL     1       5.370  26.282  28.889  0.00  0.00    +0.000 HD
ENDBRANCH  20  24
ENDBRANCH  14  16
BRANCH   2  26
ATOM     26  C   UNL     1       9.561  19.870  31.333  0.00  0.00    +0.000 C 
ATOM     27  C   UNL     1       8.029  19.872  31.282  0.00  0.00    +0.000 C 
BRANCH  27  28
ATOM     28  C   UNL     1       6.617  19.879  31.238  0.00  0.00    +0.000 C 
ATOM     29  C   UNL     1       5.888  21.134  30.868  0.00  0.00    +0.000 C 
ATOM     30  C   UNL     1       5.853  18.646  31.611  0.00  0.00    +0.000 C 
ENDBRANCH  27  28
ENDBRANCH   2  26
TORSDOF 4
ENDMDL
MODEL 2
REMARK VINA RESULT:      -5.6     19.393     23.241
REMARK  Name = 25023738_BI-D-1870.pdbqt.pdb
REMARK  4 active torsions:
REMARK  status: ('A' for Active; 'I' for Inactive)
REMARK    1  A    between atoms: N_2  and  C_26
REMARK    2  A    between atoms: N_14  and  C_16
REMARK    3  A    between atoms: C_20  and  O_24
REMARK    4  A    between atoms: C_27  and  C_28
REMARK                            x       y       z     vdW  Elec       q    Type
REMARK                         _______ _______ _______ _____ _____    ______ ____
ROOT
ATOM      1  O   UNL     1      -0.571  28.747   6.201  0.00  0.00    +0.000 OA
ATOM      2  N   UNL     1      -0.028  29.013   9.768  0.00  0.00    +0.000 N 
ATOM      3  N   UNL     1      -1.726  27.707   7.937  0.00  0.00    +0.000 N 
ATOM      4  N   UNL     1      -1.180  27.972  11.580  0.00  0.00    +0.000 NA
ATOM      5  N   UNL     1      -2.978  26.510  11.228  0.00  0.00    +0.000 NA
ATOM      6  C   UNL     1       0.161  29.237   8.422  0.00  0.00    +0.000 C 
ATOM      7  C   UNL     1      -1.041  28.156  10.247  0.00  0.00    +0.000 A 
ATOM      8  C   UNL     1      -0.729  28.556   7.411  0.00  0.00    +0.000 C 
ATOM      9  C   UNL     1      -1.863  27.524   9.340  0.00  0.00    +0.000 A 
ATOM     10  C   UNL     1       1.268  30.174   7.953  0.00  0.00    +0.000 C 
ATOM     11  C   UNL     1      -2.678  26.965   7.117  0.00  0.00    +0.000 C 
ATOM     12  C   UNL     1      -2.818  26.709   9.907  0.00  0.00    +0.000 A 
ATOM     13  C   UNL     1      -2.142  27.157  12.038  0.00  0.00    +0.000 A 
ATOM     14  N   UNL     1      -2.317  26.943  13.398  0.00  0.00    +0.000 N 
ATOM     15  H   UNL     1      -3.084  26.304  13.569  0.00  0.00    +0.000 HD
ENDROOT
BRANCH  14  16
ATOM     16  C   UNL     1      -1.635  27.445  14.511  0.00  0.00    +0.000 A 
ATOM     17  C   UNL     1      -0.243  27.295  14.584  0.00  0.00    +0.000 A 
ATOM     18  C   UNL     1       0.471  27.783  15.678  0.00  0.00    +0.000 A 
ATOM     19  F   UNL     1       1.802  27.619  15.710  0.00  0.00    +0.000 F 
ATOM     20  C   UNL     1      -0.186  28.427  16.717  0.00  0.00    +0.000 A 
ATOM     21  C   UNL     1      -1.564  28.579  16.653  0.00  0.00    +0.000 A 
ATOM     22  F   UNL     1      -2.210  29.200  17.650  0.00  0.00    +0.000 F 
ATOM     23  C   UNL     1      -2.284  28.096  15.564  0.00  0.00    +0.000 A 
BRANCH  20  24
ATOM     24  O   UNL     1       0.520  28.902  17.786  0.00  0.00    +0.000 OA
ATOM     25  H   UNL     1       1.147  29.576  17.459  0.00  0.00    +0.000 HD
ENDBRANCH  20  24
ENDBRANCH  14  16
BRANCH   2  26
ATOM     26  C   UNL     1       0.829  29.672  10.751  0.00  0.00    +0.000 C 
ATOM     27  C   UNL     1       1.733  30.364  11.778  0.00  0.00    +0.000 C 
BRANCH  27  28
ATOM     28  C   UNL     1       2.561  31.001  12.728  0.00  0.00    +0.000 C 
ATOM     29  C   UNL     1       3.575  32.008  12.278  0.00  0.00    +0.000 C 
ATOM     30  C   UNL     1       2.459  30.631  14.176  0.00  0.00    +0.000 C 
ENDBRANCH  27  28
ENDBRANCH   2  26
TORSDOF 4
ENDMDL
MODEL 3
REMARK VINA RESULT:      -5.6     17.993     22.374
REMARK  Name = 25023738_BI-D-1870.pdbqt.pdb
REMARK  4 active torsions:
REMARK  status: ('A' for Active; 'I' for Inactive)
REMARK    1  A    between atoms: N_2  and  C_26
REMARK    2  A    between atoms: N_14  and  C_16
REMARK    3  A    between atoms: C_20  and  O_24
REMARK    4  A    between atoms: C_27  and  C_28
REMARK                            x       y       z     vdW  Elec       q    Type
REMARK                         _______ _______ _______ _____ _____    ______ ____
ROOT
ATOM      1  O   UNL     1      23.295  14.832  26.255  0.00  0.00    +0.000 OA
ATOM      2  N   UNL     1      25.405  12.697  24.235  0.00  0.00    +0.000 N 
ATOM      3  N   UNL     1      23.257  12.512  26.050  0.00  0.00    +0.000 N 
ATOM      4  N   UNL     1      25.405  10.323  23.992  0.00  0.00    +0.000 NA
ATOM      5  N   UNL     1      23.890   8.959  25.148  0.00  0.00    +0.000 NA
ATOM      6  C   UNL     1      24.905  13.859  24.782  0.00  0.00    +0.000 C 
ATOM      7  C   UNL     1      24.874  11.431  24.559  0.00  0.00    +0.000 A 
ATOM      8  C   UNL     1      23.755  13.799  25.758  0.00  0.00    +0.000 C 
ATOM      9  C   UNL     1      23.825  11.356  25.448  0.00  0.00    +0.000 A 
ATOM     10  C   UNL     1      25.513  15.204  24.401  0.00  0.00    +0.000 C 
ATOM     11  C   UNL     1      22.152  12.256  26.967  0.00  0.00    +0.000 C 
ATOM     12  C   UNL     1      23.379  10.076  25.698  0.00  0.00    +0.000 A 
ATOM     13  C   UNL     1      24.903   9.118  24.299  0.00  0.00    +0.000 A 
ATOM     14  N   UNL     1      25.420   7.958  23.738  0.00  0.00    +0.000 N 
ATOM     15  H   UNL     1      24.927   7.141  24.075  0.00  0.00    +0.000 HD
ENDROOT
BRANCH  14  16
ATOM     16  C   UNL     1      26.461   7.754  22.825  0.00  0.00    +0.000 A 
ATOM     17  C   UNL     1      27.726   8.289  23.100  0.00  0.00    +0.000 A 
ATOM     18  C   UNL     1      28.787   8.106  22.215  0.00  0.00    +0.000 A 
ATOM     19  F   UNL     1      29.983   8.634  22.515  0.00  0.00    +0.000 F 
ATOM     20  C   UNL     1      28.607   7.388  21.040  0.00  0.00    +0.000 A 
ATOM     21  C   UNL     1      27.357   6.856  20.759  0.00  0.00    +0.000 A 
ATOM     22  F   UNL     1      27.171   6.160  19.628  0.00  0.00    +0.000 F 
ATOM     23  C   UNL     1      26.293   7.034  21.639  0.00  0.00    +0.000 A 
BRANCH  20  24
ATOM     24  O   UNL     1      29.651   7.213  20.176  0.00  0.00    +0.000 OA
ATOM     25  H   UNL     1      29.634   7.945  19.529  0.00  0.00    +0.000 HD
ENDBRANCH  20  24
ENDBRANCH  14  16
BRANCH   2  26
ATOM     26  C   UNL     1      26.519  12.749  23.292  0.00  0.00    +0.000 C 
ATOM     27  C   UNL     1      27.686  12.804  22.298  0.00  0.00    +0.000 C 
BRANCH  27  28
ATOM     28  C   UNL     1      28.764  12.855  21.386  0.00  0.00    +0.000 C 
ATOM     29  C   UNL     1      28.744  13.845  20.262  0.00  0.00    +0.000 C 
ATOM     30  C   UNL     1      29.897  11.885  21.516  0.00  0.00    +0.000 C 
ENDBRANCH  27  28
ENDBRANCH   2  26
TORSDOF 4
ENDMDL
MODEL 4
REMARK VINA RESULT:      -5.5      2.457      3.222
REMARK  Name = 25023738_BI-D-1870.pdbqt.pdb
REMARK  4 active torsions:
REMARK  status: ('A' for Active; 'I' for Inactive)
REMARK    1  A    between atoms: N_2  and  C_26
REMARK    2  A    between atoms: N_14  and  C_16
REMARK    3  A    between atoms: C_20  and  O_24
REMARK    4  A    between atoms: C_27  and  C_28
REMARK                            x       y       z     vdW  Elec       q    Type
REMARK                         _______ _______ _______ _____ _____    ______ ____
ROOT
ATOM      1  O   UNL     1      10.822  18.205  31.635  0.00  0.00    +0.000 OA
ATOM      2  N   UNL     1       9.831  21.553  30.686  0.00  0.00    +0.000 N 
ATOM      3  N   UNL     1      12.122  20.135  31.511  0.00  0.00    +0.000 N 
ATOM      4  N   UNL     1      11.120  23.555  30.543  0.00  0.00    +0.000 NA
ATOM      5  N   UNL     1      13.408  23.595  31.052  0.00  0.00    +0.000 NA
ATOM      6  C   UNL     1       9.710  20.206  30.951  0.00  0.00    +0.000 C 
ATOM      7  C   UNL     1      11.060  22.231  30.817  0.00  0.00    +0.000 A 
ATOM      8  C   UNL     1      10.915  19.413  31.395  0.00  0.00    +0.000 C 
ATOM      9  C   UNL     1      12.171  21.526  31.221  0.00  0.00    +0.000 A 
ATOM     10  C   UNL     1       8.359  19.516  30.796  0.00  0.00    +0.000 C 
ATOM     11  C   UNL     1      13.389  19.541  31.925  0.00  0.00    +0.000 C 
ATOM     12  C   UNL     1      13.322  22.278  31.318  0.00  0.00    +0.000 A 
ATOM     13  C   UNL     1      12.288  24.203  30.667  0.00  0.00    +0.000 A 
ATOM     14  N   UNL     1      12.390  25.561  30.396  0.00  0.00    +0.000 N 
ATOM     15  H   UNL     1      13.337  25.889  30.539  0.00  0.00    +0.000 HD
ENDROOT
BRANCH  14  16
ATOM     16  C   UNL     1      11.439  26.497  29.975  0.00  0.00    +0.000 A 
ATOM     17  C   UNL     1      11.592  27.112  28.725  0.00  0.00    +0.000 A 
ATOM     18  C   UNL     1      10.664  28.048  28.273  0.00  0.00    +0.000 A 
ATOM     19  F   UNL     1      10.846  28.615  27.071  0.00  0.00    +0.000 F 
ATOM     20  C   UNL     1       9.569  28.391  29.055  0.00  0.00    +0.000 A 
ATOM     21  C   UNL     1       9.412  27.787  30.295  0.00  0.00    +0.000 A 
ATOM     22  F   UNL     1       8.358  28.109  31.059  0.00  0.00    +0.000 F 
ATOM     23  C   UNL     1      10.333  26.850  30.753  0.00  0.00    +0.000 A 
BRANCH  20  24
ATOM     24  O   UNL     1       8.664  29.311  28.605  0.00  0.00    +0.000 OA
ATOM     25  H   UNL     1       8.568  29.192  27.641  0.00  0.00    +0.000 HD
ENDBRANCH  20  24
ENDBRANCH  14  16
BRANCH   2  26
ATOM     26  C   UNL     1       8.667  22.325  30.258  0.00  0.00    +0.000 C 
ATOM     27  C   UNL     1       7.444  23.132  29.805  0.00  0.00    +0.000 C 
BRANCH  27  28
ATOM     28  C   UNL     1       6.318  23.878  29.392  0.00  0.00    +0.000 C 
ATOM     29  C   UNL     1       6.499  25.074  28.508  0.00  0.00    +0.000 C 
ATOM     30  C   UNL     1       4.953  23.502  29.881  0.00  0.00    +0.000 C 
ENDBRANCH  27  28
ENDBRANCH   2  26
TORSDOF 4
ENDMDL
MODEL 5
REMARK VINA RESULT:      -5.2     25.260     26.920
REMARK  Name = 25023738_BI-D-1870.pdbqt.pdb
REMARK  4 active torsions:
REMARK  status: ('A' for Active; 'I' for Inactive)
REMARK    1  A    between atoms: N_2  and  C_26
REMARK    2  A    between atoms: N_14  and  C_16
REMARK    3  A    between atoms: C_20  and  O_24
REMARK    4  A    between atoms: C_27  and  C_28
REMARK                            x       y       z     vdW  Elec       q    Type
REMARK                         _______ _______ _______ _____ _____    ______ ____
ROOT
ATOM      1  O   UNL     1       3.138  16.914   1.734  0.00  0.00    +0.000 OA
ATOM      2  N   UNL     1       2.067  15.502   4.888  0.00  0.00    +0.000 N 
ATOM      3  N   UNL     1       4.147  15.243   3.005  0.00  0.00    +0.000 N 
ATOM      4  N   UNL     1       3.063  13.794   6.224  0.00  0.00    +0.000 NA
ATOM      5  N   UNL     1       5.049  12.723   5.588  0.00  0.00    +0.000 NA
ATOM      6  C   UNL     1       2.046  16.308   3.771  0.00  0.00    +0.000 C 
ATOM      7  C   UNL     1       3.093  14.559   5.109  0.00  0.00    +0.000 A 
ATOM      8  C   UNL     1       3.143  16.198   2.740  0.00  0.00    +0.000 C 
ATOM      9  C   UNL     1       4.103  14.444   4.180  0.00  0.00    +0.000 A 
ATOM     10  C   UNL     1       0.915  17.311   3.575  0.00  0.00    +0.000 C 
ATOM     11  C   UNL     1       5.285  14.993   2.126  0.00  0.00    +0.000 C 
ATOM     12  C   UNL     1       5.056  13.497   4.487  0.00  0.00    +0.000 A 
ATOM     13  C   UNL     1       4.037  12.897   6.437  0.00  0.00    +0.000 A 
ATOM     14  N   UNL     1       4.042  12.094   7.569  0.00  0.00    +0.000 N 
ATOM     15  H   UNL     1       4.845  11.477   7.572  0.00  0.00    +0.000 HD
ENDROOT
BRANCH  14  16
ATOM     16  C   UNL     1       3.158  12.010   8.650  0.00  0.00    +0.000 A 
ATOM     17  C   UNL     1       3.550  11.314   9.801  0.00  0.00    +0.000 A 
ATOM     18  C   UNL     1       2.696  11.209  10.898  0.00  0.00    +0.000 A 
ATOM     19  F   UNL     1       3.109  10.535  11.981  0.00  0.00    +0.000 F 
ATOM     20  C   UNL     1       1.437  11.793  10.869  0.00  0.00    +0.000 A 
ATOM     21  C   UNL     1       1.041  12.483   9.732  0.00  0.00    +0.000 A 
ATOM     22  F   UNL     1      -0.173  13.053   9.691  0.00  0.00    +0.000 F 
ATOM     23  C   UNL     1       1.888  12.593   8.633  0.00  0.00    +0.000 A 
BRANCH  20  24
ATOM     24  O   UNL     1       0.605  11.686  11.947  0.00  0.00    +0.000 OA
ATOM     25  H   UNL     1      -0.311  11.815  11.635  0.00  0.00    +0.000 HD
ENDBRANCH  20  24
ENDBRANCH  14  16
BRANCH   2  26
ATOM     26  C   UNL     1       1.007  15.603   5.888  0.00  0.00    +0.000 C 
ATOM     27  C   UNL     1      -0.110  15.710   6.933  0.00  0.00    +0.000 C 
BRANCH  27  28
ATOM     28  C   UNL     1      -1.136  15.808   7.900  0.00  0.00    +0.000 C 
ATOM     29  C   UNL     1      -2.548  15.477   7.525  0.00  0.00    +0.000 C 
ATOM     30  C   UNL     1      -0.816  16.290   9.281  0.00  0.00    +0.000 C 
ENDBRANCH  27  28
ENDBRANCH   2  26
TORSDOF 4
ENDMDL
MODEL 6
REMARK VINA RESULT:      -5.1     13.215     14.032
REMARK  Name = 25023738_BI-D-1870.pdbqt.pdb
REMARK  4 active torsions:
REMARK  status: ('A' for Active; 'I' for Inactive)
REMARK    1  A    between atoms: N_2  and  C_26
REMARK    2  A    between atoms: N_14  and  C_16
REMARK    3  A    between atoms: C_20  and  O_24
REMARK    4  A    between atoms: C_27  and  C_28
REMARK                            x       y       z     vdW  Elec       q    Type
REMARK                         _______ _______ _______ _____ _____    ______ ____
ROOT
ATOM      1  O   UNL     1      22.599  15.224  33.934  0.00  0.00    +0.000 OA
ATOM      2  N   UNL     1      22.632  16.189  30.447  0.00  0.00    +0.000 N 
ATOM      3  N   UNL     1      22.408  17.352  33.004  0.00  0.00    +0.000 N 
ATOM      4  N   UNL     1      22.441  18.347  29.448  0.00  0.00    +0.000 NA
ATOM      5  N   UNL     1      22.182  20.289  30.734  0.00  0.00    +0.000 NA
ATOM      6  C   UNL     1      22.677  15.364  31.550  0.00  0.00    +0.000 C 
ATOM      7  C   UNL     1      22.478  17.586  30.566  0.00  0.00    +0.000 A 
ATOM      8  C   UNL     1      22.560  15.950  32.936  0.00  0.00    +0.000 C 
ATOM      9  C   UNL     1      22.369  18.140  31.822  0.00  0.00    +0.000 A 
ATOM     10  C   UNL     1      22.844  13.859  31.371  0.00  0.00    +0.000 C 
ATOM     11  C   UNL     1      22.280  18.097  34.252  0.00  0.00    +0.000 C 
ATOM     12  C   UNL     1      22.223  19.510  31.831  0.00  0.00    +0.000 A 
ATOM     13  C   UNL     1      22.294  19.676  29.558  0.00  0.00    +0.000 A 
ATOM     14  N   UNL     1      22.251  20.491  28.435  0.00  0.00    +0.000 N 
ATOM     15  H   UNL     1      22.137  21.462  28.696  0.00  0.00    +0.000 HD
ENDROOT
BRANCH  14  16
ATOM     16  C   UNL     1      22.339  20.194  27.070  0.00  0.00    +0.000 A 
ATOM     17  C   UNL     1      22.961  21.110  26.211  0.00  0.00    +0.000 A 
ATOM     18  C   UNL     1      23.068  20.849  24.846  0.00  0.00    +0.000 A 
ATOM     19  F   UNL     1      23.671  21.750  24.057  0.00  0.00    +0.000 F 
ATOM     20  C   UNL     1      22.556  19.674  24.311  0.00  0.00    +0.000 A 
ATOM     21  C   UNL     1      21.937  18.763  25.155  0.00  0.00    +0.000 A 
ATOM     22  F   UNL     1      21.440  17.624  24.651  0.00  0.00    +0.000 F 
ATOM     23  C   UNL     1      21.828  19.016  26.520  0.00  0.00    +0.000 A 
BRANCH  20  24
ATOM     24  O   UNL     1      22.663  19.425  22.972  0.00  0.00    +0.000 OA
ATOM     25  H   UNL     1      22.189  18.593  22.781  0.00  0.00    +0.000 HD
ENDBRANCH  20  24
ENDBRANCH  14  16
BRANCH   2  26
ATOM     26  C   UNL     1      22.743  15.626  29.103  0.00  0.00    +0.000 C 
ATOM     27  C   UNL     1      22.856  15.030  27.695  0.00  0.00    +0.000 C 
BRANCH  27  28
ATOM     28  C   UNL     1      22.963  14.487  26.395  0.00  0.00    +0.000 C 
ATOM     29  C   UNL     1      23.926  15.082  25.414  0.00  0.00    +0.000 C 
ATOM     30  C   UNL     1      22.076  13.351  25.987  0.00  0.00    +0.000 C 
ENDBRANCH  27  28
ENDBRANCH   2  26
TORSDOF 4
ENDMDL
MODEL 7
REMARK VINA RESULT:      -5.1     22.819     25.185
REMARK  Name = 25023738_BI-D-1870.pdbqt.pdb
REMARK  4 active torsions:
REMARK  status: ('A' for Active; 'I' for Inactive)
REMARK    1  A    between atoms: N_2  and  C_26
REMARK    2  A    between atoms: N_14  and  C_16
REMARK    3  A    between atoms: C_20  and  O_24
REMARK    4  A    between atoms: C_27  and  C_28
REMARK                            x       y       z     vdW  Elec       q    Type
REMARK                         _______ _______ _______ _____ _____    ______ ____
ROOT
ATOM      1  O   UNL     1      29.464  21.612  20.231  0.00  0.00    +0.000 OA
ATOM      2  N   UNL     1      29.433  18.442  18.488  0.00  0.00    +0.000 N 
ATOM      3  N   UNL     1      29.355  21.205  17.940  0.00  0.00    +0.000 N 
ATOM      4  N   UNL     1      29.322  17.975  16.151  0.00  0.00    +0.000 NA
ATOM      5  N   UNL     1      29.208  19.683  14.550  0.00  0.00    +0.000 NA
ATOM      6  C   UNL     1      29.471  19.323  19.546  0.00  0.00    +0.000 C 
ATOM      7  C   UNL     1      29.356  18.885  17.151  0.00  0.00    +0.000 A 
ATOM      8  C   UNL     1      29.431  20.810  19.293  0.00  0.00    +0.000 C 
ATOM      9  C   UNL     1      29.318  20.238  16.898  0.00  0.00    +0.000 A 
ATOM     10  C   UNL     1      29.553  18.796  20.975  0.00  0.00    +0.000 C 
ATOM     11  C   UNL     1      29.307  22.595  17.500  0.00  0.00    +0.000 C 
ATOM     12  C   UNL     1      29.244  20.568  15.562  0.00  0.00    +0.000 A 
ATOM     13  C   UNL     1      29.248  18.393  14.878  0.00  0.00    +0.000 A 
ATOM     14  N   UNL     1      29.211  17.490  13.824  0.00  0.00    +0.000 N 
ATOM     15  H   UNL     1      29.157  17.972  12.936  0.00  0.00    +0.000 HD
ENDROOT
BRANCH  14  16
ATOM     16  C   UNL     1      29.239  16.091  13.800  0.00  0.00    +0.000 A 
ATOM     17  C   UNL     1      30.177  15.440  12.988  0.00  0.00    +0.000 A 
ATOM     18  C   UNL     1      30.234  14.048  12.938  0.00  0.00    +0.000 A 
ATOM     19  F   UNL     1      31.146  13.463  12.149  0.00  0.00    +0.000 F 
ATOM     20  C   UNL     1      29.359  13.280  13.694  0.00  0.00    +0.000 A 
ATOM     21  C   UNL     1      28.426  13.918  14.500  0.00  0.00    +0.000 A 
ATOM     22  F   UNL     1      27.576  13.186  15.236  0.00  0.00    +0.000 F 
ATOM     23  C   UNL     1      28.364  15.307  14.556  0.00  0.00    +0.000 A 
BRANCH  20  24
ATOM     24  O   UNL     1      29.420  11.916  13.640  0.00  0.00    +0.000 OA
ATOM     25  H   UNL     1      29.400  11.650  12.701  0.00  0.00    +0.000 HD
ENDBRANCH  20  24
ENDBRANCH  14  16
BRANCH   2  26
ATOM     26  C   UNL     1      29.470  17.001  18.729  0.00  0.00    +0.000 C 
ATOM     27  C   UNL     1      29.506  15.489  18.977  0.00  0.00    +0.000 C 
BRANCH  27  28
ATOM     28  C   UNL     1      29.542  14.096  19.210  0.00  0.00    +0.000 C 
ATOM     29  C   UNL     1      29.491  13.144  18.054  0.00  0.00    +0.000 C 
ATOM     30  C   UNL     1      29.579  13.575  20.614  0.00  0.00    +0.000 C 
ENDBRANCH  27  28
ENDBRANCH   2  26
TORSDOF 4
ENDMDL
MODEL 8
REMARK VINA RESULT:      -5.1     15.703     20.282
REMARK  Name = 25023738_BI-D-1870.pdbqt.pdb
REMARK  4 active torsions:
REMARK  status: ('A' for Active; 'I' for Inactive)
REMARK    1  A    between atoms: N_2  and  C_26
REMARK    2  A    between atoms: N_14  and  C_16
REMARK    3  A    between atoms: C_20  and  O_24
REMARK    4  A    between atoms: C_27  and  C_28
REMARK                            x       y       z     vdW  Elec       q    Type
REMARK                         _______ _______ _______ _____ _____    ______ ____
ROOT
ATOM      1  O   UNL     1      24.835  17.881  26.208  0.00  0.00    +0.000 OA
ATOM      2  N   UNL     1      25.589  14.435  25.405  0.00  0.00    +0.000 N 
ATOM      3  N   UNL     1      23.493  15.993  26.464  0.00  0.00    +0.000 N 
ATOM      4  N   UNL     1      24.253  12.473  25.648  0.00  0.00    +0.000 NA
ATOM      5  N   UNL     1      22.080  12.553  26.523  0.00  0.00    +0.000 NA
ATOM      6  C   UNL     1      25.778  15.794  25.529  0.00  0.00    +0.000 C 
ATOM      7  C   UNL     1      24.384  13.812  25.793  0.00  0.00    +0.000 A 
ATOM      8  C   UNL     1      24.679  16.661  26.092  0.00  0.00    +0.000 C 
ATOM      9  C   UNL     1      23.369  14.586  26.309  0.00  0.00    +0.000 A 
ATOM     10  C   UNL     1      27.099  16.422  25.097  0.00  0.00    +0.000 C 
ATOM     11  C   UNL     1      22.325  16.662  27.026  0.00  0.00    +0.000 C 
ATOM     12  C   UNL     1      22.235  13.884  26.656  0.00  0.00    +0.000 A 
ATOM     13  C   UNL     1      23.109  11.877  26.016  0.00  0.00    +0.000 A 
ATOM     14  N   UNL     1      22.936  10.506  25.884  0.00  0.00    +0.000 N 
ATOM     15  H   UNL     1      22.018  10.224  26.206  0.00  0.00    +0.000 HD
ENDROOT
BRANCH  14  16
ATOM     16  C   UNL     1      23.786   9.507  25.397  0.00  0.00    +0.000 A 
ATOM     17  C   UNL     1      23.929   8.318  26.125  0.00  0.00    +0.000 A 
ATOM     18  C   UNL     1      24.766   7.300  25.672  0.00  0.00    +0.000 A 
ATOM     19  F   UNL     1      24.877   6.178  26.397  0.00  0.00    +0.000 F 
ATOM     20  C   UNL     1      25.476   7.447  24.488  0.00  0.00    +0.000 A 
ATOM     21  C   UNL     1      25.340   8.622  23.761  0.00  0.00    +0.000 A 
ATOM     22  F   UNL     1      26.020   8.775  22.615  0.00  0.00    +0.000 F 
ATOM     23  C   UNL     1      24.505   9.642  24.207  0.00  0.00    +0.000 A 
BRANCH  20  24
ATOM     24  O   UNL     1      26.296   6.445  24.049  0.00  0.00    +0.000 OA
ATOM     25  H   UNL     1      26.107   6.293  23.103  0.00  0.00    +0.000 HD
ENDBRANCH  20  24
ENDBRANCH  14  16
BRANCH   2  26
ATOM     26  C   UNL     1      26.650  13.591  24.862  0.00  0.00    +0.000 C 
ATOM     27  C   UNL     1      27.765  12.702  24.298  0.00  0.00    +0.000 C 
BRANCH  27  28
ATOM     28  C   UNL     1      28.792  11.886  23.772  0.00  0.00    +0.000 C 
ATOM     29  C   UNL     1      29.936  12.509  23.033  0.00  0.00    +0.000 C 
ATOM     30  C   UNL     1      28.706  10.397  23.911  0.00  0.00    +0.000 C 
ENDBRANCH  27  28
ENDBRANCH   2  26
TORSDOF 4
ENDMDL
MODEL 9
REMARK VINA RESULT:      -5.0     16.643     19.505
REMARK  Name = 25023738_BI-D-1870.pdbqt.pdb
REMARK  4 active torsions:
REMARK  status: ('A' for Active; 'I' for Inactive)
REMARK    1  A    between atoms: N_2  and  C_26
REMARK    2  A    between atoms: N_14  and  C_16
REMARK    3  A    between atoms: C_20  and  O_24
REMARK    4  A    between atoms: C_27  and  C_28
REMARK                            x       y       z     vdW  Elec       q    Type
REMARK                         _______ _______ _______ _____ _____    ______ ____
ROOT
ATOM      1  O   UNL     1       3.683   0.848  21.370  0.00  0.00    +0.000 OA
ATOM      2  N   UNL     1       4.215   3.415  23.863  0.00  0.00    +0.000 N 
ATOM      3  N   UNL     1       5.263   0.919  23.081  0.00  0.00    +0.000 N 
ATOM      4  N   UNL     1       5.814   3.534  25.630  0.00  0.00    +0.000 NA
ATOM      5  N   UNL     1       7.384   1.833  25.997  0.00  0.00    +0.000 NA
ATOM      6  C   UNL     1       3.647   2.773  22.784  0.00  0.00    +0.000 C 
ATOM      7  C   UNL     1       5.296   2.859  24.578  0.00  0.00    +0.000 A 
ATOM      8  C   UNL     1       4.181   1.434  22.336  0.00  0.00    +0.000 C 
ATOM      9  C   UNL     1       5.797   1.638  24.185  0.00  0.00    +0.000 A 
ATOM     10  C   UNL     1       2.479   3.414  22.043  0.00  0.00    +0.000 C 
ATOM     11  C   UNL     1       5.911  -0.358  22.799  0.00  0.00    +0.000 C 
ATOM     12  C   UNL     1       6.851   1.181  24.946  0.00  0.00    +0.000 A 
ATOM     13  C   UNL     1       6.841   3.007  26.312  0.00  0.00    +0.000 A 
ATOM     14  N   UNL     1       7.401   3.669  27.397  0.00  0.00    +0.000 N 
ATOM     15  H   UNL     1       8.163   3.134  27.794  0.00  0.00    +0.000 HD
ENDROOT
BRANCH  14  16
ATOM     16  C   UNL     1       7.092   4.897  27.994  0.00  0.00    +0.000 A 
ATOM     17  C   UNL     1       8.010   5.474  28.882  0.00  0.00    +0.000 A 
ATOM     18  C   UNL     1       7.738   6.696  29.495  0.00  0.00    +0.000 A 
ATOM     19  F   UNL     1       8.641   7.215  30.338  0.00  0.00    +0.000 F 
ATOM     20  C   UNL     1       6.548   7.364  29.237  0.00  0.00    +0.000 A 
ATOM     21  C   UNL     1       5.634   6.798  28.360  0.00  0.00    +0.000 A 
ATOM     22  F   UNL     1       4.481   7.434  28.102  0.00  0.00    +0.000 F 
ATOM     23  C   UNL     1       5.899   5.579  27.742  0.00  0.00    +0.000 A 
BRANCH  20  24
ATOM     24  O   UNL     1       6.287   8.561  29.842  0.00  0.00    +0.000 OA
ATOM     25  H   UNL     1       5.376   8.529  30.193  0.00  0.00    +0.000 HD
ENDBRANCH  20  24
ENDBRANCH  14  16
BRANCH   2  26
ATOM     26  C   UNL     1       3.700   4.710  24.302  0.00  0.00    +0.000 C 
ATOM     27  C   UNL     1       3.155   6.068  24.760  0.00  0.00    +0.000 C 
BRANCH  27  28
ATOM     28  C   UNL     1       2.658   7.320  25.185  0.00  0.00    +0.000 C 
ATOM     29  C   UNL     1       3.263   8.583  24.653  0.00  0.00    +0.000 C 
ATOM     30  C   UNL     1       1.562   7.381  26.204  0.00  0.00    +0.000 C 
ENDBRANCH  27  28
ENDBRANCH   2  26
TORSDOF 4
ENDMDL
