MODEL 1
REMARK VINA RESULT:      -4.4      0.000      0.000
REMARK  Name = 26879_Levamisole.pdbqt.pdb
REMARK  1 active torsions:
REMARK  status: ('A' for Active; 'I' for Inactive)
REMARK    1  A    between atoms: C_5  and  C_9
REMARK                            x       y       z     vdW  Elec       q    Type
REMARK                         _______ _______ _______ _____ _____    ______ ____
ROOT
ATOM      1  S   UNL     1      30.826  17.973  13.181  0.00  0.00    +0.000 S 
ATOM      2  N   UNL     1      28.520  17.777  14.784  0.00  0.00    +0.000 NA
ATOM      3  N   UNL     1      29.616  15.727  14.051  0.00  0.00    +0.000 NA
ATOM      4  C   UNL     1      28.384  16.660  15.665  0.00  0.00    +0.000 C 
ATOM      5  C   UNL     1      28.918  15.454  15.182  0.00  0.00    +0.000 C 
ATOM      6  C   UNL     1      29.399  18.833  15.217  0.00  0.00    +0.000 C 
ATOM      7  C   UNL     1      29.441  17.065  13.833  0.00  0.00    +0.000 C 
ATOM      8  C   UNL     1      30.635  19.104  14.416  0.00  0.00    +0.000 C 
ENDROOT
BRANCH   5   9
ATOM      9  C   UNL     1      28.830  14.130  15.778  0.00  0.00    +0.000 A 
ATOM     10  C   UNL     1      28.269  13.052  15.085  0.00  0.00    +0.000 A 
ATOM     11  C   UNL     1      29.307  13.912  17.074  0.00  0.00    +0.000 A 
ATOM     12  C   UNL     1      28.188  11.789  15.670  0.00  0.00    +0.000 A 
ATOM     13  C   UNL     1      29.229  12.652  17.663  0.00  0.00    +0.000 A 
ATOM     14  C   UNL     1      28.669  11.590  16.960  0.00  0.00    +0.000 A 
ENDBRANCH   5   9
TORSDOF 1
ENDMDL
MODEL 2
REMARK VINA RESULT:      -4.3     12.850     13.717
REMARK  Name = 26879_Levamisole.pdbqt.pdb
REMARK  1 active torsions:
REMARK  status: ('A' for Active; 'I' for Inactive)
REMARK    1  A    between atoms: C_5  and  C_9
REMARK                            x       y       z     vdW  Elec       q    Type
REMARK                         _______ _______ _______ _____ _____    ______ ____
ROOT
ATOM      1  S   UNL     1      23.228  25.300  27.239  0.00  0.00    +0.000 S 
ATOM      2  N   UNL     1      24.671  23.958  25.228  0.00  0.00    +0.000 NA
ATOM      3  N   UNL     1      23.315  22.648  26.773  0.00  0.00    +0.000 NA
ATOM      4  C   UNL     1      24.146  22.737  24.700  0.00  0.00    +0.000 C 
ATOM      5  C   UNL     1      23.466  21.933  25.629  0.00  0.00    +0.000 C 
ATOM      6  C   UNL     1      24.067  25.175  24.748  0.00  0.00    +0.000 C 
ATOM      7  C   UNL     1      23.957  23.833  26.544  0.00  0.00    +0.000 C 
ATOM      8  C   UNL     1      23.325  26.035  25.724  0.00  0.00    +0.000 C 
ENDROOT
BRANCH   5   9
ATOM      9  C   UNL     1      22.933  20.592  25.437  0.00  0.00    +0.000 A 
ATOM     10  C   UNL     1      22.830  20.023  24.164  0.00  0.00    +0.000 A 
ATOM     11  C   UNL     1      22.506  19.844  26.537  0.00  0.00    +0.000 A 
ATOM     12  C   UNL     1      22.315  18.739  23.993  0.00  0.00    +0.000 A 
ATOM     13  C   UNL     1      21.990  18.560  26.372  0.00  0.00    +0.000 A 
ATOM     14  C   UNL     1      21.895  18.008  25.099  0.00  0.00    +0.000 A 
ENDBRANCH   5   9
TORSDOF 1
ENDMDL
MODEL 3
REMARK VINA RESULT:      -4.2     32.888     34.009
REMARK  Name = 26879_Levamisole.pdbqt.pdb
REMARK  1 active torsions:
REMARK  status: ('A' for Active; 'I' for Inactive)
REMARK    1  A    between atoms: C_5  and  C_9
REMARK                            x       y       z     vdW  Elec       q    Type
REMARK                         _______ _______ _______ _____ _____    ______ ____
ROOT
ATOM      1  S   UNL     1      -5.882  26.917  18.716  0.00  0.00    +0.000 S 
ATOM      2  N   UNL     1      -3.173  27.486  19.229  0.00  0.00    +0.000 NA
ATOM      3  N   UNL     1      -3.728  25.963  17.409  0.00  0.00    +0.000 NA
ATOM      4  C   UNL     1      -2.246  27.466  18.141  0.00  0.00    +0.000 C 
ATOM      5  C   UNL     1      -2.510  26.503  17.153  0.00  0.00    +0.000 C 
ATOM      6  C   UNL     1      -4.008  28.655  19.339  0.00  0.00    +0.000 C 
ATOM      7  C   UNL     1      -4.147  26.550  18.570  0.00  0.00    +0.000 C 
ATOM      8  C   UNL     1      -5.486  28.494  19.162  0.00  0.00    +0.000 C 
ENDROOT
BRANCH   5   9
ATOM      9  C   UNL     1      -1.695  26.152  16.000  0.00  0.00    +0.000 A 
ATOM     10  C   UNL     1      -0.850  27.086  15.392  0.00  0.00    +0.000 A 
ATOM     11  C   UNL     1      -1.748  24.859  15.472  0.00  0.00    +0.000 A 
ATOM     12  C   UNL     1      -0.076  26.738  14.286  0.00  0.00    +0.000 A 
ATOM     13  C   UNL     1      -0.977  24.505  14.367  0.00  0.00    +0.000 A 
ATOM     14  C   UNL     1      -0.141  25.446  13.774  0.00  0.00    +0.000 A 
ENDBRANCH   5   9
TORSDOF 1
ENDMDL
MODEL 4
REMARK VINA RESULT:      -4.2     23.741     24.696
REMARK  Name = 26879_Levamisole.pdbqt.pdb
REMARK  1 active torsions:
REMARK  status: ('A' for Active; 'I' for Inactive)
REMARK    1  A    between atoms: C_5  and  C_9
REMARK                            x       y       z     vdW  Elec       q    Type
REMARK                         _______ _______ _______ _____ _____    ______ ____
ROOT
ATOM      1  S   UNL     1      14.982  35.815  19.608  0.00  0.00    +0.000 S 
ATOM      2  N   UNL     1      14.649  33.020  19.621  0.00  0.00    +0.000 NA
ATOM      3  N   UNL     1      14.484  34.231  21.730  0.00  0.00    +0.000 NA
ATOM      4  C   UNL     1      13.790  32.431  20.601  0.00  0.00    +0.000 C 
ATOM      5  C   UNL     1      13.792  33.070  21.852  0.00  0.00    +0.000 C 
ATOM      6  C   UNL     1      14.003  33.643  18.493  0.00  0.00    +0.000 C 
ATOM      7  C   UNL     1      14.942  34.244  20.442  0.00  0.00    +0.000 C 
ATOM      8  C   UNL     1      14.154  35.121  18.314  0.00  0.00    +0.000 C 
ENDROOT
BRANCH   5   9
ATOM      9  C   UNL     1      13.130  32.648  23.077  0.00  0.00    +0.000 A 
ATOM     10  C   UNL     1      11.830  32.134  23.065  0.00  0.00    +0.000 A 
ATOM     11  C   UNL     1      13.792  32.755  24.303  0.00  0.00    +0.000 A 
ATOM     12  C   UNL     1      11.206  31.736  24.247  0.00  0.00    +0.000 A 
ATOM     13  C   UNL     1      13.174  32.358  25.488  0.00  0.00    +0.000 A 
ATOM     14  C   UNL     1      11.881  31.848  25.458  0.00  0.00    +0.000 A 
ENDBRANCH   5   9
TORSDOF 1
ENDMDL
MODEL 5
REMARK VINA RESULT:      -4.0     20.503     21.313
REMARK  Name = 26879_Levamisole.pdbqt.pdb
REMARK  1 active torsions:
REMARK  status: ('A' for Active; 'I' for Inactive)
REMARK    1  A    between atoms: C_5  and  C_9
REMARK                            x       y       z     vdW  Elec       q    Type
REMARK                         _______ _______ _______ _____ _____    ______ ____
ROOT
ATOM      1  S   UNL     1      17.769  19.899  31.853  0.00  0.00    +0.000 S 
ATOM      2  N   UNL     1      17.170  17.200  31.325  0.00  0.00    +0.000 NA
ATOM      3  N   UNL     1      15.338  18.800  31.481  0.00  0.00    +0.000 NA
ATOM      4  C   UNL     1      16.016  16.889  30.540  0.00  0.00    +0.000 C 
ATOM      5  C   UNL     1      14.923  17.751  30.725  0.00  0.00    +0.000 C 
ATOM      6  C   UNL     1      18.333  17.653  30.605  0.00  0.00    +0.000 C 
ATOM      7  C   UNL     1      16.640  18.525  31.794  0.00  0.00    +0.000 C 
ATOM      8  C   UNL     1      18.816  19.051  30.840  0.00  0.00    +0.000 C 
ENDROOT
BRANCH   5   9
ATOM      9  C   UNL     1      13.581  17.632  30.174  0.00  0.00    +0.000 A 
ATOM     10  C   UNL     1      12.692  18.710  30.177  0.00  0.00    +0.000 A 
ATOM     11  C   UNL     1      13.154  16.417  29.630  0.00  0.00    +0.000 A 
ATOM     12  C   UNL     1      11.408  18.581  29.648  0.00  0.00    +0.000 A 
ATOM     13  C   UNL     1      11.872  16.282  29.101  0.00  0.00    +0.000 A 
ATOM     14  C   UNL     1      10.999  17.365  29.110  0.00  0.00    +0.000 A 
ENDBRANCH   5   9
TORSDOF 1
ENDMDL
MODEL 6
REMARK VINA RESULT:      -3.8      3.204      3.513
REMARK  Name = 26879_Levamisole.pdbqt.pdb
REMARK  1 active torsions:
REMARK  status: ('A' for Active; 'I' for Inactive)
REMARK    1  A    between atoms: C_5  and  C_9
REMARK                            x       y       z     vdW  Elec       q    Type
REMARK                         _______ _______ _______ _____ _____    ______ ____
ROOT
ATOM      1  S   UNL     1      31.161  17.650  20.271  0.00  0.00    +0.000 S 
ATOM      2  N   UNL     1      29.845  18.134  17.830  0.00  0.00    +0.000 NA
ATOM      3  N   UNL     1      30.651  15.882  18.303  0.00  0.00    +0.000 NA
ATOM      4  C   UNL     1      29.096  17.074  17.227  0.00  0.00    +0.000 C 
ATOM      5  C   UNL     1      29.635  15.790  17.408  0.00  0.00    +0.000 C 
ATOM      6  C   UNL     1      29.218  18.815  18.933  0.00  0.00    +0.000 C 
ATOM      7  C   UNL     1      30.754  17.214  18.594  0.00  0.00    +0.000 C 
ATOM      8  C   UNL     1      29.849  18.709  20.287  0.00  0.00    +0.000 C 
ENDROOT
BRANCH   5   9
ATOM      9  C   UNL     1      29.183  14.537  16.823  0.00  0.00    +0.000 A 
ATOM     10  C   UNL     1      28.551  14.499  15.576  0.00  0.00    +0.000 A 
ATOM     11  C   UNL     1      29.373  13.334  17.509  0.00  0.00    +0.000 A 
ATOM     12  C   UNL     1      28.120  13.291  15.028  0.00  0.00    +0.000 A 
ATOM     13  C   UNL     1      28.945  12.124  16.966  0.00  0.00    +0.000 A 
ATOM     14  C   UNL     1      28.319  12.104  15.725  0.00  0.00    +0.000 A 
ENDBRANCH   5   9
TORSDOF 1
ENDMDL
MODEL 7
REMARK VINA RESULT:      -3.8     17.383     18.829
REMARK  Name = 26879_Levamisole.pdbqt.pdb
REMARK  1 active torsions:
REMARK  status: ('A' for Active; 'I' for Inactive)
REMARK    1  A    between atoms: C_5  and  C_9
REMARK                            x       y       z     vdW  Elec       q    Type
REMARK                         _______ _______ _______ _____ _____    ______ ____
ROOT
ATOM      1  S   UNL     1      21.829  -1.830  11.585  0.00  0.00    +0.000 S 
ATOM      2  N   UNL     1      19.312  -1.687  12.837  0.00  0.00    +0.000 NA
ATOM      3  N   UNL     1      21.314  -1.718  14.228  0.00  0.00    +0.000 NA
ATOM      4  C   UNL     1      19.201  -1.004  14.088  0.00  0.00    +0.000 C 
ATOM      5  C   UNL     1      20.317  -1.125  14.933  0.00  0.00    +0.000 C 
ATOM      6  C   UNL     1      19.385  -0.861  11.659  0.00  0.00    +0.000 C 
ATOM      7  C   UNL     1      20.772  -2.003  13.006  0.00  0.00    +0.000 C 
ATOM      8  C   UNL     1      20.642  -0.889  10.847  0.00  0.00    +0.000 C 
ENDROOT
BRANCH   5   9
ATOM      9  C   UNL     1      20.461  -0.658  16.303  0.00  0.00    +0.000 A 
ATOM     10  C   UNL     1      19.731  -1.228  17.350  0.00  0.00    +0.000 A 
ATOM     11  C   UNL     1      21.342   0.387  16.597  0.00  0.00    +0.000 A 
ATOM     12  C   UNL     1      19.876  -0.768  18.658  0.00  0.00    +0.000 A 
ATOM     13  C   UNL     1      21.492   0.850  17.903  0.00  0.00    +0.000 A 
ATOM     14  C   UNL     1      20.759   0.272  18.933  0.00  0.00    +0.000 A 
ENDBRANCH   5   9
TORSDOF 1
ENDMDL
MODEL 8
REMARK VINA RESULT:      -3.8     24.432     25.507
REMARK  Name = 26879_Levamisole.pdbqt.pdb
REMARK  1 active torsions:
REMARK  status: ('A' for Active; 'I' for Inactive)
REMARK    1  A    between atoms: C_5  and  C_9
REMARK                            x       y       z     vdW  Elec       q    Type
REMARK                         _______ _______ _______ _____ _____    ______ ____
ROOT
ATOM      1  S   UNL     1       8.751  14.230  31.779  0.00  0.00    +0.000 S 
ATOM      2  N   UNL     1      10.325  15.398  29.759  0.00  0.00    +0.000 NA
ATOM      3  N   UNL     1       8.637  16.763  30.869  0.00  0.00    +0.000 NA
ATOM      4  C   UNL     1      10.618  16.796  29.834  0.00  0.00    +0.000 C 
ATOM      5  C   UNL     1       9.590  17.590  30.368  0.00  0.00    +0.000 C 
ATOM      6  C   UNL     1      11.093  14.535  30.621  0.00  0.00    +0.000 C 
ATOM      7  C   UNL     1       9.066  15.499  30.573  0.00  0.00    +0.000 C 
ATOM      8  C   UNL     1      10.375  13.787  31.701  0.00  0.00    +0.000 C 
ENDROOT
BRANCH   5   9
ATOM      9  C   UNL     1       9.532  19.041  30.461  0.00  0.00    +0.000 A 
ATOM     10  C   UNL     1      10.679  19.805  30.700  0.00  0.00    +0.000 A 
ATOM     11  C   UNL     1       8.310  19.704  30.314  0.00  0.00    +0.000 A 
ATOM     12  C   UNL     1      10.609  21.194  30.789  0.00  0.00    +0.000 A 
ATOM     13  C   UNL     1       8.234  21.092  30.402  0.00  0.00    +0.000 A 
ATOM     14  C   UNL     1       9.384  21.837  30.639  0.00  0.00    +0.000 A 
ENDBRANCH   5   9
TORSDOF 1
ENDMDL
MODEL 9
REMARK VINA RESULT:      -3.7     17.320     19.520
REMARK  Name = 26879_Levamisole.pdbqt.pdb
REMARK  1 active torsions:
REMARK  status: ('A' for Active; 'I' for Inactive)
REMARK    1  A    between atoms: C_5  and  C_9
REMARK                            x       y       z     vdW  Elec       q    Type
REMARK                         _______ _______ _______ _____ _____    ______ ____
ROOT
ATOM      1  S   UNL     1      21.203  -1.027  23.322  0.00  0.00    +0.000 S 
ATOM      2  N   UNL     1      18.872  -1.257  21.760  0.00  0.00    +0.000 NA
ATOM      3  N   UNL     1      20.769  -0.017  20.862  0.00  0.00    +0.000 NA
ATOM      4  C   UNL     1      18.995  -1.269  20.335  0.00  0.00    +0.000 C 
ATOM      5  C   UNL     1      20.019  -0.457  19.821  0.00  0.00    +0.000 C 
ATOM      6  C   UNL     1      19.197  -2.484  22.442  0.00  0.00    +0.000 C 
ATOM      7  C   UNL     1      20.155  -0.506  21.981  0.00  0.00    +0.000 C 
ATOM      8  C   UNL     1      20.373  -2.494  23.368  0.00  0.00    +0.000 C 
ENDROOT
BRANCH   5   9
ATOM      9  C   UNL     1      20.316  -0.161  18.427  0.00  0.00    +0.000 A 
ATOM     10  C   UNL     1      19.490  -0.612  17.393  0.00  0.00    +0.000 A 
ATOM     11  C   UNL     1      21.449   0.587  18.096  0.00  0.00    +0.000 A 
ATOM     12  C   UNL     1      19.788  -0.324  16.062  0.00  0.00    +0.000 A 
ATOM     13  C   UNL     1      21.752   0.878  16.768  0.00  0.00    +0.000 A 
ATOM     14  C   UNL     1      20.920   0.422  15.751  0.00  0.00    +0.000 A 
ENDBRANCH   5   9
TORSDOF 1
ENDMDL
