MODEL 1
REMARK VINA RESULT:      -4.5      0.000      0.000
REMARK  Name = 27924_Phorbol.pdbqt.pdb
REMARK  26 active torsions:
REMARK  status: ('A' for Active; 'I' for Inactive)
REMARK    1  A    between atoms: O_1  and  C_10
REMARK    2  A    between atoms: O_1  and  C_26
REMARK    3  A    between atoms: O_2  and  C_13
REMARK    4  A    between atoms: O_2  and  C_28
REMARK    5  A    between atoms: O_3  and  C_14
REMARK    6  A    between atoms: O_4  and  C_20
REMARK    7  A    between atoms: O_7  and  C_29
REMARK    8  A    between atoms: C_11  and  C_16
REMARK    9  A    between atoms: C_11  and  C_17
REMARK   10  A    between atoms: C_15  and  C_21
REMARK   11  A    between atoms: C_22  and  C_29
REMARK   12  A    between atoms: C_26  and  C_30
REMARK   13  A    between atoms: C_27  and  C_31
REMARK   14  A    between atoms: C_28  and  C_32
REMARK   15  A    between atoms: C_32  and  C_33
REMARK   16  A    between atoms: C_33  and  C_34
REMARK   17  A    between atoms: C_34  and  C_35
REMARK   18  A    between atoms: C_35  and  C_36
REMARK   19  A    between atoms: C_36  and  C_37
REMARK   20  A    between atoms: C_37  and  C_38
REMARK   21  A    between atoms: C_38  and  C_39
REMARK   22  A    between atoms: C_39  and  C_40
REMARK   23  A    between atoms: C_40  and  C_41
REMARK   24  A    between atoms: C_41  and  C_42
REMARK   25  A    between atoms: C_42  and  C_43
REMARK   26  A    between atoms: C_43  and  C_44
REMARK                            x       y       z     vdW  Elec       q    Type
REMARK                         _______ _______ _______ _____ _____    ______ ____
ROOT
ATOM      1  O   UNL     1       2.747  21.265  32.937  0.00  0.00    +0.000 OA
ATOM      2  C   UNL     1       7.977  25.664  31.024  0.00  0.00    +0.000 C 
ATOM      3  C   UNL     1       9.355  25.110  30.717  0.00  0.00    +0.000 C 
ATOM      4  C   UNL     1       9.090  25.914  32.022  0.00  0.00    +0.000 C 
ATOM      5  C   UNL     1       6.782  24.760  31.092  0.00  0.00    +0.000 C 
ATOM      6  C   UNL     1       9.499  23.577  30.662  0.00  0.00    +0.000 C 
ATOM      7  C   UNL     1       7.032  23.189  31.233  0.00  0.00    +0.000 C 
ATOM      8  C   UNL     1       8.173  22.892  30.181  0.00  0.00    +0.000 C 
ATOM      9  C   UNL     1       9.530  27.365  32.115  0.00  0.00    +0.000 C 
ATOM     10  C   UNL     1       9.080  25.257  33.380  0.00  0.00    +0.000 C 
ATOM     11  C   UNL     1       5.620  22.425  31.082  0.00  0.00    +0.000 C 
ATOM     12  C   UNL     1       5.685  25.276  32.003  0.00  0.00    +0.000 C 
ATOM     13  C   UNL     1       4.569  22.719  32.243  0.00  0.00    +0.000 C 
ATOM     14  C   UNL     1       8.423  21.417  29.865  0.00  0.00    +0.000 C 
ATOM     15  C   UNL     1       4.420  25.147  31.547  0.00  0.00    +0.000 C 
ATOM     16  C   UNL     1       3.644  23.940  32.043  0.00  0.00    +0.000 C 
ATOM     17  C   UNL     1       5.582  20.902  31.072  0.00  0.00    +0.000 C 
ATOM     18  C   UNL     1       3.790  21.424  32.320  0.00  0.00    +0.000 C 
ATOM     19  C   UNL     1       4.539  20.332  31.689  0.00  0.00    +0.000 C 
ATOM     20  C   UNL     1       4.142  18.912  31.798  0.00  0.00    +0.000 C 
ENDROOT
BRANCH   7  21
ATOM     21  O   UNL     1       7.573  22.841  32.515  0.00  0.00    +0.000 OA
ATOM     22  H   UNL     1       6.855  22.426  33.042  0.00  0.00    +0.000 HD
ENDBRANCH   7  21
BRANCH  13  23
ATOM     23  O   UNL     1       5.216  22.798  33.536  0.00  0.00    +0.000 OA
ATOM     24  H   UNL     1       5.493  21.885  33.758  0.00  0.00    +0.000 HD
ENDBRANCH  13  23
BRANCH   3  25
ATOM     25  O   UNL     1       9.916  25.803  29.572  0.00  0.00    +0.000 OA
BRANCH  25  27
ATOM     26  O   UNL     1       9.122  27.599  28.482  0.00  0.00    +0.000 OA
ATOM     27  C   UNL     1       9.189  26.375  28.578  0.00  0.00    +0.000 C 
ATOM     28  C   UNL     1       8.543  25.490  27.555  0.00  0.00    +0.000 C 
ENDBRANCH  25  27
ENDBRANCH   3  25
BRANCH  15  29
ATOM     29  C   UNL     1       3.949  25.714  30.234  0.00  0.00    +0.000 C 
BRANCH  29  30
ATOM     30  O   UNL     1       2.532  25.758  30.252  0.00  0.00    +0.000 OA
ATOM     31  H   UNL     1       2.246  25.227  31.016  0.00  0.00    +0.000 HD
ENDBRANCH  29  30
ENDBRANCH  15  29
BRANCH   6  32
ATOM     32  O   UNL     1      10.581  23.263  29.744  0.00  0.00    +0.000 OA
BRANCH  32  34
ATOM     33  O   UNL     1      12.741  23.726  30.095  0.00  0.00    +0.000 OA
ATOM     34  C   UNL     1      11.834  22.897  30.101  0.00  0.00    +0.000 C 
BRANCH  34  35
ATOM     35  C   UNL     1      12.102  21.469  30.505  0.00  0.00    +0.000 C 
BRANCH  35  36
ATOM     36  C   UNL     1      13.143  20.815  29.605  0.00  0.00    +0.000 C 
BRANCH  36  37
ATOM     37  C   UNL     1      12.982  19.298  29.457  0.00  0.00    +0.000 C 
BRANCH  37  38
ATOM     38  C   UNL     1      12.412  18.597  30.697  0.00  0.00    +0.000 C 
BRANCH  38  39
ATOM     39  C   UNL     1      12.541  17.072  30.620  0.00  0.00    +0.000 C 
BRANCH  39  40
ATOM     40  C   UNL     1      11.194  16.345  30.602  0.00  0.00    +0.000 C 
BRANCH  40  41
ATOM     41  C   UNL     1      10.018  17.268  30.272  0.00  0.00    +0.000 C 
BRANCH  41  42
ATOM     42  C   UNL     1       8.730  16.897  31.014  0.00  0.00    +0.000 C 
BRANCH  42  43
ATOM     43  C   UNL     1       7.790  18.061  31.340  0.00  0.00    +0.000 C 
BRANCH  43  44
ATOM     44  C   UNL     1       7.664  18.413  32.826  0.00  0.00    +0.000 C 
BRANCH  44  45
ATOM     45  C   UNL     1       8.980  18.715  33.549  0.00  0.00    +0.000 C 
BRANCH  45  46
ATOM     46  C   UNL     1       9.709  19.984  33.102  0.00  0.00    +0.000 C 
ATOM     47  C   UNL     1      11.081  20.149  33.736  0.00  0.00    +0.000 C 
ENDBRANCH  45  46
ENDBRANCH  44  45
ENDBRANCH  43  44
ENDBRANCH  42  43
ENDBRANCH  41  42
ENDBRANCH  40  41
ENDBRANCH  39  40
ENDBRANCH  38  39
ENDBRANCH  37  38
ENDBRANCH  36  37
ENDBRANCH  35  36
ENDBRANCH  34  35
ENDBRANCH  32  34
ENDBRANCH   6  32
TORSDOF 20
ENDMDL
MODEL 2
REMARK VINA RESULT:      -4.4      1.218      2.535
REMARK  Name = 27924_Phorbol.pdbqt.pdb
REMARK  26 active torsions:
REMARK  status: ('A' for Active; 'I' for Inactive)
REMARK    1  A    between atoms: O_1  and  C_10
REMARK    2  A    between atoms: O_1  and  C_26
REMARK    3  A    between atoms: O_2  and  C_13
REMARK    4  A    between atoms: O_2  and  C_28
REMARK    5  A    between atoms: O_3  and  C_14
REMARK    6  A    between atoms: O_4  and  C_20
REMARK    7  A    between atoms: O_7  and  C_29
REMARK    8  A    between atoms: C_11  and  C_16
REMARK    9  A    between atoms: C_11  and  C_17
REMARK   10  A    between atoms: C_15  and  C_21
REMARK   11  A    between atoms: C_22  and  C_29
REMARK   12  A    between atoms: C_26  and  C_30
REMARK   13  A    between atoms: C_27  and  C_31
REMARK   14  A    between atoms: C_28  and  C_32
REMARK   15  A    between atoms: C_32  and  C_33
REMARK   16  A    between atoms: C_33  and  C_34
REMARK   17  A    between atoms: C_34  and  C_35
REMARK   18  A    between atoms: C_35  and  C_36
REMARK   19  A    between atoms: C_36  and  C_37
REMARK   20  A    between atoms: C_37  and  C_38
REMARK   21  A    between atoms: C_38  and  C_39
REMARK   22  A    between atoms: C_39  and  C_40
REMARK   23  A    between atoms: C_40  and  C_41
REMARK   24  A    between atoms: C_41  and  C_42
REMARK   25  A    between atoms: C_42  and  C_43
REMARK   26  A    between atoms: C_43  and  C_44
REMARK                            x       y       z     vdW  Elec       q    Type
REMARK                         _______ _______ _______ _____ _____    ______ ____
ROOT
ATOM      1  O   UNL     1       2.948  20.352  32.864  0.00  0.00    +0.000 OA
ATOM      2  C   UNL     1       7.415  25.217  30.266  0.00  0.00    +0.000 C 
ATOM      3  C   UNL     1       8.891  24.894  30.137  0.00  0.00    +0.000 C 
ATOM      4  C   UNL     1       8.381  25.875  31.230  0.00  0.00    +0.000 C 
ATOM      5  C   UNL     1       6.405  24.128  30.477  0.00  0.00    +0.000 C 
ATOM      6  C   UNL     1       9.318  23.440  30.415  0.00  0.00    +0.000 C 
ATOM      7  C   UNL     1       6.928  22.698  30.958  0.00  0.00    +0.000 C 
ATOM      8  C   UNL     1       8.183  22.425  30.038  0.00  0.00    +0.000 C 
ATOM      9  C   UNL     1       8.537  27.374  31.031  0.00  0.00    +0.000 C 
ATOM     10  C   UNL     1       8.384  25.515  32.696  0.00  0.00    +0.000 C 
ATOM     11  C   UNL     1       5.697  21.658  30.918  0.00  0.00    +0.000 C 
ATOM     12  C   UNL     1       5.163  24.592  31.215  0.00  0.00    +0.000 C 
ATOM     13  C   UNL     1       4.521  21.966  31.948  0.00  0.00    +0.000 C 
ATOM     14  C   UNL     1       8.724  20.995  30.053  0.00  0.00    +0.000 C 
ATOM     15  C   UNL     1       3.984  24.128  30.748  0.00  0.00    +0.000 C 
ATOM     16  C   UNL     1       3.406  22.916  31.458  0.00  0.00    +0.000 C 
ATOM     17  C   UNL     1       5.940  20.186  31.230  0.00  0.00    +0.000 C 
ATOM     18  C   UNL     1       3.989  20.586  32.268  0.00  0.00    +0.000 C 
ATOM     19  C   UNL     1       4.974  19.558  31.912  0.00  0.00    +0.000 C 
ATOM     20  C   UNL     1       4.837  18.139  32.305  0.00  0.00    +0.000 C 
ENDROOT
BRANCH   7  21
ATOM     21  O   UNL     1       7.420  22.727  32.305  0.00  0.00    +0.000 OA
ATOM     22  H   UNL     1       7.924  23.563  32.423  0.00  0.00    +0.000 HD
ENDBRANCH   7  21
BRANCH  13  23
ATOM     23  O   UNL     1       5.038  22.429  33.220  0.00  0.00    +0.000 OA
ATOM     24  H   UNL     1       4.805  21.739  33.875  0.00  0.00    +0.000 HD
ENDBRANCH  13  23
BRANCH   3  25
ATOM     25  O   UNL     1       9.403  25.440  28.894  0.00  0.00    +0.000 OA
BRANCH  25  27
ATOM     26  O   UNL     1       8.071  24.412  27.407  0.00  0.00    +0.000 OA
ATOM     27  C   UNL     1       8.761  25.386  27.699  0.00  0.00    +0.000 C 
ATOM     28  C   UNL     1       8.843  26.570  26.782  0.00  0.00    +0.000 C 
ENDBRANCH  25  27
ENDBRANCH   3  25
BRANCH  15  29
ATOM     29  C   UNL     1       3.522  24.316  29.327  0.00  0.00    +0.000 C 
BRANCH  29  30
ATOM     30  O   UNL     1       2.271  24.982  29.352  0.00  0.00    +0.000 OA
ATOM     31  H   UNL     1       1.673  24.477  28.772  0.00  0.00    +0.000 HD
ENDBRANCH  29  30
ENDBRANCH  15  29
BRANCH   6  32
ATOM     32  O   UNL     1      10.509  23.166  29.627  0.00  0.00    +0.000 OA
BRANCH  32  34
ATOM     33  O   UNL     1      12.515  24.064  30.045  0.00  0.00    +0.000 OA
ATOM     34  C   UNL     1      11.770  23.089  30.110  0.00  0.00    +0.000 C 
BRANCH  34  35
ATOM     35  C   UNL     1      12.249  21.798  30.726  0.00  0.00    +0.000 C 
BRANCH  35  36
ATOM     36  C   UNL     1      12.509  21.949  32.220  0.00  0.00    +0.000 C 
BRANCH  36  37
ATOM     37  C   UNL     1      11.747  20.947  33.095  0.00  0.00    +0.000 C 
BRANCH  37  38
ATOM     38  C   UNL     1      10.361  21.426  33.547  0.00  0.00    +0.000 C 
BRANCH  38  39
ATOM     39  C   UNL     1       9.599  20.356  34.336  0.00  0.00    +0.000 C 
BRANCH  39  40
ATOM     40  C   UNL     1       8.741  19.443  33.456  0.00  0.00    +0.000 C 
BRANCH  40  41
ATOM     41  C   UNL     1       8.911  17.958  33.786  0.00  0.00    +0.000 C 
BRANCH  41  42
ATOM     42  C   UNL     1       9.752  17.200  32.754  0.00  0.00    +0.000 C 
BRANCH  42  43
ATOM     43  C   UNL     1      10.266  18.031  31.575  0.00  0.00    +0.000 C 
BRANCH  43  44
ATOM     44  C   UNL     1       9.838  17.544  30.187  0.00  0.00    +0.000 C 
BRANCH  44  45
ATOM     45  C   UNL     1      10.978  17.238  29.212  0.00  0.00    +0.000 C 
BRANCH  45  46
ATOM     46  C   UNL     1      11.740  15.935  29.466  0.00  0.00    +0.000 C 
ATOM     47  C   UNL     1      13.211  16.010  29.088  0.00  0.00    +0.000 C 
ENDBRANCH  45  46
ENDBRANCH  44  45
ENDBRANCH  43  44
ENDBRANCH  42  43
ENDBRANCH  41  42
ENDBRANCH  40  41
ENDBRANCH  39  40
ENDBRANCH  38  39
ENDBRANCH  37  38
ENDBRANCH  36  37
ENDBRANCH  35  36
ENDBRANCH  34  35
ENDBRANCH  32  34
ENDBRANCH   6  32
TORSDOF 20
ENDMDL
MODEL 3
REMARK VINA RESULT:      -4.2     19.052     24.658
REMARK  Name = 27924_Phorbol.pdbqt.pdb
REMARK  26 active torsions:
REMARK  status: ('A' for Active; 'I' for Inactive)
REMARK    1  A    between atoms: O_1  and  C_10
REMARK    2  A    between atoms: O_1  and  C_26
REMARK    3  A    between atoms: O_2  and  C_13
REMARK    4  A    between atoms: O_2  and  C_28
REMARK    5  A    between atoms: O_3  and  C_14
REMARK    6  A    between atoms: O_4  and  C_20
REMARK    7  A    between atoms: O_7  and  C_29
REMARK    8  A    between atoms: C_11  and  C_16
REMARK    9  A    between atoms: C_11  and  C_17
REMARK   10  A    between atoms: C_15  and  C_21
REMARK   11  A    between atoms: C_22  and  C_29
REMARK   12  A    between atoms: C_26  and  C_30
REMARK   13  A    between atoms: C_27  and  C_31
REMARK   14  A    between atoms: C_28  and  C_32
REMARK   15  A    between atoms: C_32  and  C_33
REMARK   16  A    between atoms: C_33  and  C_34
REMARK   17  A    between atoms: C_34  and  C_35
REMARK   18  A    between atoms: C_35  and  C_36
REMARK   19  A    between atoms: C_36  and  C_37
REMARK   20  A    between atoms: C_37  and  C_38
REMARK   21  A    between atoms: C_38  and  C_39
REMARK   22  A    between atoms: C_39  and  C_40
REMARK   23  A    between atoms: C_40  and  C_41
REMARK   24  A    between atoms: C_41  and  C_42
REMARK   25  A    between atoms: C_42  and  C_43
REMARK   26  A    between atoms: C_43  and  C_44
REMARK                            x       y       z     vdW  Elec       q    Type
REMARK                         _______ _______ _______ _____ _____    ______ ____
ROOT
ATOM      1  O   UNL     1      22.298  10.869  26.240  0.00  0.00    +0.000 OA
ATOM      2  C   UNL     1      28.560  11.212  22.920  0.00  0.00    +0.000 C 
ATOM      3  C   UNL     1      28.991  12.505  22.252  0.00  0.00    +0.000 C 
ATOM      4  C   UNL     1      28.554  11.275  21.405  0.00  0.00    +0.000 C 
ATOM      5  C   UNL     1      27.431  11.196  23.906  0.00  0.00    +0.000 C 
ATOM      6  C   UNL     1      28.109  13.745  22.490  0.00  0.00    +0.000 C 
ATOM      7  C   UNL     1      26.444  12.451  23.944  0.00  0.00    +0.000 C 
ATOM      8  C   UNL     1      27.415  13.697  23.896  0.00  0.00    +0.000 C 
ATOM      9  C   UNL     1      29.608  10.405  20.741  0.00  0.00    +0.000 C 
ATOM     10  C   UNL     1      27.259  11.254  20.631  0.00  0.00    +0.000 C 
ATOM     11  C   UNL     1      25.452  12.291  25.205  0.00  0.00    +0.000 C 
ATOM     12  C   UNL     1      26.708   9.864  23.975  0.00  0.00    +0.000 C 
ATOM     13  C   UNL     1      24.447  11.058  25.117  0.00  0.00    +0.000 C 
ATOM     14  C   UNL     1      26.783  15.050  24.222  0.00  0.00    +0.000 C 
ATOM     15  C   UNL     1      26.379   9.426  25.209  0.00  0.00    +0.000 C 
ATOM     16  C   UNL     1      24.960   9.709  25.670  0.00  0.00    +0.000 C 
ATOM     17  C   UNL     1      24.470  13.406  25.540  0.00  0.00    +0.000 C 
ATOM     18  C   UNL     1      23.239  11.559  25.879  0.00  0.00    +0.000 C 
ATOM     19  C   UNL     1      23.266  13.022  25.984  0.00  0.00    +0.000 C 
ATOM     20  C   UNL     1      22.121  13.817  26.476  0.00  0.00    +0.000 C 
ENDROOT
BRANCH   7  21
ATOM     21  O   UNL     1      25.631  12.535  22.767  0.00  0.00    +0.000 OA
ATOM     22  H   UNL     1      24.877  13.136  22.962  0.00  0.00    +0.000 HD
ENDBRANCH   7  21
BRANCH  13  23
ATOM     23  O   UNL     1      23.944  10.878  23.771  0.00  0.00    +0.000 OA
ATOM     24  H   UNL     1      24.035   9.923  23.572  0.00  0.00    +0.000 HD
ENDBRANCH  13  23
BRANCH   3  25
ATOM     25  O   UNL     1      30.407  12.725  22.484  0.00  0.00    +0.000 OA
BRANCH  25  27
ATOM     26  O   UNL     1      31.812  11.382  23.607  0.00  0.00    +0.000 OA
ATOM     27  C   UNL     1      31.075  12.366  23.609  0.00  0.00    +0.000 C 
ATOM     28  C   UNL     1      30.962  13.236  24.824  0.00  0.00    +0.000 C 
ENDBRANCH  25  27
ENDBRANCH   3  25
BRANCH  15  29
ATOM     29  C   UNL     1      27.383   9.230  26.315  0.00  0.00    +0.000 C 
BRANCH  29  30
ATOM     30  O   UNL     1      26.980  10.015  27.424  0.00  0.00    +0.000 OA
ATOM     31  H   UNL     1      27.252  10.930  27.232  0.00  0.00    +0.000 HD
ENDBRANCH  29  30
ENDBRANCH  15  29
BRANCH   6  32
ATOM     32  O   UNL     1      28.958  14.921  22.396  0.00  0.00    +0.000 OA
BRANCH  32  34
ATOM     33  O   UNL     1      28.198  16.704  21.279  0.00  0.00    +0.000 OA
ATOM     34  C   UNL     1      29.002  15.778  21.350  0.00  0.00    +0.000 C 
BRANCH  34  35
ATOM     35  C   UNL     1      30.045  15.583  20.277  0.00  0.00    +0.000 C 
BRANCH  35  36
ATOM     36  C   UNL     1      29.509  14.758  19.114  0.00  0.00    +0.000 C 
BRANCH  36  37
ATOM     37  C   UNL     1      30.391  14.794  17.860  0.00  0.00    +0.000 C 
BRANCH  37  38
ATOM     38  C   UNL     1      30.833  13.414  17.356  0.00  0.00    +0.000 C 
BRANCH  38  39
ATOM     39  C   UNL     1      29.903  12.291  17.830  0.00  0.00    +0.000 C 
BRANCH  39  40
ATOM     40  C   UNL     1      28.829  11.914  16.806  0.00  0.00    +0.000 C 
BRANCH  40  41
ATOM     41  C   UNL     1      29.091  12.501  15.417  0.00  0.00    +0.000 C 
BRANCH  41  42
ATOM     42  C   UNL     1      27.955  13.394  14.912  0.00  0.00    +0.000 C 
BRANCH  42  43
ATOM     43  C   UNL     1      28.181  14.903  15.049  0.00  0.00    +0.000 C 
BRANCH  43  44
ATOM     44  C   UNL     1      29.321  15.480  14.204  0.00  0.00    +0.000 C 
BRANCH  44  45
ATOM     45  C   UNL     1      28.960  16.696  13.346  0.00  0.00    +0.000 C 
BRANCH  45  46
ATOM     46  C   UNL     1      28.806  16.430  11.847  0.00  0.00    +0.000 C 
ATOM     47  C   UNL     1      28.435  14.992  11.522  0.00  0.00    +0.000 C 
ENDBRANCH  45  46
ENDBRANCH  44  45
ENDBRANCH  43  44
ENDBRANCH  42  43
ENDBRANCH  41  42
ENDBRANCH  40  41
ENDBRANCH  39  40
ENDBRANCH  38  39
ENDBRANCH  37  38
ENDBRANCH  36  37
ENDBRANCH  35  36
ENDBRANCH  34  35
ENDBRANCH  32  34
ENDBRANCH   6  32
TORSDOF 20
ENDMDL
MODEL 4
REMARK VINA RESULT:      -4.2     19.880     25.722
REMARK  Name = 27924_Phorbol.pdbqt.pdb
REMARK  26 active torsions:
REMARK  status: ('A' for Active; 'I' for Inactive)
REMARK    1  A    between atoms: O_1  and  C_10
REMARK    2  A    between atoms: O_1  and  C_26
REMARK    3  A    between atoms: O_2  and  C_13
REMARK    4  A    between atoms: O_2  and  C_28
REMARK    5  A    between atoms: O_3  and  C_14
REMARK    6  A    between atoms: O_4  and  C_20
REMARK    7  A    between atoms: O_7  and  C_29
REMARK    8  A    between atoms: C_11  and  C_16
REMARK    9  A    between atoms: C_11  and  C_17
REMARK   10  A    between atoms: C_15  and  C_21
REMARK   11  A    between atoms: C_22  and  C_29
REMARK   12  A    between atoms: C_26  and  C_30
REMARK   13  A    between atoms: C_27  and  C_31
REMARK   14  A    between atoms: C_28  and  C_32
REMARK   15  A    between atoms: C_32  and  C_33
REMARK   16  A    between atoms: C_33  and  C_34
REMARK   17  A    between atoms: C_34  and  C_35
REMARK   18  A    between atoms: C_35  and  C_36
REMARK   19  A    between atoms: C_36  and  C_37
REMARK   20  A    between atoms: C_37  and  C_38
REMARK   21  A    between atoms: C_38  and  C_39
REMARK   22  A    between atoms: C_39  and  C_40
REMARK   23  A    between atoms: C_40  and  C_41
REMARK   24  A    between atoms: C_41  and  C_42
REMARK   25  A    between atoms: C_42  and  C_43
REMARK   26  A    between atoms: C_43  and  C_44
REMARK                            x       y       z     vdW  Elec       q    Type
REMARK                         _______ _______ _______ _____ _____    ______ ____
ROOT
ATOM      1  O   UNL     1      22.673  10.583  25.559  0.00  0.00    +0.000 OA
ATOM      2  C   UNL     1      28.583   8.228  22.415  0.00  0.00    +0.000 C 
ATOM      3  C   UNL     1      29.453   9.189  21.625  0.00  0.00    +0.000 C 
ATOM      4  C   UNL     1      28.584   8.119  20.903  0.00  0.00    +0.000 C 
ATOM      5  C   UNL     1      27.539   8.738  23.362  0.00  0.00    +0.000 C 
ATOM      6  C   UNL     1      29.093  10.684  21.700  0.00  0.00    +0.000 C 
ATOM      7  C   UNL     1      27.085  10.264  23.234  0.00  0.00    +0.000 C 
ATOM      8  C   UNL     1      28.446  11.052  23.081  0.00  0.00    +0.000 C 
ATOM      9  C   UNL     1      29.235   6.854  20.369  0.00  0.00    +0.000 C 
ATOM     10  C   UNL     1      27.364   8.489  20.096  0.00  0.00    +0.000 C 
ATOM     11  C   UNL     1      26.118  10.621  24.474  0.00  0.00    +0.000 C 
ATOM     12  C   UNL     1      26.377   7.781  23.552  0.00  0.00    +0.000 C 
ATOM     13  C   UNL     1      24.728   9.842  24.489  0.00  0.00    +0.000 C 
ATOM     14  C   UNL     1      28.361  12.570  23.239  0.00  0.00    +0.000 C 
ATOM     15  C   UNL     1      25.924   7.636  24.816  0.00  0.00    +0.000 C 
ATOM     16  C   UNL     1      24.715   8.471  25.199  0.00  0.00    +0.000 C 
ATOM     17  C   UNL     1      25.620  12.050  24.656  0.00  0.00    +0.000 C 
ATOM     18  C   UNL     1      23.799  10.834  25.154  0.00  0.00    +0.000 C 
ATOM     19  C   UNL     1      24.365  12.187  25.102  0.00  0.00    +0.000 C 
ATOM     20  C   UNL     1      23.598  13.396  25.469  0.00  0.00    +0.000 C 
ENDROOT
BRANCH   7  21
ATOM     21  O   UNL     1      26.346  10.509  22.030  0.00  0.00    +0.000 OA
ATOM     22  H   UNL     1      25.476  10.060  22.113  0.00  0.00    +0.000 HD
ENDBRANCH   7  21
BRANCH  13  23
ATOM     23  O   UNL     1      24.179   9.711  23.155  0.00  0.00    +0.000 OA
ATOM     24  H   UNL     1      23.289   9.316  23.266  0.00  0.00    +0.000 HD
ENDBRANCH  13  23
BRANCH   3  25
ATOM     25  O   UNL     1      30.852   8.898  21.875  0.00  0.00    +0.000 OA
BRANCH  25  27
ATOM     26  O   UNL     1      31.393   9.363  24.004  0.00  0.00    +0.000 OA
ATOM     27  C   UNL     1      31.371   8.552  23.080  0.00  0.00    +0.000 C 
ATOM     28  C   UNL     1      31.837   7.142  23.288  0.00  0.00    +0.000 C 
ENDBRANCH  25  27
ENDBRANCH   3  25
BRANCH  15  29
ATOM     29  C   UNL     1      26.797   7.210  25.967  0.00  0.00    +0.000 C 
BRANCH  29  30
ATOM     30  O   UNL     1      27.037   8.342  26.785  0.00  0.00    +0.000 OA
ATOM     31  H   UNL     1      26.668   8.137  27.662  0.00  0.00    +0.000 HD
ENDBRANCH  29  30
ENDBRANCH  15  29
BRANCH   6  32
ATOM     32  O   UNL     1      30.315  11.448  21.506  0.00  0.00    +0.000 OA
BRANCH  32  34
ATOM     33  O   UNL     1      31.127  11.458  19.422  0.00  0.00    +0.000 OA
ATOM     34  C   UNL     1      30.667  12.091  20.370  0.00  0.00    +0.000 C 
BRANCH  34  35
ATOM     35  C   UNL     1      30.490  13.587  20.280  0.00  0.00    +0.000 C 
BRANCH  35  36
ATOM     36  C   UNL     1      29.040  13.966  20.005  0.00  0.00    +0.000 C 
BRANCH  36  37
ATOM     37  C   UNL     1      28.620  15.316  20.599  0.00  0.00    +0.000 C 
BRANCH  37  38
ATOM     38  C   UNL     1      29.582  16.471  20.290  0.00  0.00    +0.000 C 
BRANCH  38  39
ATOM     39  C   UNL     1      29.415  17.009  18.865  0.00  0.00    +0.000 C 
BRANCH  39  40
ATOM     40  C   UNL     1      30.678  16.879  18.010  0.00  0.00    +0.000 C 
BRANCH  40  41
ATOM     41  C   UNL     1      30.381  16.534  16.549  0.00  0.00    +0.000 C 
BRANCH  41  42
ATOM     42  C   UNL     1      28.920  16.148  16.303  0.00  0.00    +0.000 C 
BRANCH  42  43
ATOM     43  C   UNL     1      28.684  14.724  15.792  0.00  0.00    +0.000 C 
BRANCH  43  44
ATOM     44  C   UNL     1      29.498  13.628  16.488  0.00  0.00    +0.000 C 
BRANCH  44  45
ATOM     45  C   UNL     1      28.749  12.322  16.767  0.00  0.00    +0.000 C 
BRANCH  45  46
ATOM     46  C   UNL     1      28.206  11.591  15.537  0.00  0.00    +0.000 C 
ATOM     47  C   UNL     1      29.294  11.009  14.649  0.00  0.00    +0.000 C 
ENDBRANCH  45  46
ENDBRANCH  44  45
ENDBRANCH  43  44
ENDBRANCH  42  43
ENDBRANCH  41  42
ENDBRANCH  40  41
ENDBRANCH  39  40
ENDBRANCH  38  39
ENDBRANCH  37  38
ENDBRANCH  36  37
ENDBRANCH  35  36
ENDBRANCH  34  35
ENDBRANCH  32  34
ENDBRANCH   6  32
TORSDOF 20
ENDMDL
MODEL 5
REMARK VINA RESULT:      -4.1     11.841     17.796
REMARK  Name = 27924_Phorbol.pdbqt.pdb
REMARK  26 active torsions:
REMARK  status: ('A' for Active; 'I' for Inactive)
REMARK    1  A    between atoms: O_1  and  C_10
REMARK    2  A    between atoms: O_1  and  C_26
REMARK    3  A    between atoms: O_2  and  C_13
REMARK    4  A    between atoms: O_2  and  C_28
REMARK    5  A    between atoms: O_3  and  C_14
REMARK    6  A    between atoms: O_4  and  C_20
REMARK    7  A    between atoms: O_7  and  C_29
REMARK    8  A    between atoms: C_11  and  C_16
REMARK    9  A    between atoms: C_11  and  C_17
REMARK   10  A    between atoms: C_15  and  C_21
REMARK   11  A    between atoms: C_22  and  C_29
REMARK   12  A    between atoms: C_26  and  C_30
REMARK   13  A    between atoms: C_27  and  C_31
REMARK   14  A    between atoms: C_28  and  C_32
REMARK   15  A    between atoms: C_32  and  C_33
REMARK   16  A    between atoms: C_33  and  C_34
REMARK   17  A    between atoms: C_34  and  C_35
REMARK   18  A    between atoms: C_35  and  C_36
REMARK   19  A    between atoms: C_36  and  C_37
REMARK   20  A    between atoms: C_37  and  C_38
REMARK   21  A    between atoms: C_38  and  C_39
REMARK   22  A    between atoms: C_39  and  C_40
REMARK   23  A    between atoms: C_40  and  C_41
REMARK   24  A    between atoms: C_41  and  C_42
REMARK   25  A    between atoms: C_42  and  C_43
REMARK   26  A    between atoms: C_43  and  C_44
REMARK                            x       y       z     vdW  Elec       q    Type
REMARK                         _______ _______ _______ _____ _____    ______ ____
ROOT
ATOM      1  O   UNL     1      22.001  12.703  33.675  0.00  0.00    +0.000 OA
ATOM      2  C   UNL     1      24.581  13.070  27.074  0.00  0.00    +0.000 C 
ATOM      3  C   UNL     1      24.531  14.383  26.316  0.00  0.00    +0.000 C 
ATOM      4  C   UNL     1      23.591  13.204  25.935  0.00  0.00    +0.000 C 
ATOM      5  C   UNL     1      24.372  13.031  28.558  0.00  0.00    +0.000 C 
ATOM      6  C   UNL     1      24.077  15.629  27.099  0.00  0.00    +0.000 C 
ATOM      7  C   UNL     1      23.709  14.304  29.261  0.00  0.00    +0.000 C 
ATOM      8  C   UNL     1      24.469  15.530  28.616  0.00  0.00    +0.000 C 
ATOM      9  C   UNL     1      23.913  12.344  24.724  0.00  0.00    +0.000 C 
ATOM     10  C   UNL     1      22.105  13.247  26.197  0.00  0.00    +0.000 C 
ATOM     11  C   UNL     1      23.775  14.105  30.859  0.00  0.00    +0.000 C 
ATOM     12  C   UNL     1      23.808  11.713  29.055  0.00  0.00    +0.000 C 
ATOM     13  C   UNL     1      22.902  12.899  31.424  0.00  0.00    +0.000 C 
ATOM     14  C   UNL     1      24.267  16.879  29.305  0.00  0.00    +0.000 C 
ATOM     15  C   UNL     1      24.346  11.225  30.193  0.00  0.00    +0.000 C 
ATOM     16  C   UNL     1      23.588  11.516  31.476  0.00  0.00    +0.000 C 
ATOM     17  C   UNL     1      23.304  15.224  31.779  0.00  0.00    +0.000 C 
ATOM     18  C   UNL     1      22.509  13.389  32.801  0.00  0.00    +0.000 C 
ATOM     19  C   UNL     1      22.666  14.845  32.894  0.00  0.00    +0.000 C 
ATOM     20  C   UNL     1      22.159  15.640  34.033  0.00  0.00    +0.000 C 
ENDROOT
BRANCH   7  21
ATOM     21  O   UNL     1      22.329  14.460  28.905  0.00  0.00    +0.000 OA
ATOM     22  H   UNL     1      21.899  15.011  29.596  0.00  0.00    +0.000 HD
ENDBRANCH   7  21
BRANCH  13  23
ATOM     23  O   UNL     1      21.633  12.793  30.732  0.00  0.00    +0.000 OA
ATOM     24  H   UNL     1      21.005  12.404  31.375  0.00  0.00    +0.000 HD
ENDBRANCH  13  23
BRANCH   3  25
ATOM     25  O   UNL     1      25.762  14.563  25.569  0.00  0.00    +0.000 OA
BRANCH  25  27
ATOM     26  O   UNL     1      27.467  14.660  27.027  0.00  0.00    +0.000 OA
ATOM     27  C   UNL     1      26.993  14.184  25.997  0.00  0.00    +0.000 C 
ATOM     28  C   UNL     1      27.724  13.117  25.239  0.00  0.00    +0.000 C 
ENDBRANCH  25  27
ENDBRANCH   3  25
BRANCH  15  29
ATOM     29  C   UNL     1      25.818  10.956  30.368  0.00  0.00    +0.000 C 
BRANCH  29  30
ATOM     30  O   UNL     1      26.227  10.053  29.355  0.00  0.00    +0.000 OA
ATOM     31  H   UNL     1      26.541  10.593  28.609  0.00  0.00    +0.000 HD
ENDBRANCH  29  30
ENDBRANCH  15  29
BRANCH   6  32
ATOM     32  O   UNL     1      24.713  16.791  26.499  0.00  0.00    +0.000 OA
BRANCH  32  34
ATOM     33  O   UNL     1      23.868  17.457  24.538  0.00  0.00    +0.000 OA
ATOM     34  C   UNL     1      24.096  17.708  25.719  0.00  0.00    +0.000 C 
BRANCH  34  35
ATOM     35  C   UNL     1      23.695  19.035  26.312  0.00  0.00    +0.000 C 
BRANCH  35  36
ATOM     36  C   UNL     1      22.182  19.162  26.438  0.00  0.00    +0.000 C 
BRANCH  36  37
ATOM     37  C   UNL     1      21.588  18.428  27.646  0.00  0.00    +0.000 C 
BRANCH  37  38
ATOM     38  C   UNL     1      21.290  19.329  28.852  0.00  0.00    +0.000 C 
BRANCH  38  39
ATOM     39  C   UNL     1      21.149  18.537  30.155  0.00  0.00    +0.000 C 
BRANCH  39  40
ATOM     40  C   UNL     1      20.520  17.153  29.964  0.00  0.00    +0.000 C 
BRANCH  40  41
ATOM     41  C   UNL     1      19.427  16.844  30.990  0.00  0.00    +0.000 C 
BRANCH  41  42
ATOM     42  C   UNL     1      18.075  17.473  30.642  0.00  0.00    +0.000 C 
BRANCH  42  43
ATOM     43  C   UNL     1      17.326  18.130  31.805  0.00  0.00    +0.000 C 
BRANCH  43  44
ATOM     44  C   UNL     1      15.847  17.756  31.936  0.00  0.00    +0.000 C 
BRANCH  44  45
ATOM     45  C   UNL     1      14.885  18.531  31.031  0.00  0.00    +0.000 C 
BRANCH  45  46
ATOM     46  C   UNL     1      14.125  17.697  29.997  0.00  0.00    +0.000 C 
ATOM     47  C   UNL     1      14.556  16.240  29.960  0.00  0.00    +0.000 C 
ENDBRANCH  45  46
ENDBRANCH  44  45
ENDBRANCH  43  44
ENDBRANCH  42  43
ENDBRANCH  41  42
ENDBRANCH  40  41
ENDBRANCH  39  40
ENDBRANCH  38  39
ENDBRANCH  37  38
ENDBRANCH  36  37
ENDBRANCH  35  36
ENDBRANCH  34  35
ENDBRANCH  32  34
ENDBRANCH   6  32
TORSDOF 20
ENDMDL
MODEL 6
REMARK VINA RESULT:      -3.7     17.149     23.258
REMARK  Name = 27924_Phorbol.pdbqt.pdb
REMARK  26 active torsions:
REMARK  status: ('A' for Active; 'I' for Inactive)
REMARK    1  A    between atoms: O_1  and  C_10
REMARK    2  A    between atoms: O_1  and  C_26
REMARK    3  A    between atoms: O_2  and  C_13
REMARK    4  A    between atoms: O_2  and  C_28
REMARK    5  A    between atoms: O_3  and  C_14
REMARK    6  A    between atoms: O_4  and  C_20
REMARK    7  A    between atoms: O_7  and  C_29
REMARK    8  A    between atoms: C_11  and  C_16
REMARK    9  A    between atoms: C_11  and  C_17
REMARK   10  A    between atoms: C_15  and  C_21
REMARK   11  A    between atoms: C_22  and  C_29
REMARK   12  A    between atoms: C_26  and  C_30
REMARK   13  A    between atoms: C_27  and  C_31
REMARK   14  A    between atoms: C_28  and  C_32
REMARK   15  A    between atoms: C_32  and  C_33
REMARK   16  A    between atoms: C_33  and  C_34
REMARK   17  A    between atoms: C_34  and  C_35
REMARK   18  A    between atoms: C_35  and  C_36
REMARK   19  A    between atoms: C_36  and  C_37
REMARK   20  A    between atoms: C_37  and  C_38
REMARK   21  A    between atoms: C_38  and  C_39
REMARK   22  A    between atoms: C_39  and  C_40
REMARK   23  A    between atoms: C_40  and  C_41
REMARK   24  A    between atoms: C_41  and  C_42
REMARK   25  A    between atoms: C_42  and  C_43
REMARK   26  A    between atoms: C_43  and  C_44
REMARK                            x       y       z     vdW  Elec       q    Type
REMARK                         _______ _______ _______ _____ _____    ______ ____
ROOT
ATOM      1  O   UNL     1      30.758   9.093  19.470  0.00  0.00    +0.000 OA
ATOM      2  C   UNL     1      26.517  12.700  23.870  0.00  0.00    +0.000 C 
ATOM      3  C   UNL     1      26.396  12.272  25.321  0.00  0.00    +0.000 C 
ATOM      4  C   UNL     1      25.231  12.032  24.318  0.00  0.00    +0.000 C 
ATOM      5  C   UNL     1      27.638  12.195  23.012  0.00  0.00    +0.000 C 
ATOM      6  C   UNL     1      27.353  11.170  25.810  0.00  0.00    +0.000 C 
ATOM      7  C   UNL     1      28.455  10.917  23.512  0.00  0.00    +0.000 C 
ATOM      8  C   UNL     1      28.720  11.212  25.041  0.00  0.00    +0.000 C 
ATOM      9  C   UNL     1      24.023  12.953  24.331  0.00  0.00    +0.000 C 
ATOM     10  C   UNL     1      24.863  10.651  23.834  0.00  0.00    +0.000 C 
ATOM     11  C   UNL     1      29.718  10.696  22.534  0.00  0.00    +0.000 C 
ATOM     12  C   UNL     1      27.293  12.146  21.535  0.00  0.00    +0.000 C 
ATOM     13  C   UNL     1      29.348  10.311  21.033  0.00  0.00    +0.000 C 
ATOM     14  C   UNL     1      29.744  10.308  25.728  0.00  0.00    +0.000 C 
ATOM     15  C   UNL     1      28.253  12.565  20.683  0.00  0.00    +0.000 C 
ATOM     16  C   UNL     1      29.118  11.486  20.057  0.00  0.00    +0.000 C 
ATOM     17  C   UNL     1      30.731   9.601  22.845  0.00  0.00    +0.000 C 
ATOM     18  C   UNL     1      30.518   9.447  20.615  0.00  0.00    +0.000 C 
ATOM     19  C   UNL     1      31.239   8.949  21.791  0.00  0.00    +0.000 C 
ATOM     20  C   UNL     1      32.287   7.910  21.714  0.00  0.00    +0.000 C 
ENDROOT
BRANCH   7  21
ATOM     21  O   UNL     1      27.666   9.721  23.468  0.00  0.00    +0.000 OA
ATOM     22  H   UNL     1      28.234   8.973  23.760  0.00  0.00    +0.000 HD
ENDBRANCH   7  21
BRANCH  13  23
ATOM     23  O   UNL     1      28.223   9.400  20.981  0.00  0.00    +0.000 OA
ATOM     24  H   UNL     1      28.541   8.604  20.507  0.00  0.00    +0.000 HD
ENDBRANCH  13  23
BRANCH   3  25
ATOM     25  O   UNL     1      26.351  13.447  26.173  0.00  0.00    +0.000 OA
BRANCH  25  27
ATOM     26  O   UNL     1      28.252  14.639  26.089  0.00  0.00    +0.000 OA
ATOM     27  C   UNL     1      27.031  14.598  25.945  0.00  0.00    +0.000 C 
ATOM     28  C   UNL     1      26.280  15.792  25.436  0.00  0.00    +0.000 C 
ENDBRANCH  25  27
ENDBRANCH   3  25
BRANCH  15  29
ATOM     29  C   UNL     1      28.885  13.930  20.752  0.00  0.00    +0.000 C 
BRANCH  29  30
ATOM     30  O   UNL     1      27.861  14.883  20.983  0.00  0.00    +0.000 OA
ATOM     31  H   UNL     1      28.286  15.759  20.972  0.00  0.00    +0.000 HD
ENDBRANCH  29  30
ENDBRANCH  15  29
BRANCH   6  32
ATOM     32  O   UNL     1      27.579  11.374  27.232  0.00  0.00    +0.000 OA
BRANCH  32  34
ATOM     33  O   UNL     1      27.348  10.824  29.388  0.00  0.00    +0.000 OA
ATOM     34  C   UNL     1      26.955  10.707  28.230  0.00  0.00    +0.000 C 
BRANCH  34  35
ATOM     35  C   UNL     1      25.775   9.824  27.906  0.00  0.00    +0.000 C 
BRANCH  35  36
ATOM     36  C   UNL     1      24.485  10.360  28.515  0.00  0.00    +0.000 C 
BRANCH  36  37
ATOM     37  C   UNL     1      23.721  11.334  27.611  0.00  0.00    +0.000 C 
BRANCH  37  38
ATOM     38  C   UNL     1      23.057  12.501  28.354  0.00  0.00    +0.000 C 
BRANCH  38  39
ATOM     39  C   UNL     1      23.638  13.860  27.949  0.00  0.00    +0.000 C 
BRANCH  39  40
ATOM     40  C   UNL     1      22.612  14.795  27.302  0.00  0.00    +0.000 C 
BRANCH  40  41
ATOM     41  C   UNL     1      22.304  16.029  28.153  0.00  0.00    +0.000 C 
BRANCH  41  42
ATOM     42  C   UNL     1      22.191  17.317  27.333  0.00  0.00    +0.000 C 
BRANCH  42  43
ATOM     43  C   UNL     1      22.627  17.216  25.869  0.00  0.00    +0.000 C 
BRANCH  43  44
ATOM     44  C   UNL     1      21.820  18.061  24.879  0.00  0.00    +0.000 C 
BRANCH  44  45
ATOM     45  C   UNL     1      22.610  19.140  24.132  0.00  0.00    +0.000 C 
BRANCH  45  46
ATOM     46  C   UNL     1      22.749  20.482  24.854  0.00  0.00    +0.000 C 
ATOM     47  C   UNL     1      23.360  21.574  23.990  0.00  0.00    +0.000 C 
ENDBRANCH  45  46
ENDBRANCH  44  45
ENDBRANCH  43  44
ENDBRANCH  42  43
ENDBRANCH  41  42
ENDBRANCH  40  41
ENDBRANCH  39  40
ENDBRANCH  38  39
ENDBRANCH  37  38
ENDBRANCH  36  37
ENDBRANCH  35  36
ENDBRANCH  34  35
ENDBRANCH  32  34
ENDBRANCH   6  32
TORSDOF 20
ENDMDL
MODEL 7
REMARK VINA RESULT:      -3.7     19.998     25.659
REMARK  Name = 27924_Phorbol.pdbqt.pdb
REMARK  26 active torsions:
REMARK  status: ('A' for Active; 'I' for Inactive)
REMARK    1  A    between atoms: O_1  and  C_10
REMARK    2  A    between atoms: O_1  and  C_26
REMARK    3  A    between atoms: O_2  and  C_13
REMARK    4  A    between atoms: O_2  and  C_28
REMARK    5  A    between atoms: O_3  and  C_14
REMARK    6  A    between atoms: O_4  and  C_20
REMARK    7  A    between atoms: O_7  and  C_29
REMARK    8  A    between atoms: C_11  and  C_16
REMARK    9  A    between atoms: C_11  and  C_17
REMARK   10  A    between atoms: C_15  and  C_21
REMARK   11  A    between atoms: C_22  and  C_29
REMARK   12  A    between atoms: C_26  and  C_30
REMARK   13  A    between atoms: C_27  and  C_31
REMARK   14  A    between atoms: C_28  and  C_32
REMARK   15  A    between atoms: C_32  and  C_33
REMARK   16  A    between atoms: C_33  and  C_34
REMARK   17  A    between atoms: C_34  and  C_35
REMARK   18  A    between atoms: C_35  and  C_36
REMARK   19  A    between atoms: C_36  and  C_37
REMARK   20  A    between atoms: C_37  and  C_38
REMARK   21  A    between atoms: C_38  and  C_39
REMARK   22  A    between atoms: C_39  and  C_40
REMARK   23  A    between atoms: C_40  and  C_41
REMARK   24  A    between atoms: C_41  and  C_42
REMARK   25  A    between atoms: C_42  and  C_43
REMARK   26  A    between atoms: C_43  and  C_44
REMARK                            x       y       z     vdW  Elec       q    Type
REMARK                         _______ _______ _______ _____ _____    ______ ____
ROOT
ATOM      1  O   UNL     1      22.975  10.215  25.404  0.00  0.00    +0.000 OA
ATOM      2  C   UNL     1      29.141  10.845  21.947  0.00  0.00    +0.000 C 
ATOM      3  C   UNL     1      29.534  12.180  21.342  0.00  0.00    +0.000 C 
ATOM      4  C   UNL     1      29.094  10.992  20.439  0.00  0.00    +0.000 C 
ATOM      5  C   UNL     1      28.039  10.756  22.960  0.00  0.00    +0.000 C 
ATOM      6  C   UNL     1      28.640  13.390  21.671  0.00  0.00    +0.000 C 
ATOM      7  C   UNL     1      27.035  11.991  23.094  0.00  0.00    +0.000 C 
ATOM      8  C   UNL     1      27.985  13.253  23.090  0.00  0.00    +0.000 C 
ATOM      9  C   UNL     1      30.142  10.177  19.701  0.00  0.00    +0.000 C 
ATOM     10  C   UNL     1      27.779  10.993  19.699  0.00  0.00    +0.000 C 
ATOM     11  C   UNL     1      26.079  11.744  24.369  0.00  0.00    +0.000 C 
ATOM     12  C   UNL     1      27.338   9.410  22.973  0.00  0.00    +0.000 C 
ATOM     13  C   UNL     1      25.091  10.501  24.239  0.00  0.00    +0.000 C 
ATOM     14  C   UNL     1      27.341  14.575  23.507  0.00  0.00    +0.000 C 
ATOM     15  C   UNL     1      27.049   8.899  24.189  0.00  0.00    +0.000 C 
ATOM     16  C   UNL     1      25.639   9.133  24.701  0.00  0.00    +0.000 C 
ATOM     17  C   UNL     1      25.090  12.823  24.791  0.00  0.00    +0.000 C 
ATOM     18  C   UNL     1      23.896  10.939  25.058  0.00  0.00    +0.000 C 
ATOM     19  C   UNL     1      23.904  12.395  25.244  0.00  0.00    +0.000 C 
ATOM     20  C   UNL     1      22.761  13.142  25.809  0.00  0.00    +0.000 C 
ENDROOT
BRANCH   7  21
ATOM     21  O   UNL     1      26.189  12.126  21.944  0.00  0.00    +0.000 OA
ATOM     22  H   UNL     1      25.353  11.641  22.126  0.00  0.00    +0.000 HD
ENDBRANCH   7  21
BRANCH  13  23
ATOM     23  O   UNL     1      24.555  10.388  22.898  0.00  0.00    +0.000 OA
ATOM     24  H   UNL     1      24.038   9.556  22.882  0.00  0.00    +0.000 HD
ENDBRANCH  13  23
BRANCH   3  25
ATOM     25  O   UNL     1      30.952  12.410  21.549  0.00  0.00    +0.000 OA
BRANCH  25  27
ATOM     26  O   UNL     1      31.406  12.694  23.729  0.00  0.00    +0.000 OA
ATOM     27  C   UNL     1      31.633  12.096  22.680  0.00  0.00    +0.000 C 
ATOM     28  C   UNL     1      32.605  10.955  22.643  0.00  0.00    +0.000 C 
ENDBRANCH  25  27
ENDBRANCH   3  25
BRANCH  15  29
ATOM     29  C   UNL     1      28.085   8.658  25.256  0.00  0.00    +0.000 C 
BRANCH  29  30
ATOM     30  O   UNL     1      27.463   7.974  26.331  0.00  0.00    +0.000 OA
ATOM     31  H   UNL     1      27.922   7.120  26.421  0.00  0.00    +0.000 HD
ENDBRANCH  29  30
ENDBRANCH  15  29
BRANCH   6  32
ATOM     32  O   UNL     1      29.469  14.584  21.622  0.00  0.00    +0.000 OA
BRANCH  32  34
ATOM     33  O   UNL     1      28.551  16.381  20.657  0.00  0.00    +0.000 OA
ATOM     34  C   UNL     1      29.433  15.525  20.651  0.00  0.00    +0.000 C 
BRANCH  34  35
ATOM     35  C   UNL     1      30.484  15.513  19.569  0.00  0.00    +0.000 C 
BRANCH  35  36
ATOM     36  C   UNL     1      29.943  14.938  18.265  0.00  0.00    +0.000 C 
BRANCH  36  37
ATOM     37  C   UNL     1      29.677  15.986  17.179  0.00  0.00    +0.000 C 
BRANCH  37  38
ATOM     38  C   UNL     1      29.094  15.417  15.878  0.00  0.00    +0.000 C 
BRANCH  38  39
ATOM     39  C   UNL     1      28.139  16.396  15.187  0.00  0.00    +0.000 C 
BRANCH  39  40
ATOM     40  C   UNL     1      28.854  17.536  14.458  0.00  0.00    +0.000 C 
BRANCH  40  41
ATOM     41  C   UNL     1      29.918  17.045  13.472  0.00  0.00    +0.000 C 
BRANCH  41  42
ATOM     42  C   UNL     1      29.825  17.713  12.098  0.00  0.00    +0.000 C 
BRANCH  42  43
ATOM     43  C   UNL     1      28.904  17.027  11.084  0.00  0.00    +0.000 C 
BRANCH  43  44
ATOM     44  C   UNL     1      28.113  15.828  11.616  0.00  0.00    +0.000 C 
BRANCH  44  45
ATOM     45  C   UNL     1      28.514  14.465  11.044  0.00  0.00    +0.000 C 
BRANCH  45  46
ATOM     46  C   UNL     1      29.911  13.970  11.421  0.00  0.00    +0.000 C 
ATOM     47  C   UNL     1      29.999  13.426  12.839  0.00  0.00    +0.000 C 
ENDBRANCH  45  46
ENDBRANCH  44  45
ENDBRANCH  43  44
ENDBRANCH  42  43
ENDBRANCH  41  42
ENDBRANCH  40  41
ENDBRANCH  39  40
ENDBRANCH  38  39
ENDBRANCH  37  38
ENDBRANCH  36  37
ENDBRANCH  35  36
ENDBRANCH  34  35
ENDBRANCH  32  34
ENDBRANCH   6  32
TORSDOF 20
ENDMDL
MODEL 8
REMARK VINA RESULT:      -3.5     25.694     27.748
REMARK  Name = 27924_Phorbol.pdbqt.pdb
REMARK  26 active torsions:
REMARK  status: ('A' for Active; 'I' for Inactive)
REMARK    1  A    between atoms: O_1  and  C_10
REMARK    2  A    between atoms: O_1  and  C_26
REMARK    3  A    between atoms: O_2  and  C_13
REMARK    4  A    between atoms: O_2  and  C_28
REMARK    5  A    between atoms: O_3  and  C_14
REMARK    6  A    between atoms: O_4  and  C_20
REMARK    7  A    between atoms: O_7  and  C_29
REMARK    8  A    between atoms: C_11  and  C_16
REMARK    9  A    between atoms: C_11  and  C_17
REMARK   10  A    between atoms: C_15  and  C_21
REMARK   11  A    between atoms: C_22  and  C_29
REMARK   12  A    between atoms: C_26  and  C_30
REMARK   13  A    between atoms: C_27  and  C_31
REMARK   14  A    between atoms: C_28  and  C_32
REMARK   15  A    between atoms: C_32  and  C_33
REMARK   16  A    between atoms: C_33  and  C_34
REMARK   17  A    between atoms: C_34  and  C_35
REMARK   18  A    between atoms: C_35  and  C_36
REMARK   19  A    between atoms: C_36  and  C_37
REMARK   20  A    between atoms: C_37  and  C_38
REMARK   21  A    between atoms: C_38  and  C_39
REMARK   22  A    between atoms: C_39  and  C_40
REMARK   23  A    between atoms: C_40  and  C_41
REMARK   24  A    between atoms: C_41  and  C_42
REMARK   25  A    between atoms: C_42  and  C_43
REMARK   26  A    between atoms: C_43  and  C_44
REMARK                            x       y       z     vdW  Elec       q    Type
REMARK                         _______ _______ _______ _____ _____    ______ ____
ROOT
ATOM      1  O   UNL     1       2.930  15.867   1.757  0.00  0.00    +0.000 OA
ATOM      2  C   UNL     1      -1.217  14.371   7.318  0.00  0.00    +0.000 C 
ATOM      3  C   UNL     1      -0.673  13.538   8.464  0.00  0.00    +0.000 C 
ATOM      4  C   UNL     1      -1.711  12.946   7.468  0.00  0.00    +0.000 C 
ATOM      5  C   UNL     1      -0.294  14.990   6.312  0.00  0.00    +0.000 C 
ATOM      6  C   UNL     1       0.831  13.208   8.439  0.00  0.00    +0.000 C 
ATOM      7  C   UNL     1       1.204  14.443   6.225  0.00  0.00    +0.000 C 
ATOM      8  C   UNL     1       1.657  14.342   7.735  0.00  0.00    +0.000 C 
ATOM      9  C   UNL     1      -3.169  12.832   7.879  0.00  0.00    +0.000 C 
ATOM     10  C   UNL     1      -1.341  11.885   6.462  0.00  0.00    +0.000 C 
ATOM     11  C   UNL     1       2.043  15.389   5.225  0.00  0.00    +0.000 C 
ATOM     12  C   UNL     1      -0.935  15.198   4.952  0.00  0.00    +0.000 C 
ATOM     13  C   UNL     1       1.568  15.352   3.706  0.00  0.00    +0.000 C 
ATOM     14  C   UNL     1       3.153  14.132   7.971  0.00  0.00    +0.000 C 
ATOM     15  C   UNL     1      -0.662  16.369   4.336  0.00  0.00    +0.000 C 
ATOM     16  C   UNL     1       0.454  16.345   3.307  0.00  0.00    +0.000 C 
ATOM     17  C   UNL     1       3.537  15.155   5.039  0.00  0.00    +0.000 C 
ATOM     18  C   UNL     1       2.853  15.608   2.949  0.00  0.00    +0.000 C 
ATOM     19  C   UNL     1       4.016  15.343   3.803  0.00  0.00    +0.000 C 
ATOM     20  C   UNL     1       5.400  15.291   3.287  0.00  0.00    +0.000 C 
ENDROOT
BRANCH   7  21
ATOM     21  O   UNL     1       1.262  13.109   5.702  0.00  0.00    +0.000 OA
ATOM     22  H   UNL     1       0.340  12.799   5.562  0.00  0.00    +0.000 HD
ENDBRANCH   7  21
BRANCH  13  23
ATOM     23  O   UNL     1       1.201  14.011   3.297  0.00  0.00    +0.000 OA
ATOM     24  H   UNL     1       0.399  14.106   2.743  0.00  0.00    +0.000 HD
ENDBRANCH  13  23
BRANCH   3  25
ATOM     25  O   UNL     1      -1.145  14.077   9.726  0.00  0.00    +0.000 OA
BRANCH  25  27
ATOM     26  O   UNL     1      -0.283  16.112  10.123  0.00  0.00    +0.000 OA
ATOM     27  C   UNL     1      -1.277  15.398  10.006  0.00  0.00    +0.000 C 
ATOM     28  C   UNL     1      -2.654  15.985  10.087  0.00  0.00    +0.000 C 
ENDBRANCH  25  27
ENDBRANCH   3  25
BRANCH  15  29
ATOM     29  C   UNL     1      -0.931  17.715   4.955  0.00  0.00    +0.000 C 
BRANCH  29  30
ATOM     30  O   UNL     1      -0.649  18.712   3.988  0.00  0.00    +0.000 OA
ATOM     31  H   UNL     1      -0.768  18.296   3.115  0.00  0.00    +0.000 HD
ENDBRANCH  29  30
ENDBRANCH  15  29
BRANCH   6  32
ATOM     32  O   UNL     1       1.277  13.051   9.813  0.00  0.00    +0.000 OA
BRANCH  32  34
ATOM     33  O   UNL     1       1.034  11.820  11.665  0.00  0.00    +0.000 OA
ATOM     34  C   UNL     1       1.362  11.878  10.482  0.00  0.00    +0.000 C 
BRANCH  34  35
ATOM     35  C   UNL     1       1.860  10.649   9.763  0.00  0.00    +0.000 C 
BRANCH  35  36
ATOM     36  C   UNL     1       0.710   9.814   9.212  0.00  0.00    +0.000 C 
BRANCH  36  37
ATOM     37  C   UNL     1       0.187   8.748  10.181  0.00  0.00    +0.000 C 
BRANCH  37  38
ATOM     38  C   UNL     1      -1.285   8.920  10.579  0.00  0.00    +0.000 C 
BRANCH  38  39
ATOM     39  C   UNL     1      -2.063   9.790   9.587  0.00  0.00    +0.000 C 
BRANCH  39  40
ATOM     40  C   UNL     1      -3.099   9.010   8.773  0.00  0.00    +0.000 C 
BRANCH  40  41
ATOM     41  C   UNL     1      -2.560   8.523   7.425  0.00  0.00    +0.000 C 
BRANCH  41  42
ATOM     42  C   UNL     1      -2.413   7.000   7.347  0.00  0.00    +0.000 C 
BRANCH  42  43
ATOM     43  C   UNL     1      -1.012   6.451   7.627  0.00  0.00    +0.000 C 
BRANCH  43  44
ATOM     44  C   UNL     1      -0.039   6.486   6.444  0.00  0.00    +0.000 C 
BRANCH  44  45
ATOM     45  C   UNL     1       1.003   7.608   6.477  0.00  0.00    +0.000 C 
BRANCH  45  46
ATOM     46  C   UNL     1       0.656   8.863   5.673  0.00  0.00    +0.000 C 
ATOM     47  C   UNL     1       1.868   9.535   5.047  0.00  0.00    +0.000 C 
ENDBRANCH  45  46
ENDBRANCH  44  45
ENDBRANCH  43  44
ENDBRANCH  42  43
ENDBRANCH  41  42
ENDBRANCH  40  41
ENDBRANCH  39  40
ENDBRANCH  38  39
ENDBRANCH  37  38
ENDBRANCH  36  37
ENDBRANCH  35  36
ENDBRANCH  34  35
ENDBRANCH  32  34
ENDBRANCH   6  32
TORSDOF 20
ENDMDL
MODEL 9
REMARK VINA RESULT:      -3.5     19.094     24.924
REMARK  Name = 27924_Phorbol.pdbqt.pdb
REMARK  26 active torsions:
REMARK  status: ('A' for Active; 'I' for Inactive)
REMARK    1  A    between atoms: O_1  and  C_10
REMARK    2  A    between atoms: O_1  and  C_26
REMARK    3  A    between atoms: O_2  and  C_13
REMARK    4  A    between atoms: O_2  and  C_28
REMARK    5  A    between atoms: O_3  and  C_14
REMARK    6  A    between atoms: O_4  and  C_20
REMARK    7  A    between atoms: O_7  and  C_29
REMARK    8  A    between atoms: C_11  and  C_16
REMARK    9  A    between atoms: C_11  and  C_17
REMARK   10  A    between atoms: C_15  and  C_21
REMARK   11  A    between atoms: C_22  and  C_29
REMARK   12  A    between atoms: C_26  and  C_30
REMARK   13  A    between atoms: C_27  and  C_31
REMARK   14  A    between atoms: C_28  and  C_32
REMARK   15  A    between atoms: C_32  and  C_33
REMARK   16  A    between atoms: C_33  and  C_34
REMARK   17  A    between atoms: C_34  and  C_35
REMARK   18  A    between atoms: C_35  and  C_36
REMARK   19  A    between atoms: C_36  and  C_37
REMARK   20  A    between atoms: C_37  and  C_38
REMARK   21  A    between atoms: C_38  and  C_39
REMARK   22  A    between atoms: C_39  and  C_40
REMARK   23  A    between atoms: C_40  and  C_41
REMARK   24  A    between atoms: C_41  and  C_42
REMARK   25  A    between atoms: C_42  and  C_43
REMARK   26  A    between atoms: C_43  and  C_44
REMARK                            x       y       z     vdW  Elec       q    Type
REMARK                         _______ _______ _______ _____ _____    ______ ____
ROOT
ATOM      1  O   UNL     1      22.985  10.260  25.349  0.00  0.00    +0.000 OA
ATOM      2  C   UNL     1      29.220  10.918  22.025  0.00  0.00    +0.000 C 
ATOM      3  C   UNL     1      29.646  12.268  21.479  0.00  0.00    +0.000 C 
ATOM      4  C   UNL     1      29.202  11.124  20.523  0.00  0.00    +0.000 C 
ATOM      5  C   UNL     1      28.099  10.808  23.014  0.00  0.00    +0.000 C 
ATOM      6  C   UNL     1      28.767  13.480  21.839  0.00  0.00    +0.000 C 
ATOM      7  C   UNL     1      27.113  12.054  23.179  0.00  0.00    +0.000 C 
ATOM      8  C   UNL     1      28.084  13.299  23.241  0.00  0.00    +0.000 C 
ATOM      9  C   UNL     1      30.250  10.320  19.771  0.00  0.00    +0.000 C 
ATOM     10  C   UNL     1      27.901  11.176  19.761  0.00  0.00    +0.000 C 
ATOM     11  C   UNL     1      26.131  11.775  24.427  0.00  0.00    +0.000 C 
ATOM     12  C   UNL     1      27.376   9.475  22.963  0.00  0.00    +0.000 C 
ATOM     13  C   UNL     1      25.125  10.555  24.232  0.00  0.00    +0.000 C 
ATOM     14  C   UNL     1      27.455  14.615  23.698  0.00  0.00    +0.000 C 
ATOM     15  C   UNL     1      27.057   8.923  24.153  0.00  0.00    +0.000 C 
ATOM     16  C   UNL     1      25.642   9.161  24.650  0.00  0.00    +0.000 C 
ATOM     17  C   UNL     1      25.152  12.853  24.874  0.00  0.00    +0.000 C 
ATOM     18  C   UNL     1      23.924  10.982  25.047  0.00  0.00    +0.000 C 
ATOM     19  C   UNL     1      23.952  12.428  25.290  0.00  0.00    +0.000 C 
ATOM     20  C   UNL     1      22.811  13.173  25.863  0.00  0.00    +0.000 C 
ENDROOT
BRANCH   7  21
ATOM     21  O   UNL     1      26.290  12.248  22.021  0.00  0.00    +0.000 OA
ATOM     22  H   UNL     1      26.239  11.392  21.540  0.00  0.00    +0.000 HD
ENDBRANCH   7  21
BRANCH  13  23
ATOM     23  O   UNL     1      24.611  10.503  22.878  0.00  0.00    +0.000 OA
ATOM     24  H   UNL     1      24.081   9.681  22.821  0.00  0.00    +0.000 HD
ENDBRANCH  13  23
BRANCH   3  25
ATOM     25  O   UNL     1      31.063  12.466  21.718  0.00  0.00    +0.000 OA
BRANCH  25  27
ATOM     26  O   UNL     1      31.491  12.660  23.914  0.00  0.00    +0.000 OA
ATOM     27  C   UNL     1      31.720  12.095  22.846  0.00  0.00    +0.000 C 
ATOM     28  C   UNL     1      32.664  10.932  22.782  0.00  0.00    +0.000 C 
ENDBRANCH  25  27
ENDBRANCH   3  25
BRANCH  15  29
ATOM     29  C   UNL     1      28.070   8.623  25.228  0.00  0.00    +0.000 C 
BRANCH  29  30
ATOM     30  O   UNL     1      27.432   7.859  26.237  0.00  0.00    +0.000 OA
ATOM     31  H   UNL     1      26.610   7.512  25.848  0.00  0.00    +0.000 HD
ENDBRANCH  29  30
ENDBRANCH  15  29
BRANCH   6  32
ATOM     32  O   UNL     1      29.615  14.660  21.850  0.00  0.00    +0.000 OA
BRANCH  32  34
ATOM     33  O   UNL     1      30.407  15.591  19.977  0.00  0.00    +0.000 OA
ATOM     34  C   UNL     1      29.615  15.637  20.915  0.00  0.00    +0.000 C 
BRANCH  34  35
ATOM     35  C   UNL     1      28.635  16.778  21.036  0.00  0.00    +0.000 C 
BRANCH  35  36
ATOM     36  C   UNL     1      29.306  18.125  20.794  0.00  0.00    +0.000 C 
BRANCH  36  37
ATOM     37  C   UNL     1      28.926  18.785  19.464  0.00  0.00    +0.000 C 
BRANCH  37  38
ATOM     38  C   UNL     1      29.698  20.075  19.153  0.00  0.00    +0.000 C 
BRANCH  38  39
ATOM     39  C   UNL     1      30.315  20.065  17.751  0.00  0.00    +0.000 C 
BRANCH  39  40
ATOM     40  C   UNL     1      29.339  20.487  16.650  0.00  0.00    +0.000 C 
BRANCH  40  41
ATOM     41  C   UNL     1      28.639  21.816  16.945  0.00  0.00    +0.000 C 
BRANCH  41  42
ATOM     42  C   UNL     1      28.935  22.901  15.905  0.00  0.00    +0.000 C 
BRANCH  42  43
ATOM     43  C   UNL     1      29.894  24.008  16.350  0.00  0.00    +0.000 C 
BRANCH  43  44
ATOM     44  C   UNL     1      30.601  23.772  17.688  0.00  0.00    +0.000 C 
BRANCH  44  45
ATOM     45  C   UNL     1      30.225  24.738  18.815  0.00  0.00    +0.000 C 
BRANCH  45  46
ATOM     46  C   UNL     1      28.820  24.568  19.396  0.00  0.00    +0.000 C 
ATOM     47  C   UNL     1      28.726  23.469  20.444  0.00  0.00    +0.000 C 
ENDBRANCH  45  46
ENDBRANCH  44  45
ENDBRANCH  43  44
ENDBRANCH  42  43
ENDBRANCH  41  42
ENDBRANCH  40  41
ENDBRANCH  39  40
ENDBRANCH  38  39
ENDBRANCH  37  38
ENDBRANCH  36  37
ENDBRANCH  35  36
ENDBRANCH  34  35
ENDBRANCH  32  34
ENDBRANCH   6  32
TORSDOF 20
ENDMDL
