MODEL 1
REMARK VINA RESULT:      -3.4      0.000      0.000
REMARK  Name = 2Methylcholine.pdbqt.pdb
REMARK  3 active torsions:
REMARK  status: ('A' for Active; 'I' for Inactive)
REMARK    1  A    between atoms: C_1  and  N_2
REMARK    2  A    between atoms: C_1  and  C_6
REMARK    3  A    between atoms: C_6  and  O_8
REMARK                            x       y       z     vdW  Elec       q    Type
REMARK                         _______ _______ _______ _____ _____    ______ ____
ROOT
ATOM      1  C   UNL     1       9.164  26.086  27.612  0.00  0.00    +0.000 C 
ENDROOT
BRANCH   1   2
ATOM      2  N   UNL     1       9.686  26.011  28.962  0.00  0.00    +0.000 N 
ATOM      3  C   UNL     1       9.805  24.610  29.374  0.00  0.00    +0.000 C 
ATOM      4  C   UNL     1      11.006  26.645  29.024  0.00  0.00    +0.000 C 
ATOM      5  C   UNL     1       8.780  26.704  29.882  0.00  0.00    +0.000 C 
ENDBRANCH   1   2
BRANCH   1   6
ATOM      6  C   UNL     1       8.684  26.166  26.297  0.00  0.00    +0.000 C 
ATOM      7  C   UNL     1       9.412  26.925  25.252  0.00  0.00    +0.000 C 
BRANCH   6   8
ATOM      8  O   UNL     1       7.531  25.557  25.909  0.00  0.00    +0.000 OA
ATOM      9  H   UNL     1       6.957  26.224  25.485  0.00  0.00    +0.000 HD
ENDBRANCH   6   8
ENDBRANCH   1   6
TORSDOF 3
ENDMDL
MODEL 2
REMARK VINA RESULT:      -3.3      8.916     10.324
REMARK  Name = 2Methylcholine.pdbqt.pdb
REMARK  3 active torsions:
REMARK  status: ('A' for Active; 'I' for Inactive)
REMARK    1  A    between atoms: C_1  and  N_2
REMARK    2  A    between atoms: C_1  and  C_6
REMARK    3  A    between atoms: C_6  and  O_8
REMARK                            x       y       z     vdW  Elec       q    Type
REMARK                         _______ _______ _______ _____ _____    ______ ____
ROOT
ATOM      1  C   UNL     1      12.708  16.774  29.588  0.00  0.00    +0.000 C 
ENDROOT
BRANCH   1   2
ATOM      2  N   UNL     1      12.058  18.023  29.934  0.00  0.00    +0.000 N 
ATOM      3  C   UNL     1      11.903  18.119  31.388  0.00  0.00    +0.000 C 
ATOM      4  C   UNL     1      12.862  19.153  29.460  0.00  0.00    +0.000 C 
ATOM      5  C   UNL     1      10.735  18.082  29.307  0.00  0.00    +0.000 C 
ENDBRANCH   1   2
BRANCH   1   6
ATOM      6  C   UNL     1      13.353  15.568  29.277  0.00  0.00    +0.000 C 
ATOM      7  C   UNL     1      13.229  14.376  30.148  0.00  0.00    +0.000 C 
BRANCH   6   8
ATOM      8  O   UNL     1      14.124  15.427  28.164  0.00  0.00    +0.000 OA
ATOM      9  H   UNL     1      14.113  16.270  27.672  0.00  0.00    +0.000 HD
ENDBRANCH   6   8
ENDBRANCH   1   6
TORSDOF 3
ENDMDL
MODEL 3
REMARK VINA RESULT:      -3.2     23.389     24.396
REMARK  Name = 2Methylcholine.pdbqt.pdb
REMARK  3 active torsions:
REMARK  status: ('A' for Active; 'I' for Inactive)
REMARK    1  A    between atoms: C_1  and  N_2
REMARK    2  A    between atoms: C_1  and  C_6
REMARK    3  A    between atoms: C_6  and  O_8
REMARK                            x       y       z     vdW  Elec       q    Type
REMARK                         _______ _______ _______ _____ _____    ______ ____
ROOT
ATOM      1  C   UNL     1       1.757  11.265  10.453  0.00  0.00    +0.000 C 
ENDROOT
BRANCH   1   2
ATOM      2  N   UNL     1       0.635  11.437   9.551  0.00  0.00    +0.000 N 
ATOM      3  C   UNL     1       0.904  10.752   8.283  0.00  0.00    +0.000 C 
ATOM      4  C   UNL     1      -0.579  10.879  10.151  0.00  0.00    +0.000 C 
ATOM      5  C   UNL     1       0.426  12.863   9.288  0.00  0.00    +0.000 C 
ENDBRANCH   1   2
BRANCH   1   6
ATOM      6  C   UNL     1       2.843  11.126  11.328  0.00  0.00    +0.000 C 
ATOM      7  C   UNL     1       4.228  10.963  10.825  0.00  0.00    +0.000 C 
BRANCH   6   8
ATOM      8  O   UNL     1       2.688  11.132  12.680  0.00  0.00    +0.000 OA
ATOM      9  H   UNL     1       2.512  12.049  12.966  0.00  0.00    +0.000 HD
ENDBRANCH   6   8
ENDBRANCH   1   6
TORSDOF 3
ENDMDL
MODEL 4
REMARK VINA RESULT:      -3.2      1.532      2.093
REMARK  Name = 2Methylcholine.pdbqt.pdb
REMARK  3 active torsions:
REMARK  status: ('A' for Active; 'I' for Inactive)
REMARK    1  A    between atoms: C_1  and  N_2
REMARK    2  A    between atoms: C_1  and  C_6
REMARK    3  A    between atoms: C_6  and  O_8
REMARK                            x       y       z     vdW  Elec       q    Type
REMARK                         _______ _______ _______ _____ _____    ______ ____
ROOT
ATOM      1  C   UNL     1       9.023  26.391  27.719  0.00  0.00    +0.000 C 
ENDROOT
BRANCH   1   2
ATOM      2  N   UNL     1       9.966  27.320  28.310  0.00  0.00    +0.000 N 
ATOM      3  C   UNL     1      11.000  26.583  29.043  0.00  0.00    +0.000 C 
ATOM      4  C   UNL     1      10.599  28.124  27.262  0.00  0.00    +0.000 C 
ATOM      5  C   UNL     1       9.265  28.211  29.239  0.00  0.00    +0.000 C 
ENDBRANCH   1   2
BRANCH   1   6
ATOM      6  C   UNL     1       8.091  25.509  27.153  0.00  0.00    +0.000 C 
ATOM      7  C   UNL     1       7.446  24.443  27.956  0.00  0.00    +0.000 C 
BRANCH   6   8
ATOM      8  O   UNL     1       7.729  25.583  25.843  0.00  0.00    +0.000 OA
ATOM      9  H   UNL     1       6.911  26.112  25.779  0.00  0.00    +0.000 HD
ENDBRANCH   6   8
ENDBRANCH   1   6
TORSDOF 3
ENDMDL
MODEL 5
REMARK VINA RESULT:      -3.1     14.835     15.670
REMARK  Name = 2Methylcholine.pdbqt.pdb
REMARK  3 active torsions:
REMARK  status: ('A' for Active; 'I' for Inactive)
REMARK    1  A    between atoms: C_1  and  N_2
REMARK    2  A    between atoms: C_1  and  C_6
REMARK    3  A    between atoms: C_6  and  O_8
REMARK                            x       y       z     vdW  Elec       q    Type
REMARK                         _______ _______ _______ _____ _____    ______ ____
ROOT
ATOM      1  C   UNL     1      -1.283  27.735  16.877  0.00  0.00    +0.000 C 
ENDROOT
BRANCH   1   2
ATOM      2  N   UNL     1      -2.429  26.848  16.846  0.00  0.00    +0.000 N 
ATOM      3  C   UNL     1      -1.983  25.461  16.682  0.00  0.00    +0.000 C 
ATOM      4  C   UNL     1      -3.185  26.965  18.096  0.00  0.00    +0.000 C 
ATOM      5  C   UNL     1      -3.302  27.205  15.725  0.00  0.00    +0.000 C 
ENDBRANCH   1   2
BRANCH   1   6
ATOM      6  C   UNL     1      -0.163  28.579  16.886  0.00  0.00    +0.000 C 
ATOM      7  C   UNL     1       0.315  29.244  15.651  0.00  0.00    +0.000 C 
BRANCH   6   8
ATOM      8  O   UNL     1       0.543  28.831  18.021  0.00  0.00    +0.000 OA
ATOM      9  H   UNL     1       0.453  29.780  18.235  0.00  0.00    +0.000 HD
ENDBRANCH   6   8
ENDBRANCH   1   6
TORSDOF 3
ENDMDL
MODEL 6
REMARK VINA RESULT:      -2.9     15.166     16.309
REMARK  Name = 2Methylcholine.pdbqt.pdb
REMARK  3 active torsions:
REMARK  status: ('A' for Active; 'I' for Inactive)
REMARK    1  A    between atoms: C_1  and  N_2
REMARK    2  A    between atoms: C_1  and  C_6
REMARK    3  A    between atoms: C_6  and  O_8
REMARK                            x       y       z     vdW  Elec       q    Type
REMARK                         _______ _______ _______ _____ _____    ______ ____
ROOT
ATOM      1  C   UNL     1      -0.539  28.069  15.635  0.00  0.00    +0.000 C 
ENDROOT
BRANCH   1   2
ATOM      2  N   UNL     1      -0.463  27.551  14.283  0.00  0.00    +0.000 N 
ATOM      3  C   UNL     1       0.030  26.170  14.305  0.00  0.00    +0.000 C 
ATOM      4  C   UNL     1      -1.791  27.577  13.662  0.00  0.00    +0.000 C 
ATOM      5  C   UNL     1       0.452  28.373  13.488  0.00  0.00    +0.000 C 
ENDBRANCH   1   2
BRANCH   1   6
ATOM      6  C   UNL     1      -0.630  28.550  16.948  0.00  0.00    +0.000 C 
ATOM      7  C   UNL     1      -1.940  28.747  17.612  0.00  0.00    +0.000 C 
BRANCH   6   8
ATOM      8  O   UNL     1       0.473  28.861  17.683  0.00  0.00    +0.000 OA
ATOM      9  H   UNL     1       0.964  28.037  17.865  0.00  0.00    +0.000 HD
ENDBRANCH   6   8
ENDBRANCH   1   6
TORSDOF 3
ENDMDL
MODEL 7
REMARK VINA RESULT:      -2.9      8.519      9.735
REMARK  Name = 2Methylcholine.pdbqt.pdb
REMARK  3 active torsions:
REMARK  status: ('A' for Active; 'I' for Inactive)
REMARK    1  A    between atoms: C_1  and  N_2
REMARK    2  A    between atoms: C_1  and  C_6
REMARK    3  A    between atoms: C_6  and  O_8
REMARK                            x       y       z     vdW  Elec       q    Type
REMARK                         _______ _______ _______ _____ _____    ______ ____
ROOT
ATOM      1  C   UNL     1      12.166  17.255  29.784  0.00  0.00    +0.000 C 
ENDROOT
BRANCH   1   2
ATOM      2  N   UNL     1      13.187  18.156  30.281  0.00  0.00    +0.000 N 
ATOM      3  C   UNL     1      12.977  18.409  31.709  0.00  0.00    +0.000 C 
ATOM      4  C   UNL     1      14.513  17.564  30.087  0.00  0.00    +0.000 C 
ATOM      5  C   UNL     1      13.120  19.427  29.555  0.00  0.00    +0.000 C 
ENDBRANCH   1   2
BRANCH   1   6
ATOM      6  C   UNL     1      11.175  16.373  29.330  0.00  0.00    +0.000 C 
ATOM      7  C   UNL     1      10.110  15.873  30.231  0.00  0.00    +0.000 C 
BRANCH   6   8
ATOM      8  O   UNL     1      11.137  15.928  28.044  0.00  0.00    +0.000 OA
ATOM      9  H   UNL     1      10.206  15.917  27.749  0.00  0.00    +0.000 HD
ENDBRANCH   6   8
ENDBRANCH   1   6
TORSDOF 3
ENDMDL
MODEL 8
REMARK VINA RESULT:      -2.8     21.286     22.643
REMARK  Name = 2Methylcholine.pdbqt.pdb
REMARK  3 active torsions:
REMARK  status: ('A' for Active; 'I' for Inactive)
REMARK    1  A    between atoms: C_1  and  N_2
REMARK    2  A    between atoms: C_1  and  C_6
REMARK    3  A    between atoms: C_6  and  O_8
REMARK                            x       y       z     vdW  Elec       q    Type
REMARK                         _______ _______ _______ _____ _____    ______ ____
ROOT
ATOM      1  C   UNL     1      18.774  30.592   8.152  0.00  0.00    +0.000 C 
ENDROOT
BRANCH   1   2
ATOM      2  N   UNL     1      19.923  30.197   7.361  0.00  0.00    +0.000 N 
ATOM      3  C   UNL     1      21.094  30.988   7.753  0.00  0.00    +0.000 C 
ATOM      4  C   UNL     1      20.211  28.776   7.571  0.00  0.00    +0.000 C 
ATOM      5  C   UNL     1      19.648  30.424   5.940  0.00  0.00    +0.000 C 
ENDBRANCH   1   2
BRANCH   1   6
ATOM      6  C   UNL     1      17.659  30.947   8.923  0.00  0.00    +0.000 C 
ATOM      7  C   UNL     1      17.570  32.264   9.597  0.00  0.00    +0.000 C 
BRANCH   6   8
ATOM      8  O   UNL     1      16.602  30.107   9.096  0.00  0.00    +0.000 OA
ATOM      9  H   UNL     1      16.258  29.859   8.216  0.00  0.00    +0.000 HD
ENDBRANCH   6   8
ENDBRANCH   1   6
TORSDOF 3
ENDMDL
MODEL 9
REMARK VINA RESULT:      -2.7     19.679     20.421
REMARK  Name = 2Methylcholine.pdbqt.pdb
REMARK  3 active torsions:
REMARK  status: ('A' for Active; 'I' for Inactive)
REMARK    1  A    between atoms: C_1  and  N_2
REMARK    2  A    between atoms: C_1  and  C_6
REMARK    3  A    between atoms: C_6  and  O_8
REMARK                            x       y       z     vdW  Elec       q    Type
REMARK                         _______ _______ _______ _____ _____    ______ ____
ROOT
ATOM      1  C   UNL     1      23.924  12.122  24.816  0.00  0.00    +0.000 C 
ENDROOT
BRANCH   1   2
ATOM      2  N   UNL     1      23.646  12.971  25.958  0.00  0.00    +0.000 N 
ATOM      3  C   UNL     1      22.198  13.081  26.158  0.00  0.00    +0.000 C 
ATOM      4  C   UNL     1      24.256  12.403  27.163  0.00  0.00    +0.000 C 
ATOM      5  C   UNL     1      24.200  14.308  25.727  0.00  0.00    +0.000 C 
ENDBRANCH   1   2
BRANCH   1   6
ATOM      6  C   UNL     1      24.184  11.322  23.695  0.00  0.00    +0.000 C 
ATOM      7  C   UNL     1      25.315  11.610  22.782  0.00  0.00    +0.000 C 
BRANCH   6   8
ATOM      8  O   UNL     1      23.416  10.242  23.383  0.00  0.00    +0.000 OA
ATOM      9  H   UNL     1      23.052  10.370  22.486  0.00  0.00    +0.000 HD
ENDBRANCH   6   8
ENDBRANCH   1   6
TORSDOF 3
ENDMDL
