MODEL 1
REMARK VINA RESULT:      -7.5      0.000      0.000
REMARK  Name = 3035817_K252a.pdbqt.pdb
REMARK  3 active torsions:
REMARK  status: ('A' for Active; 'I' for Inactive)
REMARK    1  A    between atoms: C_3  and  O_7
REMARK    2  A    between atoms: C_3  and  C_9
REMARK    3  A    between atoms: C_9  and  O_11
REMARK                            x       y       z     vdW  Elec       q    Type
REMARK                         _______ _______ _______ _____ _____    ______ ____
ROOT
ATOM      1  O   UNL     1      26.654  11.623  24.795  0.00  0.00    +0.000 OA
ATOM      2  C   UNL     1      25.430  10.887  25.152  0.00  0.00    +0.000 C 
ATOM      3  C   UNL     1      24.298  11.571  24.271  0.00  0.00    +0.000 C 
ATOM      4  C   UNL     1      26.519  11.871  23.418  0.00  0.00    +0.000 C 
ATOM      5  C   UNL     1      25.137  12.077  23.188  0.00  0.00    +0.000 C 
ATOM      6  C   UNL     1      25.265  11.088  26.694  0.00  0.00    +0.000 C 
ATOM      7  N   UNL     1      25.671   9.473  24.797  0.00  0.00    +0.000 N 
ATOM      8  C   UNL     1      26.461   8.912  23.826  0.00  0.00    +0.000 A 
ATOM      9  C   UNL     1      27.163   9.579  22.822  0.00  0.00    +0.000 A 
ATOM     10  C   UNL     1      26.540   7.519  23.732  0.00  0.00    +0.000 A 
ATOM     11  N   UNL     1      27.147  10.925  22.625  0.00  0.00    +0.000 N 
ATOM     12  C   UNL     1      27.818   8.757  21.898  0.00  0.00    +0.000 A 
ATOM     13  C   UNL     1      27.831  11.009  21.399  0.00  0.00    +0.000 A 
ATOM     14  C   UNL     1      28.272   9.705  20.954  0.00  0.00    +0.000 A 
ATOM     15  C   UNL     1      28.113  12.160  20.645  0.00  0.00    +0.000 A 
ATOM     16  C   UNL     1      28.979   9.629  19.738  0.00  0.00    +0.000 A 
ATOM     17  C   UNL     1      29.250  10.783  19.004  0.00  0.00    +0.000 A 
ATOM     18  C   UNL     1      28.822  12.024  19.452  0.00  0.00    +0.000 A 
ATOM     19  C   UNL     1      27.923   7.355  21.803  0.00  0.00    +0.000 A 
ATOM     20  C   UNL     1      27.208   6.677  22.832  0.00  0.00    +0.000 A 
ATOM     21  C   UNL     1      28.534   6.406  20.902  0.00  0.00    +0.000 C 
ATOM     22  C   UNL     1      27.368   5.219  22.573  0.00  0.00    +0.000 C 
ATOM     23  N   UNL     1      28.136   5.185  21.462  0.00  0.00    +0.000 N 
ATOM     24  H   UNL     1      28.423   4.316  21.032  0.00  0.00    +0.000 HD
ATOM     25  O   UNL     1      29.226   6.512  19.901  0.00  0.00    +0.000 OA
ATOM     26  C   UNL     1      25.649   7.107  24.740  0.00  0.00    +0.000 A 
ATOM     27  C   UNL     1      25.108   8.298  25.355  0.00  0.00    +0.000 A 
ATOM     28  C   UNL     1      25.196   5.851  25.192  0.00  0.00    +0.000 A 
ATOM     29  C   UNL     1      24.137   8.183  26.365  0.00  0.00    +0.000 A 
ATOM     30  C   UNL     1      23.722   6.917  26.779  0.00  0.00    +0.000 A 
ATOM     31  C   UNL     1      24.245   5.769  26.208  0.00  0.00    +0.000 A 
ENDROOT
BRANCH   3  32
ATOM     32  O   UNL     1      23.328  10.664  23.725  0.00  0.00    +0.000 OA
ATOM     33  H   UNL     1      23.103  10.985  22.824  0.00  0.00    +0.000 HD
ENDBRANCH   3  32
BRANCH   3  34
ATOM     34  C   UNL     1      23.603  12.704  25.023  0.00  0.00    +0.000 C 
ATOM     35  O   UNL     1      24.167  13.790  25.179  0.00  0.00    +0.000 OA
BRANCH  34  36
ATOM     36  O   UNL     1      22.380  12.320  25.500  0.00  0.00    +0.000 OA
ATOM     37  C   UNL     1      21.943  12.888  26.704  0.00  0.00    +0.000 C 
ENDBRANCH  34  36
ENDBRANCH   3  34
TORSDOF 3
ENDMDL
MODEL 2
REMARK VINA RESULT:      -7.1     24.710     27.841
REMARK  Name = 3035817_K252a.pdbqt.pdb
REMARK  3 active torsions:
REMARK  status: ('A' for Active; 'I' for Inactive)
REMARK    1  A    between atoms: C_3  and  O_7
REMARK    2  A    between atoms: C_3  and  C_9
REMARK    3  A    between atoms: C_9  and  O_11
REMARK                            x       y       z     vdW  Elec       q    Type
REMARK                         _______ _______ _______ _____ _____    ______ ____
ROOT
ATOM      1  O   UNL     1      -1.886  15.293  24.169  0.00  0.00    +0.000 OA
ATOM      2  C   UNL     1      -1.950  15.995  22.877  0.00  0.00    +0.000 C 
ATOM      3  C   UNL     1      -0.619  16.864  22.843  0.00  0.00    +0.000 C 
ATOM      4  C   UNL     1      -0.524  14.980  24.326  0.00  0.00    +0.000 C 
ATOM      5  C   UNL     1       0.195  16.053  23.745  0.00  0.00    +0.000 C 
ATOM      6  C   UNL     1      -3.271  16.830  22.928  0.00  0.00    +0.000 C 
ATOM      7  N   UNL     1      -1.991  14.951  21.832  0.00  0.00    +0.000 N 
ATOM      8  C   UNL     1      -1.479  13.679  21.812  0.00  0.00    +0.000 A 
ATOM      9  C   UNL     1      -0.658  13.085  22.772  0.00  0.00    +0.000 A 
ATOM     10  C   UNL     1      -1.703  12.871  20.692  0.00  0.00    +0.000 A 
ATOM     11  N   UNL     1      -0.199  13.706  23.892  0.00  0.00    +0.000 N 
ATOM     12  C   UNL     1      -0.197  11.802  22.459  0.00  0.00    +0.000 A 
ATOM     13  C   UNL     1       0.713  12.743  24.358  0.00  0.00    +0.000 A 
ATOM     14  C   UNL     1       0.709  11.566  23.516  0.00  0.00    +0.000 A 
ATOM     15  C   UNL     1       1.545  12.817  25.488  0.00  0.00    +0.000 A 
ATOM     16  C   UNL     1       1.573  10.508  23.860  0.00  0.00    +0.000 A 
ATOM     17  C   UNL     1       2.389  10.599  24.987  0.00  0.00    +0.000 A 
ATOM     18  C   UNL     1       2.374  11.735  25.783  0.00  0.00    +0.000 A 
ATOM     19  C   UNL     1      -0.429  10.970  21.345  0.00  0.00    +0.000 A 
ATOM     20  C   UNL     1      -1.271  11.578  20.369  0.00  0.00    +0.000 A 
ATOM     21  C   UNL     1      -0.000   9.665  20.901  0.00  0.00    +0.000 C 
ATOM     22  C   UNL     1      -1.382  10.611  19.242  0.00  0.00    +0.000 C 
ATOM     23  N   UNL     1      -0.628   9.568  19.653  0.00  0.00    +0.000 N 
ATOM     24  H   UNL     1      -0.506   8.737  19.090  0.00  0.00    +0.000 HD
ATOM     25  O   UNL     1       0.708   8.795  21.386  0.00  0.00    +0.000 OA
ATOM     26  C   UNL     1      -2.411  13.740  19.842  0.00  0.00    +0.000 A 
ATOM     27  C   UNL     1      -2.552  15.003  20.531  0.00  0.00    +0.000 A 
ATOM     28  C   UNL     1      -2.928  13.626  18.536  0.00  0.00    +0.000 A 
ATOM     29  C   UNL     1      -3.176  16.085  19.886  0.00  0.00    +0.000 A 
ATOM     30  C   UNL     1      -3.672  15.921  18.593  0.00  0.00    +0.000 A 
ATOM     31  C   UNL     1      -3.557  14.711  17.929  0.00  0.00    +0.000 A 
ENDROOT
BRANCH   3  32
ATOM     32  O   UNL     1       0.027  16.929  21.563  0.00  0.00    +0.000 OA
ATOM     33  H   UNL     1      -0.131  16.070  21.112  0.00  0.00    +0.000 HD
ENDBRANCH   3  32
BRANCH   3  34
ATOM     34  C   UNL     1      -0.846  18.268  23.398  0.00  0.00    +0.000 C 
ATOM     35  O   UNL     1      -1.138  19.199  22.643  0.00  0.00    +0.000 OA
BRANCH  34  36
ATOM     36  O   UNL     1      -0.630  18.320  24.747  0.00  0.00    +0.000 OA
ATOM     37  C   UNL     1      -1.668  18.805  25.555  0.00  0.00    +0.000 C 
ENDBRANCH  34  36
ENDBRANCH   3  34
TORSDOF 3
ENDMDL
MODEL 3
REMARK VINA RESULT:      -7.1      6.533     11.551
REMARK  Name = 3035817_K252a.pdbqt.pdb
REMARK  3 active torsions:
REMARK  status: ('A' for Active; 'I' for Inactive)
REMARK    1  A    between atoms: C_3  and  O_7
REMARK    2  A    between atoms: C_3  and  C_9
REMARK    3  A    between atoms: C_9  and  O_11
REMARK                            x       y       z     vdW  Elec       q    Type
REMARK                         _______ _______ _______ _____ _____    ______ ____
ROOT
ATOM      1  O   UNL     1      30.511  14.367  15.159  0.00  0.00    +0.000 OA
ATOM      2  C   UNL     1      29.817  15.590  14.725  0.00  0.00    +0.000 C 
ATOM      3  C   UNL     1      28.433  15.065  14.147  0.00  0.00    +0.000 C 
ATOM      4  C   UNL     1      29.488  13.559  15.687  0.00  0.00    +0.000 C 
ATOM      5  C   UNL     1      28.337  13.819  14.904  0.00  0.00    +0.000 C 
ATOM      6  C   UNL     1      30.760  16.242  13.662  0.00  0.00    +0.000 C 
ATOM      7  N   UNL     1      29.663  16.436  15.926  0.00  0.00    +0.000 N 
ATOM      8  C   UNL     1      29.542  16.103  17.251  0.00  0.00    +0.000 A 
ATOM      9  C   UNL     1      29.410  14.822  17.789  0.00  0.00    +0.000 A 
ATOM     10  C   UNL     1      29.451  17.121  18.206  0.00  0.00    +0.000 A 
ATOM     11  N   UNL     1      29.347  13.675  17.059  0.00  0.00    +0.000 N 
ATOM     12  C   UNL     1      29.207  14.768  19.172  0.00  0.00    +0.000 A 
ATOM     13  C   UNL     1      29.015  12.753  18.067  0.00  0.00    +0.000 A 
ATOM     14  C   UNL     1      28.953  13.392  19.363  0.00  0.00    +0.000 A 
ATOM     15  C   UNL     1      28.777  11.375  17.931  0.00  0.00    +0.000 A 
ATOM     16  C   UNL     1      28.634  12.591  20.477  0.00  0.00    +0.000 A 
ATOM     17  C   UNL     1      28.403  11.224  20.323  0.00  0.00    +0.000 A 
ATOM     18  C   UNL     1      28.472  10.631  19.071  0.00  0.00    +0.000 A 
ATOM     19  C   UNL     1      29.133  15.783  20.148  0.00  0.00    +0.000 A 
ATOM     20  C   UNL     1      29.271  17.090  19.595  0.00  0.00    +0.000 A 
ATOM     21  C   UNL     1      28.906  15.857  21.571  0.00  0.00    +0.000 C 
ATOM     22  C   UNL     1      29.122  18.047  20.726  0.00  0.00    +0.000 C 
ATOM     23  N   UNL     1      28.922  17.241  21.791  0.00  0.00    +0.000 N 
ATOM     24  H   UNL     1      28.785  17.605  22.724  0.00  0.00    +0.000 HD
ATOM     25  O   UNL     1      28.734  15.022  22.447  0.00  0.00    +0.000 OA
ATOM     26  C   UNL     1      29.463  18.276  17.403  0.00  0.00    +0.000 A 
ATOM     27  C   UNL     1      29.561  17.847  16.025  0.00  0.00    +0.000 A 
ATOM     28  C   UNL     1      29.363  19.656  17.671  0.00  0.00    +0.000 A 
ATOM     29  C   UNL     1      29.535  18.801  14.993  0.00  0.00    +0.000 A 
ATOM     30  C   UNL     1      29.436  20.155  15.310  0.00  0.00    +0.000 A 
ATOM     31  C   UNL     1      29.358  20.579  16.627  0.00  0.00    +0.000 A 
ENDROOT
BRANCH   3  32
ATOM     32  O   UNL     1      27.298  15.887  14.457  0.00  0.00    +0.000 OA
ATOM     33  H   UNL     1      26.912  16.186  13.605  0.00  0.00    +0.000 HD
ENDBRANCH   3  32
BRANCH   3  34
ATOM     34  C   UNL     1      28.509  14.806  12.644  0.00  0.00    +0.000 C 
ATOM     35  O   UNL     1      28.137  15.666  11.841  0.00  0.00    +0.000 OA
BRANCH  34  36
ATOM     36  O   UNL     1      28.965  13.547  12.370  0.00  0.00    +0.000 OA
ATOM     37  C   UNL     1      29.950  13.411  11.382  0.00  0.00    +0.000 C 
ENDBRANCH  34  36
ENDBRANCH   3  34
TORSDOF 3
ENDMDL
MODEL 4
REMARK VINA RESULT:      -6.8     32.908     34.537
REMARK  Name = 3035817_K252a.pdbqt.pdb
REMARK  3 active torsions:
REMARK  status: ('A' for Active; 'I' for Inactive)
REMARK    1  A    between atoms: C_3  and  O_7
REMARK    2  A    between atoms: C_3  and  C_9
REMARK    3  A    between atoms: C_9  and  O_11
REMARK                            x       y       z     vdW  Elec       q    Type
REMARK                         _______ _______ _______ _____ _____    ______ ____
ROOT
ATOM      1  O   UNL     1       0.662  27.329  15.084  0.00  0.00    +0.000 OA
ATOM      2  C   UNL     1      -0.768  27.111  14.812  0.00  0.00    +0.000 C 
ATOM      3  C   UNL     1      -1.501  28.211  15.694  0.00  0.00    +0.000 C 
ATOM      4  C   UNL     1       0.786  28.726  15.184  0.00  0.00    +0.000 C 
ATOM      5  C   UNL     1      -0.416  29.186  15.775  0.00  0.00    +0.000 C 
ATOM      6  C   UNL     1      -1.049  25.635  15.248  0.00  0.00    +0.000 C 
ATOM      7  N   UNL     1      -0.955  27.308  13.360  0.00  0.00    +0.000 N 
ATOM      8  C   UNL     1      -0.276  28.093  12.464  0.00  0.00    +0.000 A 
ATOM      9  C   UNL     1       0.723  29.025  12.749  0.00  0.00    +0.000 A 
ATOM     10  C   UNL     1      -0.640  28.060  11.114  0.00  0.00    +0.000 A 
ATOM     11  N   UNL     1       1.167  29.331  13.999  0.00  0.00    +0.000 N 
ATOM     12  C   UNL     1       1.186  29.765  11.655  0.00  0.00    +0.000 A 
ATOM     13  C   UNL     1       1.987  30.436  13.711  0.00  0.00    +0.000 A 
ATOM     14  C   UNL     1       2.034  30.699  12.289  0.00  0.00    +0.000 A 
ATOM     15  C   UNL     1       2.716  31.227  14.614  0.00  0.00    +0.000 A 
ATOM     16  C   UNL     1       2.823  31.778  11.845  0.00  0.00    +0.000 A 
ATOM     17  C   UNL     1       3.542  32.551  12.757  0.00  0.00    +0.000 A 
ATOM     18  C   UNL     1       3.485  32.279  14.116  0.00  0.00    +0.000 A 
ATOM     19  C   UNL     1       0.843  29.728  10.288  0.00  0.00    +0.000 A 
ATOM     20  C   UNL     1      -0.175  28.772  10.000  0.00  0.00    +0.000 A 
ATOM     21  C   UNL     1       1.221  30.441   9.091  0.00  0.00    +0.000 C 
ATOM     22  C   UNL     1      -0.463  28.884   8.544  0.00  0.00    +0.000 C 
ATOM     23  N   UNL     1       0.384  29.854   8.134  0.00  0.00    +0.000 N 
ATOM     24  H   UNL     1       0.425  30.161   7.172  0.00  0.00    +0.000 HD
ATOM     25  O   UNL     1       2.028  31.326   8.851  0.00  0.00    +0.000 OA
ATOM     26  C   UNL     1      -1.733  27.176  11.128  0.00  0.00    +0.000 A 
ATOM     27  C   UNL     1      -1.933  26.752  12.496  0.00  0.00    +0.000 A 
ATOM     28  C   UNL     1      -2.621  26.700  10.141  0.00  0.00    +0.000 A 
ATOM     29  C   UNL     1      -3.006  25.901  12.815  0.00  0.00    +0.000 A 
ATOM     30  C   UNL     1      -3.855  25.457  11.802  0.00  0.00    +0.000 A 
ATOM     31  C   UNL     1      -3.664  25.843  10.485  0.00  0.00    +0.000 A 
ENDROOT
BRANCH   3  32
ATOM     32  O   UNL     1      -2.636  28.828  15.068  0.00  0.00    +0.000 OA
ATOM     33  H   UNL     1      -2.311  29.292  14.265  0.00  0.00    +0.000 HD
ENDBRANCH   3  32
BRANCH   3  34
ATOM     34  C   UNL     1      -1.880  27.673  17.071  0.00  0.00    +0.000 C 
ATOM     35  O   UNL     1      -1.014  27.488  17.931  0.00  0.00    +0.000 OA
BRANCH  34  36
ATOM     36  O   UNL     1      -3.217  27.401  17.159  0.00  0.00    +0.000 OA
ATOM     37  C   UNL     1      -3.610  26.303  17.935  0.00  0.00    +0.000 C 
ENDBRANCH  34  36
ENDBRANCH   3  34
TORSDOF 3
ENDMDL
MODEL 5
REMARK VINA RESULT:      -6.8      5.832      9.038
REMARK  Name = 3035817_K252a.pdbqt.pdb
REMARK  3 active torsions:
REMARK  status: ('A' for Active; 'I' for Inactive)
REMARK    1  A    between atoms: C_3  and  O_7
REMARK    2  A    between atoms: C_3  and  C_9
REMARK    3  A    between atoms: C_9  and  O_11
REMARK                            x       y       z     vdW  Elec       q    Type
REMARK                         _______ _______ _______ _____ _____    ______ ____
ROOT
ATOM      1  O   UNL     1      31.186  16.858  17.906  0.00  0.00    +0.000 OA
ATOM      2  C   UNL     1      30.433  17.614  18.919  0.00  0.00    +0.000 C 
ATOM      3  C   UNL     1      29.264  18.307  18.094  0.00  0.00    +0.000 C 
ATOM      4  C   UNL     1      30.198  16.367  17.035  0.00  0.00    +0.000 C 
ATOM      5  C   UNL     1      29.191  17.362  16.982  0.00  0.00    +0.000 C 
ATOM      6  C   UNL     1      31.467  18.609  19.541  0.00  0.00    +0.000 C 
ATOM      7  N   UNL     1      29.946  16.628  19.905  0.00  0.00    +0.000 N 
ATOM      8  C   UNL     1      29.622  15.303  19.766  0.00  0.00    +0.000 A 
ATOM      9  C   UNL     1      29.560  14.570  18.580  0.00  0.00    +0.000 A 
ATOM     10  C   UNL     1      29.220  14.577  20.892  0.00  0.00    +0.000 A 
ATOM     11  N   UNL     1      29.786  15.081  17.339  0.00  0.00    +0.000 N 
ATOM     12  C   UNL     1      29.108  13.253  18.709  0.00  0.00    +0.000 A 
ATOM     13  C   UNL     1      29.393  13.990  16.542  0.00  0.00    +0.000 A 
ATOM     14  C   UNL     1      29.004  12.860  17.356  0.00  0.00    +0.000 A 
ATOM     15  C   UNL     1      29.367  13.911  15.140  0.00  0.00    +0.000 A 
ATOM     16  C   UNL     1      28.589  11.686  16.697  0.00  0.00    +0.000 A 
ATOM     17  C   UNL     1      28.571  11.626  15.304  0.00  0.00    +0.000 A 
ATOM     18  C   UNL     1      28.953  12.721  14.543  0.00  0.00    +0.000 A 
ATOM     19  C   UNL     1      28.719  12.503  19.838  0.00  0.00    +0.000 A 
ATOM     20  C   UNL     1      28.787  13.253  21.048  0.00  0.00    +0.000 A 
ATOM     21  C   UNL     1      28.220  11.173  20.094  0.00  0.00    +0.000 C 
ATOM     22  C   UNL     1      28.303  12.355  22.132  0.00  0.00    +0.000 C 
ATOM     23  N   UNL     1      28.014  11.208  21.479  0.00  0.00    +0.000 N 
ATOM     24  H   UNL     1      27.656  10.392  21.957  0.00  0.00    +0.000 HD
ATOM     25  O   UNL     1      27.996  10.201  19.388  0.00  0.00    +0.000 OA
ATOM     26  C   UNL     1      29.232  15.563  21.895  0.00  0.00    +0.000 A 
ATOM     27  C   UNL     1      29.643  16.805  21.279  0.00  0.00    +0.000 A 
ATOM     28  C   UNL     1      28.904  15.569  23.266  0.00  0.00    +0.000 A 
ATOM     29  C   UNL     1      29.688  17.983  22.044  0.00  0.00    +0.000 A 
ATOM     30  C   UNL     1      29.356  17.937  23.398  0.00  0.00    +0.000 A 
ATOM     31  C   UNL     1      28.976  16.750  24.003  0.00  0.00    +0.000 A 
ENDROOT
BRANCH   3  32
ATOM     32  O   UNL     1      27.993  18.340  18.761  0.00  0.00    +0.000 OA
ATOM     33  H   UNL     1      27.330  17.958  18.145  0.00  0.00    +0.000 HD
ENDBRANCH   3  32
BRANCH   3  34
ATOM     34  C   UNL     1      29.655  19.704  17.621  0.00  0.00    +0.000 C 
ATOM     35  O   UNL     1      30.461  19.851  16.698  0.00  0.00    +0.000 OA
BRANCH  34  36
ATOM     36  O   UNL     1      29.055  20.678  18.371  0.00  0.00    +0.000 OA
ATOM     37  C   UNL     1      28.342  21.677  17.692  0.00  0.00    +0.000 C 
ENDBRANCH  34  36
ENDBRANCH   3  34
TORSDOF 3
ENDMDL
MODEL 6
REMARK VINA RESULT:      -6.8      4.090      9.072
REMARK  Name = 3035817_K252a.pdbqt.pdb
REMARK  3 active torsions:
REMARK  status: ('A' for Active; 'I' for Inactive)
REMARK    1  A    between atoms: C_3  and  O_7
REMARK    2  A    between atoms: C_3  and  C_9
REMARK    3  A    between atoms: C_9  and  O_11
REMARK                            x       y       z     vdW  Elec       q    Type
REMARK                         _______ _______ _______ _____ _____    ______ ____
ROOT
ATOM      1  O   UNL     1      25.952  10.416  26.830  0.00  0.00    +0.000 OA
ATOM      2  C   UNL     1      24.840  11.221  26.299  0.00  0.00    +0.000 C 
ATOM      3  C   UNL     1      23.754  10.144  25.867  0.00  0.00    +0.000 C 
ATOM      4  C   UNL     1      25.319   9.358  27.506  0.00  0.00    +0.000 C 
ATOM      5  C   UNL     1      24.148   9.063  26.767  0.00  0.00    +0.000 C 
ATOM      6  C   UNL     1      25.454  12.037  25.114  0.00  0.00    +0.000 C 
ATOM      7  N   UNL     1      24.389  12.095  27.401  0.00  0.00    +0.000 N 
ATOM      8  C   UNL     1      24.418  11.914  28.760  0.00  0.00    +0.000 A 
ATOM      9  C   UNL     1      24.789  10.759  29.449  0.00  0.00    +0.000 A 
ATOM     10  C   UNL     1      23.956  12.938  29.595  0.00  0.00    +0.000 A 
ATOM     11  N   UNL     1      25.158   9.589  28.861  0.00  0.00    +0.000 N 
ATOM     12  C   UNL     1      24.636  10.812  30.839  0.00  0.00    +0.000 A 
ATOM     13  C   UNL     1      25.213   8.748  29.987  0.00  0.00    +0.000 A 
ATOM     14  C   UNL     1      24.925   9.478  31.202  0.00  0.00    +0.000 A 
ATOM     15  C   UNL     1      25.515   7.376  30.025  0.00  0.00    +0.000 A 
ATOM     16  C   UNL     1      24.947   8.766  32.418  0.00  0.00    +0.000 A 
ATOM     17  C   UNL     1      25.251   7.406  32.436  0.00  0.00    +0.000 A 
ATOM     18  C   UNL     1      25.527   6.726  31.259  0.00  0.00    +0.000 A 
ATOM     19  C   UNL     1      24.191  11.841  31.693  0.00  0.00    +0.000 A 
ATOM     20  C   UNL     1      23.816  13.021  30.987  0.00  0.00    +0.000 A 
ATOM     21  C   UNL     1      23.967  12.007  33.110  0.00  0.00    +0.000 C 
ATOM     22  C   UNL     1      23.325  13.989  32.006  0.00  0.00    +0.000 C 
ATOM     23  N   UNL     1      23.459  13.311  33.167  0.00  0.00    +0.000 N 
ATOM     24  H   UNL     1      23.203  13.714  34.058  0.00  0.00    +0.000 HD
ATOM     25  O   UNL     1      24.134  11.289  34.084  0.00  0.00    +0.000 OA
ATOM     26  C   UNL     1      23.520  13.898  28.664  0.00  0.00    +0.000 A 
ATOM     27  C   UNL     1      23.759  13.364  27.342  0.00  0.00    +0.000 A 
ATOM     28  C   UNL     1      22.905  15.162  28.777  0.00  0.00    +0.000 A 
ATOM     29  C   UNL     1      23.362  14.096  26.210  0.00  0.00    +0.000 A 
ATOM     30  C   UNL     1      22.759  15.343  26.374  0.00  0.00    +0.000 A 
ATOM     31  C   UNL     1      22.539  15.873  27.636  0.00  0.00    +0.000 A 
ENDROOT
BRANCH   3  32
ATOM     32  O   UNL     1      22.395  10.513  26.146  0.00  0.00    +0.000 OA
ATOM     33  H   UNL     1      22.049  10.975  25.352  0.00  0.00    +0.000 HD
ENDBRANCH   3  32
BRANCH   3  34
ATOM     34  C   UNL     1      23.907   9.742  24.402  0.00  0.00    +0.000 C 
ATOM     35  O   UNL     1      23.249  10.308  23.525  0.00  0.00    +0.000 OA
BRANCH  34  36
ATOM     36  O   UNL     1      24.779   8.699  24.252  0.00  0.00    +0.000 OA
ATOM     37  C   UNL     1      25.818   8.846  23.323  0.00  0.00    +0.000 C 
ENDBRANCH  34  36
ENDBRANCH   3  34
TORSDOF 3
ENDMDL
MODEL 7
REMARK VINA RESULT:      -6.7      3.847      8.546
REMARK  Name = 3035817_K252a.pdbqt.pdb
REMARK  3 active torsions:
REMARK  status: ('A' for Active; 'I' for Inactive)
REMARK    1  A    between atoms: C_3  and  O_7
REMARK    2  A    between atoms: C_3  and  C_9
REMARK    3  A    between atoms: C_9  and  O_11
REMARK                            x       y       z     vdW  Elec       q    Type
REMARK                         _______ _______ _______ _____ _____    ______ ____
ROOT
ATOM      1  O   UNL     1      22.676  12.104  25.604  0.00  0.00    +0.000 OA
ATOM      2  C   UNL     1      23.808  11.258  26.014  0.00  0.00    +0.000 C 
ATOM      3  C   UNL     1      25.047  11.857  25.218  0.00  0.00    +0.000 C 
ATOM      4  C   UNL     1      23.227  13.394  25.505  0.00  0.00    +0.000 C 
ATOM      5  C   UNL     1      24.553  13.220  25.039  0.00  0.00    +0.000 C 
ATOM      6  C   UNL     1      23.408   9.805  25.595  0.00  0.00    +0.000 C 
ATOM      7  N   UNL     1      23.932  11.400  27.479  0.00  0.00    +0.000 N 
ATOM      8  C   UNL     1      23.618  12.445  28.310  0.00  0.00    +0.000 A 
ATOM      9  C   UNL     1      23.199  13.722  27.937  0.00  0.00    +0.000 A 
ATOM     10  C   UNL     1      23.799  12.297  29.689  0.00  0.00    +0.000 A 
ATOM     11  N   UNL     1      23.065  14.151  26.652  0.00  0.00    +0.000 N 
ATOM     12  C   UNL     1      23.035  14.633  28.986  0.00  0.00    +0.000 A 
ATOM     13  C   UNL     1      22.831  15.521  26.867  0.00  0.00    +0.000 A 
ATOM     14  C   UNL     1      22.782  15.829  28.280  0.00  0.00    +0.000 A 
ATOM     15  C   UNL     1      22.640  16.525  25.904  0.00  0.00    +0.000 A 
ATOM     16  C   UNL     1      22.550  17.168  28.654  0.00  0.00    +0.000 A 
ATOM     17  C   UNL     1      22.360  18.151  27.683  0.00  0.00    +0.000 A 
ATOM     18  C   UNL     1      22.407  17.832  26.333  0.00  0.00    +0.000 A 
ATOM     19  C   UNL     1      23.195  14.493  30.380  0.00  0.00    +0.000 A 
ATOM     20  C   UNL     1      23.619  13.186  30.758  0.00  0.00    +0.000 A 
ATOM     21  C   UNL     1      23.085  15.345  31.540  0.00  0.00    +0.000 C 
ATOM     22  C   UNL     1      23.792  13.207  32.237  0.00  0.00    +0.000 C 
ATOM     23  N   UNL     1      23.460  14.473  32.570  0.00  0.00    +0.000 N 
ATOM     24  H   UNL     1      23.479  14.801  33.526  0.00  0.00    +0.000 HD
ATOM     25  O   UNL     1      22.765  16.513  31.708  0.00  0.00    +0.000 OA
ATOM     26  C   UNL     1      24.351  11.007  29.775  0.00  0.00    +0.000 A 
ATOM     27  C   UNL     1      24.454  10.487  28.430  0.00  0.00    +0.000 A 
ATOM     28  C   UNL     1      24.820  10.212  30.841  0.00  0.00    +0.000 A 
ATOM     29  C   UNL     1      25.032   9.224  28.211  0.00  0.00    +0.000 A 
ATOM     30  C   UNL     1      25.480   8.475  29.299  0.00  0.00    +0.000 A 
ATOM     31  C   UNL     1      25.371   8.955  30.594  0.00  0.00    +0.000 A 
ENDROOT
BRANCH   3  32
ATOM     32  O   UNL     1      26.276  11.900  25.959  0.00  0.00    +0.000 OA
ATOM     33  H   UNL     1      26.348  11.055  26.454  0.00  0.00    +0.000 HD
ENDBRANCH   3  32
BRANCH   3  34
ATOM     34  C   UNL     1      25.255  11.153  23.880  0.00  0.00    +0.000 C 
ATOM     35  O   UNL     1      24.506  11.384  22.928  0.00  0.00    +0.000 OA
BRANCH  34  36
ATOM     36  O   UNL     1      26.289  10.259  23.935  0.00  0.00    +0.000 OA
ATOM     37  C   UNL     1      26.140   9.048  23.244  0.00  0.00    +0.000 C 
ENDBRANCH  34  36
ENDBRANCH   3  34
TORSDOF 3
ENDMDL
MODEL 8
REMARK VINA RESULT:      -6.7     32.736     34.641
REMARK  Name = 3035817_K252a.pdbqt.pdb
REMARK  3 active torsions:
REMARK  status: ('A' for Active; 'I' for Inactive)
REMARK    1  A    between atoms: C_3  and  O_7
REMARK    2  A    between atoms: C_3  and  C_9
REMARK    3  A    between atoms: C_9  and  O_11
REMARK                            x       y       z     vdW  Elec       q    Type
REMARK                         _______ _______ _______ _____ _____    ______ ____
ROOT
ATOM      1  O   UNL     1       1.981  28.859  14.535  0.00  0.00    +0.000 OA
ATOM      2  C   UNL     1       0.586  28.540  14.189  0.00  0.00    +0.000 C 
ATOM      3  C   UNL     1      -0.271  29.530  15.088  0.00  0.00    +0.000 C 
ATOM      4  C   UNL     1       1.984  30.255  14.707  0.00  0.00    +0.000 C 
ATOM      5  C   UNL     1       0.724  30.584  15.265  0.00  0.00    +0.000 C 
ATOM      6  C   UNL     1       0.412  27.026  14.540  0.00  0.00    +0.000 C 
ATOM      7  N   UNL     1       0.443  28.795  12.741  0.00  0.00    +0.000 N 
ATOM      8  C   UNL     1       1.091  29.679  11.915  0.00  0.00    +0.000 A 
ATOM      9  C   UNL     1       1.996  30.673  12.289  0.00  0.00    +0.000 A 
ATOM     10  C   UNL     1       0.786  29.685  10.550  0.00  0.00    +0.000 A 
ATOM     11  N   UNL     1       2.361  30.949  13.570  0.00  0.00    +0.000 N 
ATOM     12  C   UNL     1       2.440  31.503  11.254  0.00  0.00    +0.000 A 
ATOM     13  C   UNL     1       3.098  32.130  13.373  0.00  0.00    +0.000 A 
ATOM     14  C   UNL     1       3.180  32.469  11.969  0.00  0.00    +0.000 A 
ATOM     15  C   UNL     1       3.721  32.931  14.345  0.00  0.00    +0.000 A 
ATOM     16  C   UNL     1       3.894  33.631  11.613  0.00  0.00    +0.000 A 
ATOM     17  C   UNL     1       4.508  34.411  12.592  0.00  0.00    +0.000 A 
ATOM     18  C   UNL     1       4.419  34.066  13.933  0.00  0.00    +0.000 A 
ATOM     19  C   UNL     1       2.157  31.509   9.872  0.00  0.00    +0.000 A 
ATOM     20  C   UNL     1       1.236  30.490   9.494  0.00  0.00    +0.000 A 
ATOM     21  C   UNL     1       2.523  32.311   8.729  0.00  0.00    +0.000 C 
ATOM     22  C   UNL     1       0.998  30.653   8.033  0.00  0.00    +0.000 C 
ATOM     23  N   UNL     1       1.778  31.707   7.708  0.00  0.00    +0.000 N 
ATOM     24  H   UNL     1       1.832  32.066   6.765  0.00  0.00    +0.000 HD
ATOM     25  O   UNL     1       3.262  33.270   8.568  0.00  0.00    +0.000 OA
ATOM     26  C   UNL     1      -0.229  28.716  10.472  0.00  0.00    +0.000 A 
ATOM     27  C   UNL     1      -0.448  28.207  11.808  0.00  0.00    +0.000 A 
ATOM     28  C   UNL     1      -1.033  28.221   9.425  0.00  0.00    +0.000 A 
ATOM     29  C   UNL     1      -1.459  27.257  12.037  0.00  0.00    +0.000 A 
ATOM     30  C   UNL     1      -2.226  26.798  10.967  0.00  0.00    +0.000 A 
ATOM     31  C   UNL     1      -2.015  27.265   9.680  0.00  0.00    +0.000 A 
ENDROOT
BRANCH   3  32
ATOM     32  O   UNL     1      -1.427  30.084  14.442  0.00  0.00    +0.000 OA
ATOM     33  H   UNL     1      -2.106  30.236  15.136  0.00  0.00    +0.000 HD
ENDBRANCH   3  32
BRANCH   3  34
ATOM     34  C   UNL     1      -0.660  28.893  16.420  0.00  0.00    +0.000 C 
ATOM     35  O   UNL     1       0.110  28.936  17.383  0.00  0.00    +0.000 OA
BRANCH  34  36
ATOM     36  O   UNL     1      -1.876  28.271  16.348  0.00  0.00    +0.000 OA
ATOM     37  C   UNL     1      -2.234  27.417  17.400  0.00  0.00    +0.000 C 
ENDBRANCH  34  36
ENDBRANCH   3  34
TORSDOF 3
ENDMDL
MODEL 9
REMARK VINA RESULT:      -6.5      7.650     11.951
REMARK  Name = 3035817_K252a.pdbqt.pdb
REMARK  3 active torsions:
REMARK  status: ('A' for Active; 'I' for Inactive)
REMARK    1  A    between atoms: C_3  and  O_7
REMARK    2  A    between atoms: C_3  and  C_9
REMARK    3  A    between atoms: C_9  and  O_11
REMARK                            x       y       z     vdW  Elec       q    Type
REMARK                         _______ _______ _______ _____ _____    ______ ____
ROOT
ATOM      1  O   UNL     1      31.472  16.885  15.116  0.00  0.00    +0.000 OA
ATOM      2  C   UNL     1      30.681  18.117  15.268  0.00  0.00    +0.000 C 
ATOM      3  C   UNL     1      29.523  17.968  14.190  0.00  0.00    +0.000 C 
ATOM      4  C   UNL     1      30.513  15.889  14.861  0.00  0.00    +0.000 C 
ATOM      5  C   UNL     1      29.492  16.511  14.101  0.00  0.00    +0.000 C 
ATOM      6  C   UNL     1      31.684  19.285  14.988  0.00  0.00    +0.000 C 
ATOM      7  N   UNL     1      30.185  18.131  16.659  0.00  0.00    +0.000 N 
ATOM      8  C   UNL     1      29.885  17.104  17.517  0.00  0.00    +0.000 A 
ATOM      9  C   UNL     1      29.864  15.740  17.223  0.00  0.00    +0.000 A 
ATOM     10  C   UNL     1      29.466  17.401  18.818  0.00  0.00    +0.000 A 
ATOM     11  N   UNL     1      30.113  15.205  15.997  0.00  0.00    +0.000 N 
ATOM     12  C   UNL     1      29.430  14.908  18.260  0.00  0.00    +0.000 A 
ATOM     13  C   UNL     1      29.758  13.865  16.229  0.00  0.00    +0.000 A 
ATOM     14  C   UNL     1      29.366  13.658  17.606  0.00  0.00    +0.000 A 
ATOM     15  C   UNL     1      29.768  12.799  15.315  0.00  0.00    +0.000 A 
ATOM     16  C   UNL     1      28.985  12.357  17.994  0.00  0.00    +0.000 A 
ATOM     17  C   UNL     1      29.004  11.311  17.072  0.00  0.00    +0.000 A 
ATOM     18  C   UNL     1      29.387  11.532  15.757  0.00  0.00    +0.000 A 
ATOM     19  C   UNL     1      29.024  15.191  19.580  0.00  0.00    +0.000 A 
ATOM     20  C   UNL     1      29.051  16.585  19.878  0.00  0.00    +0.000 A 
ATOM     21  C   UNL     1      28.539  14.440  20.714  0.00  0.00    +0.000 C 
ATOM     22  C   UNL     1      28.553  16.731  21.274  0.00  0.00    +0.000 C 
ATOM     23  N   UNL     1      28.298  15.458  21.647  0.00  0.00    +0.000 N 
ATOM     24  H   UNL     1      27.941  15.226  22.564  0.00  0.00    +0.000 HD
ATOM     25  O   UNL     1      28.348  13.252  20.925  0.00  0.00    +0.000 OA
ATOM     26  C   UNL     1      29.438  18.807  18.801  0.00  0.00    +0.000 A 
ATOM     27  C   UNL     1      29.846  19.235  17.481  0.00  0.00    +0.000 A 
ATOM     28  C   UNL     1      29.076  19.791  19.744  0.00  0.00    +0.000 A 
ATOM     29  C   UNL     1      29.853  20.604  17.162  0.00  0.00    +0.000 A 
ATOM     30  C   UNL     1      29.487  21.539  18.130  0.00  0.00    +0.000 A 
ATOM     31  C   UNL     1      29.111  21.142  19.403  0.00  0.00    +0.000 A 
ENDROOT
BRANCH   3  32
ATOM     32  O   UNL     1      28.236  18.436  14.620  0.00  0.00    +0.000 OA
ATOM     33  H   UNL     1      27.663  17.647  14.741  0.00  0.00    +0.000 HD
ENDBRANCH   3  32
BRANCH   3  34
ATOM     34  C   UNL     1      29.904  18.607  12.857  0.00  0.00    +0.000 C 
ATOM     35  O   UNL     1      30.653  18.019  12.072  0.00  0.00    +0.000 OA
BRANCH  34  36
ATOM     36  O   UNL     1      29.366  19.857  12.722  0.00  0.00    +0.000 OA
ATOM     37  C   UNL     1      30.110  20.815  12.021  0.00  0.00    +0.000 C 
ENDBRANCH  34  36
ENDBRANCH   3  34
TORSDOF 3
ENDMDL
