MODEL 1
REMARK VINA RESULT:      -4.8      0.000      0.000
REMARK  Name = 3136_Dimethoxy.pdbqt.pdb
REMARK  2 active torsions:
REMARK  status: ('A' for Active; 'I' for Inactive)
REMARK    1  A    between atoms: C_7  and  O_13
REMARK    2  A    between atoms: C_8  and  O_15
REMARK                            x       y       z     vdW  Elec       q    Type
REMARK                         _______ _______ _______ _____ _____    ______ ____
ROOT
ATOM      1  O   UNL     1      -1.608  26.714  12.930  0.00  0.00    +0.000 OA
ATOM      2  O   UNL     1       0.323  29.034  17.322  0.00  0.00    +0.000 OA
ATOM      3  C   UNL     1      -0.162  28.310  13.843  0.00  0.00    +0.000 A 
ATOM      4  C   UNL     1       0.322  28.930  14.986  0.00  0.00    +0.000 A 
ATOM      5  C   UNL     1      -1.145  27.225  13.941  0.00  0.00    +0.000 C 
ATOM      6  C   UNL     1      -0.144  28.521  16.315  0.00  0.00    +0.000 C 
ATOM      7  C   UNL     1      -1.570  26.788  15.294  0.00  0.00    +0.000 C 
ATOM      8  C   UNL     1      -1.175  27.458  16.396  0.00  0.00    +0.000 C 
ATOM      9  C   UNL     1       0.285  28.713  12.585  0.00  0.00    +0.000 A 
ATOM     10  C   UNL     1       1.262  29.957  14.879  0.00  0.00    +0.000 A 
ATOM     11  C   UNL     1       1.222  29.739  12.477  0.00  0.00    +0.000 A 
ATOM     12  C   UNL     1       1.711  30.360  13.624  0.00  0.00    +0.000 A 
ENDROOT
BRANCH   7  13
ATOM     13  O   UNL     1      -2.461  25.731  15.319  0.00  0.00    +0.000 OA
ATOM     14  C   UNL     1      -1.761  24.526  15.514  0.00  0.00    +0.000 C 
ENDBRANCH   7  13
BRANCH   8  15
ATOM     15  O   UNL     1      -1.609  27.152  17.673  0.00  0.00    +0.000 OA
ATOM     16  C   UNL     1      -2.799  27.852  17.950  0.00  0.00    +0.000 C 
ENDBRANCH   8  15
TORSDOF 2
ENDMDL
MODEL 2
REMARK VINA RESULT:      -4.8     15.201     16.672
REMARK  Name = 3136_Dimethoxy.pdbqt.pdb
REMARK  2 active torsions:
REMARK  status: ('A' for Active; 'I' for Inactive)
REMARK    1  A    between atoms: C_7  and  O_13
REMARK    2  A    between atoms: C_8  and  O_15
REMARK                            x       y       z     vdW  Elec       q    Type
REMARK                         _______ _______ _______ _____ _____    ______ ____
ROOT
ATOM      1  O   UNL     1       3.761  10.784   8.216  0.00  0.00    +0.000 OA
ATOM      2  O   UNL     1       0.834  15.173   8.970  0.00  0.00    +0.000 OA
ATOM      3  C   UNL     1       3.252  12.957   7.518  0.00  0.00    +0.000 A 
ATOM      4  C   UNL     1       2.472  14.090   7.699  0.00  0.00    +0.000 A 
ATOM      5  C   UNL     1       3.108  11.801   8.410  0.00  0.00    +0.000 C 
ATOM      6  C   UNL     1       1.483  14.154   8.781  0.00  0.00    +0.000 C 
ATOM      7  C   UNL     1       2.140  11.898   9.529  0.00  0.00    +0.000 C 
ATOM      8  C   UNL     1       1.314  12.958   9.643  0.00  0.00    +0.000 C 
ATOM      9  C   UNL     1       4.183  12.908   6.482  0.00  0.00    +0.000 A 
ATOM     10  C   UNL     1       2.621  15.186   6.848  0.00  0.00    +0.000 A 
ATOM     11  C   UNL     1       4.333  14.000   5.630  0.00  0.00    +0.000 A 
ATOM     12  C   UNL     1       3.553  15.140   5.813  0.00  0.00    +0.000 A 
ENDROOT
BRANCH   7  13
ATOM     13  O   UNL     1       2.087  10.794  10.361  0.00  0.00    +0.000 OA
ATOM     14  C   UNL     1       2.967  10.976  11.444  0.00  0.00    +0.000 C 
ENDBRANCH   7  13
BRANCH   8  15
ATOM     15  O   UNL     1       0.332  13.063  10.612  0.00  0.00    +0.000 OA
ATOM     16  C   UNL     1      -0.852  12.456  10.153  0.00  0.00    +0.000 C 
ENDBRANCH   8  15
TORSDOF 2
ENDMDL
MODEL 3
REMARK VINA RESULT:      -4.6     31.303     32.357
REMARK  Name = 3136_Dimethoxy.pdbqt.pdb
REMARK  2 active torsions:
REMARK  status: ('A' for Active; 'I' for Inactive)
REMARK    1  A    between atoms: C_7  and  O_13
REMARK    2  A    between atoms: C_8  and  O_15
REMARK                            x       y       z     vdW  Elec       q    Type
REMARK                         _______ _______ _______ _____ _____    ______ ____
ROOT
ATOM      1  O   UNL     1      30.137  15.699  18.536  0.00  0.00    +0.000 OA
ATOM      2  O   UNL     1      27.833  16.009  13.741  0.00  0.00    +0.000 OA
ATOM      3  C   UNL     1      29.139  14.563  16.752  0.00  0.00    +0.000 A 
ATOM      4  C   UNL     1      28.517  14.647  15.515  0.00  0.00    +0.000 A 
ATOM      5  C   UNL     1      29.634  15.770  17.423  0.00  0.00    +0.000 C 
ATOM      6  C   UNL     1      28.335  15.944  14.854  0.00  0.00    +0.000 C 
ATOM      7  C   UNL     1      29.489  17.069  16.721  0.00  0.00    +0.000 C 
ATOM      8  C   UNL     1      28.796  17.161  15.567  0.00  0.00    +0.000 C 
ATOM      9  C   UNL     1      29.299  13.324  17.372  0.00  0.00    +0.000 A 
ATOM     10  C   UNL     1      28.055  13.491  14.885  0.00  0.00    +0.000 A 
ATOM     11  C   UNL     1      28.837  12.169  16.745  0.00  0.00    +0.000 A 
ATOM     12  C   UNL     1      28.215  12.252  15.501  0.00  0.00    +0.000 A 
ENDROOT
BRANCH   7  13
ATOM     13  O   UNL     1      30.018  18.161  17.384  0.00  0.00    +0.000 OA
ATOM     14  C   UNL     1      29.044  18.717  18.233  0.00  0.00    +0.000 C 
ENDBRANCH   7  13
BRANCH   8  15
ATOM     15  O   UNL     1      28.551  18.356  14.914  0.00  0.00    +0.000 OA
ATOM     16  C   UNL     1      29.701  18.751  14.204  0.00  0.00    +0.000 C 
ENDBRANCH   8  15
TORSDOF 2
ENDMDL
MODEL 4
REMARK VINA RESULT:      -4.3     30.698     31.441
REMARK  Name = 3136_Dimethoxy.pdbqt.pdb
REMARK  2 active torsions:
REMARK  status: ('A' for Active; 'I' for Inactive)
REMARK    1  A    between atoms: C_7  and  O_13
REMARK    2  A    between atoms: C_8  and  O_15
REMARK                            x       y       z     vdW  Elec       q    Type
REMARK                         _______ _______ _______ _____ _____    ______ ____
ROOT
ATOM      1  O   UNL     1      26.614  14.609  25.653  0.00  0.00    +0.000 OA
ATOM      2  O   UNL     1      23.497  11.002  23.271  0.00  0.00    +0.000 OA
ATOM      3  C   UNL     1      26.320  13.135  23.861  0.00  0.00    +0.000 A 
ATOM      4  C   UNL     1      25.519  12.178  23.255  0.00  0.00    +0.000 A 
ATOM      5  C   UNL     1      25.884  13.802  25.093  0.00  0.00    +0.000 C 
ATOM      6  C   UNL     1      24.224  11.808  23.836  0.00  0.00    +0.000 C 
ATOM      7  C   UNL     1      24.550  13.454  25.642  0.00  0.00    +0.000 C 
ATOM      8  C   UNL     1      23.820  12.454  25.109  0.00  0.00    +0.000 C 
ATOM      9  C   UNL     1      27.551  13.473  23.301  0.00  0.00    +0.000 A 
ATOM     10  C   UNL     1      25.942  11.555  22.080  0.00  0.00    +0.000 A 
ATOM     11  C   UNL     1      27.976  12.851  22.130  0.00  0.00    +0.000 A 
ATOM     12  C   UNL     1      27.171  11.892  21.518  0.00  0.00    +0.000 A 
ENDROOT
BRANCH   7  13
ATOM     13  O   UNL     1      24.179  14.152  26.777  0.00  0.00    +0.000 OA
ATOM     14  C   UNL     1      23.336  15.221  26.420  0.00  0.00    +0.000 C 
ENDBRANCH   7  13
BRANCH   8  15
ATOM     15  O   UNL     1      22.612  12.026  25.631  0.00  0.00    +0.000 OA
ATOM     16  C   UNL     1      22.843  11.047  26.616  0.00  0.00    +0.000 C 
ENDBRANCH   8  15
TORSDOF 2
ENDMDL
MODEL 5
REMARK VINA RESULT:      -4.1      2.094      3.782
REMARK  Name = 3136_Dimethoxy.pdbqt.pdb
REMARK  2 active torsions:
REMARK  status: ('A' for Active; 'I' for Inactive)
REMARK    1  A    between atoms: C_7  and  O_13
REMARK    2  A    between atoms: C_8  and  O_15
REMARK                            x       y       z     vdW  Elec       q    Type
REMARK                         _______ _______ _______ _____ _____    ______ ____
ROOT
ATOM      1  O   UNL     1      -2.215  30.793  16.686  0.00  0.00    +0.000 OA
ATOM      2  O   UNL     1      -2.565  25.481  16.465  0.00  0.00    +0.000 OA
ATOM      3  C   UNL     1      -1.248  28.782  15.986  0.00  0.00    +0.000 A 
ATOM      4  C   UNL     1      -1.328  27.398  15.950  0.00  0.00    +0.000 A 
ATOM      5  C   UNL     1      -2.312  29.576  16.612  0.00  0.00    +0.000 C 
ATOM      6  C   UNL     1      -2.472  26.698  16.544  0.00  0.00    +0.000 C 
ATOM      7  C   UNL     1      -3.487  28.858  17.163  0.00  0.00    +0.000 C 
ATOM      8  C   UNL     1      -3.515  27.511  17.217  0.00  0.00    +0.000 C 
ATOM      9  C   UNL     1      -0.152  29.434  15.424  0.00  0.00    +0.000 A 
ATOM     10  C   UNL     1      -0.312  26.654  15.347  0.00  0.00    +0.000 A 
ATOM     11  C   UNL     1       0.864  28.694  14.822  0.00  0.00    +0.000 A 
ATOM     12  C   UNL     1       0.784  27.304  14.784  0.00  0.00    +0.000 A 
ENDROOT
BRANCH   7  13
ATOM     13  O   UNL     1      -4.476  29.665  17.695  0.00  0.00    +0.000 OA
ATOM     14  C   UNL     1      -5.494  29.857  16.743  0.00  0.00    +0.000 C 
ENDBRANCH   7  13
BRANCH   8  15
ATOM     15  O   UNL     1      -4.542  26.789  17.799  0.00  0.00    +0.000 OA
ATOM     16  C   UNL     1      -4.276  26.609  19.170  0.00  0.00    +0.000 C 
ENDBRANCH   8  15
TORSDOF 2
ENDMDL
MODEL 6
REMARK VINA RESULT:      -4.1     30.366     31.124
REMARK  Name = 3136_Dimethoxy.pdbqt.pdb
REMARK  2 active torsions:
REMARK  status: ('A' for Active; 'I' for Inactive)
REMARK    1  A    between atoms: C_7  and  O_13
REMARK    2  A    between atoms: C_8  and  O_15
REMARK                            x       y       z     vdW  Elec       q    Type
REMARK                         _______ _______ _______ _____ _____    ______ ____
ROOT
ATOM      1  O   UNL     1      27.074  14.053  23.809  0.00  0.00    +0.000 OA
ATOM      2  O   UNL     1      22.330  12.351  25.540  0.00  0.00    +0.000 OA
ATOM      3  C   UNL     1      25.248  14.412  25.226  0.00  0.00    +0.000 A 
ATOM      4  C   UNL     1      24.002  13.982  25.658  0.00  0.00    +0.000 A 
ATOM      5  C   UNL     1      25.998  13.644  24.226  0.00  0.00    +0.000 C 
ATOM      6  C   UNL     1      23.405  12.755  25.119  0.00  0.00    +0.000 C 
ATOM      7  C   UNL     1      25.405  12.379  23.726  0.00  0.00    +0.000 C 
ATOM      8  C   UNL     1      24.153  12.017  24.072  0.00  0.00    +0.000 C 
ATOM      9  C   UNL     1      25.801  15.583  25.742  0.00  0.00    +0.000 A 
ATOM     10  C   UNL     1      23.301  14.718  26.614  0.00  0.00    +0.000 A 
ATOM     11  C   UNL     1      25.102  16.320  26.695  0.00  0.00    +0.000 A 
ATOM     12  C   UNL     1      23.852  15.888  27.132  0.00  0.00    +0.000 A 
ENDROOT
BRANCH   7  13
ATOM     13  O   UNL     1      26.182  11.679  22.822  0.00  0.00    +0.000 OA
ATOM     14  C   UNL     1      27.064  10.829  23.515  0.00  0.00    +0.000 C 
ENDBRANCH   7  13
BRANCH   8  15
ATOM     15  O   UNL     1      23.515  10.897  23.569  0.00  0.00    +0.000 OA
ATOM     16  C   UNL     1      23.791   9.786  24.389  0.00  0.00    +0.000 C 
ENDBRANCH   8  15
TORSDOF 2
ENDMDL
MODEL 7
REMARK VINA RESULT:      -4.0     34.665     35.510
REMARK  Name = 3136_Dimethoxy.pdbqt.pdb
REMARK  2 active torsions:
REMARK  status: ('A' for Active; 'I' for Inactive)
REMARK    1  A    between atoms: C_7  and  O_13
REMARK    2  A    between atoms: C_8  and  O_15
REMARK                            x       y       z     vdW  Elec       q    Type
REMARK                         _______ _______ _______ _____ _____    ______ ____
ROOT
ATOM      1  O   UNL     1      18.535  -1.765  15.196  0.00  0.00    +0.000 OA
ATOM      2  O   UNL     1      21.691   0.673  18.731  0.00  0.00    +0.000 OA
ATOM      3  C   UNL     1      18.965  -1.269  17.441  0.00  0.00    +0.000 A 
ATOM      4  C   UNL     1      19.801  -0.655  18.362  0.00  0.00    +0.000 A 
ATOM      5  C   UNL     1      19.245  -1.180  16.003  0.00  0.00    +0.000 C 
ATOM      6  C   UNL     1      20.985   0.089  17.920  0.00  0.00    +0.000 C 
ATOM      7  C   UNL     1      20.418  -0.383  15.567  0.00  0.00    +0.000 C 
ATOM      8  C   UNL     1      21.283   0.127  16.467  0.00  0.00    +0.000 C 
ATOM      9  C   UNL     1      17.846  -1.978  17.876  0.00  0.00    +0.000 A 
ATOM     10  C   UNL     1      19.521  -0.741  19.727  0.00  0.00    +0.000 A 
ATOM     11  C   UNL     1      17.566  -2.067  19.237  0.00  0.00    +0.000 A 
ATOM     12  C   UNL     1      18.403  -1.448  20.163  0.00  0.00    +0.000 A 
ENDROOT
BRANCH   7  13
ATOM     13  O   UNL     1      20.599  -0.300  14.199  0.00  0.00    +0.000 OA
ATOM     14  C   UNL     1      21.172  -1.494  13.724  0.00  0.00    +0.000 C 
ENDBRANCH   7  13
BRANCH   8  15
ATOM     15  O   UNL     1      22.440   0.802  16.119  0.00  0.00    +0.000 OA
ATOM     16  C   UNL     1      22.183   2.185  16.065  0.00  0.00    +0.000 C 
ENDBRANCH   8  15
TORSDOF 2
ENDMDL
MODEL 8
REMARK VINA RESULT:      -4.0     13.334     15.292
REMARK  Name = 3136_Dimethoxy.pdbqt.pdb
REMARK  2 active torsions:
REMARK  status: ('A' for Active; 'I' for Inactive)
REMARK    1  A    between atoms: C_7  and  O_13
REMARK    2  A    between atoms: C_8  and  O_15
REMARK                            x       y       z     vdW  Elec       q    Type
REMARK                         _______ _______ _______ _____ _____    ______ ____
ROOT
ATOM      1  O   UNL     1      -0.072  16.785   5.532  0.00  0.00    +0.000 OA
ATOM      2  O   UNL     1       3.300  14.016   8.592  0.00  0.00    +0.000 OA
ATOM      3  C   UNL     1       1.955  15.629   5.684  0.00  0.00    +0.000 A 
ATOM      4  C   UNL     1       2.844  14.929   6.487  0.00  0.00    +0.000 A 
ATOM      5  C   UNL     1       0.686  16.125   6.230  0.00  0.00    +0.000 C 
ATOM      6  C   UNL     1       2.538  14.677   7.900  0.00  0.00    +0.000 C 
ATOM      7  C   UNL     1       0.368  15.820   7.646  0.00  0.00    +0.000 C 
ATOM      8  C   UNL     1       1.276  15.229   8.449  0.00  0.00    +0.000 C 
ATOM      9  C   UNL     1       2.261  15.867   4.345  0.00  0.00    +0.000 A 
ATOM     10  C   UNL     1       4.045  14.457   5.955  0.00  0.00    +0.000 A 
ATOM     11  C   UNL     1       3.459  15.398   3.812  0.00  0.00    +0.000 A 
ATOM     12  C   UNL     1       4.351  14.693   4.617  0.00  0.00    +0.000 A 
ENDROOT
BRANCH   7  13
ATOM     13  O   UNL     1      -0.862  16.274   8.086  0.00  0.00    +0.000 OA
ATOM     14  C   UNL     1      -0.720  17.554   8.652  0.00  0.00    +0.000 C 
ENDBRANCH   7  13
BRANCH   8  15
ATOM     15  O   UNL     1       1.069  15.000   9.798  0.00  0.00    +0.000 OA
ATOM     16  C   UNL     1       0.312  13.825   9.969  0.00  0.00    +0.000 C 
ENDBRANCH   8  15
TORSDOF 2
ENDMDL
MODEL 9
REMARK VINA RESULT:      -4.0     31.551     32.523
REMARK  Name = 3136_Dimethoxy.pdbqt.pdb
REMARK  2 active torsions:
REMARK  status: ('A' for Active; 'I' for Inactive)
REMARK    1  A    between atoms: C_7  and  O_13
REMARK    2  A    between atoms: C_8  and  O_15
REMARK                            x       y       z     vdW  Elec       q    Type
REMARK                         _______ _______ _______ _____ _____    ______ ____
ROOT
ATOM      1  O   UNL     1      25.134   9.381  28.109  0.00  0.00    +0.000 OA
ATOM      2  O   UNL     1      23.651  11.494  23.447  0.00  0.00    +0.000 OA
ATOM      3  C   UNL     1      24.013  11.105  26.994  0.00  0.00    +0.000 A 
ATOM      4  C   UNL     1      23.649  11.668  25.780  0.00  0.00    +0.000 A 
ATOM      5  C   UNL     1      24.770   9.849  27.038  0.00  0.00    +0.000 C 
ATOM      6  C   UNL     1      24.018  11.023  24.515  0.00  0.00    +0.000 C 
ATOM      7  C   UNL     1      25.094   9.182  25.753  0.00  0.00    +0.000 C 
ATOM      8  C   UNL     1      24.826   9.781  24.574  0.00  0.00    +0.000 C 
ATOM      9  C   UNL     1      23.661  11.731  28.189  0.00  0.00    +0.000 A 
ATOM     10  C   UNL     1      22.924  12.860  25.751  0.00  0.00    +0.000 A 
ATOM     11  C   UNL     1      22.939  12.922  28.163  0.00  0.00    +0.000 A 
ATOM     12  C   UNL     1      22.569  13.486  26.944  0.00  0.00    +0.000 A 
ENDROOT
BRANCH   7  13
ATOM     13  O   UNL     1      25.766   7.979  25.864  0.00  0.00    +0.000 OA
ATOM     14  C   UNL     1      24.853   6.914  25.746  0.00  0.00    +0.000 C 
ENDBRANCH   7  13
BRANCH   8  15
ATOM     15  O   UNL     1      25.184   9.250  23.348  0.00  0.00    +0.000 OA
ATOM     16  C   UNL     1      26.497   9.643  23.027  0.00  0.00    +0.000 C 
ENDBRANCH   8  15
TORSDOF 2
ENDMDL
