MODEL 1
REMARK VINA RESULT:      -4.6      0.000      0.000
REMARK  Name = 326_Cuminaldehyde.pdb
REMARK  1 active torsions:
REMARK  status: ('A' for Active; 'I' for Inactive)
REMARK    1  A    between atoms: C_1  and  C_7
REMARK                            x       y       z     vdW  Elec       q    Type
REMARK                         _______ _______ _______ _____ _____    ______ ____
ROOT
ATOM      1  C   UNL     1      28.587  13.405  15.940  0.00  0.00    +0.000 C 
ATOM      2  C   UNL     1      28.008  13.853  14.750  0.00  0.00    +0.000 C 
ATOM      3  C   UNL     1      29.188  14.326  16.801  0.00  0.00    +0.000 C 
ATOM      4  C   UNL     1      28.028  15.209  14.426  0.00  0.00    +0.000 C 
ATOM      5  C   UNL     1      29.210  15.682  16.477  0.00  0.00    +0.000 C 
ATOM      6  C   UNL     1      28.629  16.121  15.289  0.00  0.00    +0.000 C 
ATOM      7  O   UNL     1      28.669  18.651  14.683  0.00  0.00    +0.000 OA
ATOM      8  C   UNL     1      28.651  17.508  14.957  0.00  0.00    +0.000 C 
ENDROOT
BRANCH   1   9
ATOM      9  C   UNL     1      28.565  11.985  16.280  0.00  0.00    +0.000 C 
ATOM     10  C   UNL     1      29.204  11.468  17.545  0.00  0.00    +0.000 C 
ATOM     11  C   UNL     1      27.901  10.971  15.383  0.00  0.00    +0.000 C 
ENDBRANCH   1   9
TORSDOF 1
ENDMDL
MODEL 2
REMARK VINA RESULT:      -4.4     25.394     26.335
REMARK  Name = 326_Cuminaldehyde.pdb
REMARK  1 active torsions:
REMARK  status: ('A' for Active; 'I' for Inactive)
REMARK    1  A    between atoms: C_1  and  C_7
REMARK                            x       y       z     vdW  Elec       q    Type
REMARK                         _______ _______ _______ _____ _____    ______ ____
ROOT
ATOM      1  C   UNL     1       9.020  25.797  27.699  0.00  0.00    +0.000 C 
ATOM      2  C   UNL     1       9.752  25.317  28.788  0.00  0.00    +0.000 C 
ATOM      3  C   UNL     1       7.784  25.223  27.393  0.00  0.00    +0.000 C 
ATOM      4  C   UNL     1       9.251  24.274  29.565  0.00  0.00    +0.000 C 
ATOM      5  C   UNL     1       7.283  24.179  28.169  0.00  0.00    +0.000 C 
ATOM      6  C   UNL     1       8.018  23.706  29.255  0.00  0.00    +0.000 C 
ATOM      7  O   UNL     1       7.083  21.757  30.704  0.00  0.00    +0.000 OA
ATOM      8  C   UNL     1       7.505  22.638  30.049  0.00  0.00    +0.000 C 
ENDROOT
BRANCH   1   9
ATOM      9  C   UNL     1       9.545  26.891  26.886  0.00  0.00    +0.000 C 
ATOM     10  C   UNL     1       9.305  26.952  25.398  0.00  0.00    +0.000 C 
ATOM     11  C   UNL     1      10.351  28.010  27.497  0.00  0.00    +0.000 C 
ENDBRANCH   1   9
TORSDOF 1
ENDMDL
MODEL 3
REMARK VINA RESULT:      -4.1      1.476      2.559
REMARK  Name = 326_Cuminaldehyde.pdb
REMARK  1 active torsions:
REMARK  status: ('A' for Active; 'I' for Inactive)
REMARK    1  A    between atoms: C_1  and  C_7
REMARK                            x       y       z     vdW  Elec       q    Type
REMARK                         _______ _______ _______ _____ _____    ______ ____
ROOT
ATOM      1  C   UNL     1      28.838  13.869  16.681  0.00  0.00    +0.000 C 
ATOM      2  C   UNL     1      28.990  15.256  16.615  0.00  0.00    +0.000 C 
ATOM      3  C   UNL     1      28.314  13.182  15.584  0.00  0.00    +0.000 C 
ATOM      4  C   UNL     1      28.622  15.949  15.463  0.00  0.00    +0.000 C 
ATOM      5  C   UNL     1      27.945  13.874  14.431  0.00  0.00    +0.000 C 
ATOM      6  C   UNL     1      28.100  15.258  14.373  0.00  0.00    +0.000 C 
ATOM      7  O   UNL     1      27.412  16.551  12.223  0.00  0.00    +0.000 OA
ATOM      8  C   UNL     1      27.723  15.967  13.195  0.00  0.00    +0.000 C 
ENDROOT
BRANCH   1   9
ATOM      9  C   UNL     1      29.224  13.143  17.888  0.00  0.00    +0.000 C 
ATOM     10  C   UNL     1      29.326  11.638  17.903  0.00  0.00    +0.000 C 
ATOM     11  C   UNL     1      29.540  13.865  19.174  0.00  0.00    +0.000 C 
ENDBRANCH   1   9
TORSDOF 1
ENDMDL
MODEL 4
REMARK VINA RESULT:      -4.1      1.657      2.683
REMARK  Name = 326_Cuminaldehyde.pdb
REMARK  1 active torsions:
REMARK  status: ('A' for Active; 'I' for Inactive)
REMARK    1  A    between atoms: C_1  and  C_7
REMARK                            x       y       z     vdW  Elec       q    Type
REMARK                         _______ _______ _______ _____ _____    ______ ____
ROOT
ATOM      1  C   UNL     1      28.997  12.018  17.491  0.00  0.00    +0.000 C 
ATOM      2  C   UNL     1      28.423  11.541  16.310  0.00  0.00    +0.000 C 
ATOM      3  C   UNL     1      29.284  13.379  17.615  0.00  0.00    +0.000 C 
ATOM      4  C   UNL     1      28.137  12.417  15.264  0.00  0.00    +0.000 C 
ATOM      5  C   UNL     1      29.000  14.256  16.569  0.00  0.00    +0.000 C 
ATOM      6  C   UNL     1      28.426  13.773  15.395  0.00  0.00    +0.000 C 
ATOM      7  O   UNL     1      27.896  15.409  13.442  0.00  0.00    +0.000 OA
ATOM      8  C   UNL     1      28.136  14.670  14.325  0.00  0.00    +0.000 C 
ENDROOT
BRANCH   1   9
ATOM      9  C   UNL     1      29.295  11.100  18.587  0.00  0.00    +0.000 C 
ATOM     10  C   UNL     1      30.714  10.806  19.005  0.00  0.00    +0.000 C 
ATOM     11  C   UNL     1      28.197  10.403  19.351  0.00  0.00    +0.000 C 
ENDBRANCH   1   9
TORSDOF 1
ENDMDL
MODEL 5
REMARK VINA RESULT:      -4.1     30.947     31.663
REMARK  Name = 326_Cuminaldehyde.pdb
REMARK  1 active torsions:
REMARK  status: ('A' for Active; 'I' for Inactive)
REMARK    1  A    between atoms: C_1  and  C_7
REMARK                            x       y       z     vdW  Elec       q    Type
REMARK                         _______ _______ _______ _____ _____    ______ ____
ROOT
ATOM      1  C   UNL     1       0.844  29.051  13.460  0.00  0.00    +0.000 C 
ATOM      2  C   UNL     1       0.068  28.252  12.616  0.00  0.00    +0.000 C 
ATOM      3  C   UNL     1       1.144  28.601  14.748  0.00  0.00    +0.000 C 
ATOM      4  C   UNL     1      -0.401  27.015  13.054  0.00  0.00    +0.000 C 
ATOM      5  C   UNL     1       0.675  27.364  15.188  0.00  0.00    +0.000 C 
ATOM      6  C   UNL     1      -0.097  26.573  14.339  0.00  0.00    +0.000 C 
ATOM      7  O   UNL     1      -0.974  24.265  15.160  0.00  0.00    +0.000 OA
ATOM      8  C   UNL     1      -0.578  25.308  14.789  0.00  0.00    +0.000 C 
ENDROOT
BRANCH   1   9
ATOM      9  C   UNL     1       1.336  30.347  12.999  0.00  0.00    +0.000 C 
ATOM     10  C   UNL     1       1.342  31.554  13.904  0.00  0.00    +0.000 C 
ATOM     11  C   UNL     1       1.860  30.537  11.598  0.00  0.00    +0.000 C 
ENDBRANCH   1   9
TORSDOF 1
ENDMDL
MODEL 6
REMARK VINA RESULT:      -4.0     31.303     32.110
REMARK  Name = 326_Cuminaldehyde.pdb
REMARK  1 active torsions:
REMARK  status: ('A' for Active; 'I' for Inactive)
REMARK    1  A    between atoms: C_1  and  C_7
REMARK                            x       y       z     vdW  Elec       q    Type
REMARK                         _______ _______ _______ _____ _____    ______ ____
ROOT
ATOM      1  C   UNL     1       0.137  28.141  14.575  0.00  0.00    +0.000 C 
ATOM      2  C   UNL     1       0.165  26.815  14.135  0.00  0.00    +0.000 C 
ATOM      3  C   UNL     1      -0.620  28.477  15.699  0.00  0.00    +0.000 C 
ATOM      4  C   UNL     1      -0.555  25.834  14.815  0.00  0.00    +0.000 C 
ATOM      5  C   UNL     1      -1.342  27.497  16.379  0.00  0.00    +0.000 C 
ATOM      6  C   UNL     1      -1.308  26.176  15.936  0.00  0.00    +0.000 C 
ATOM      7  O   UNL     1      -2.654  24.346  17.204  0.00  0.00    +0.000 OA
ATOM      8  C   UNL     1      -2.046  25.173  16.631  0.00  0.00    +0.000 C 
ENDROOT
BRANCH   1   9
ATOM      9  C   UNL     1       0.893  29.168  13.863  0.00  0.00    +0.000 C 
ATOM     10  C   UNL     1       1.782  30.141  14.595  0.00  0.00    +0.000 C 
ATOM     11  C   UNL     1       0.818  29.302  12.363  0.00  0.00    +0.000 C 
ENDBRANCH   1   9
TORSDOF 1
ENDMDL
MODEL 7
REMARK VINA RESULT:      -4.0     23.646     25.124
REMARK  Name = 326_Cuminaldehyde.pdb
REMARK  1 active torsions:
REMARK  status: ('A' for Active; 'I' for Inactive)
REMARK    1  A    between atoms: C_1  and  C_7
REMARK                            x       y       z     vdW  Elec       q    Type
REMARK                         _______ _______ _______ _____ _____    ______ ____
ROOT
ATOM      1  C   UNL     1      12.692  -3.603  23.309  0.00  0.00    +0.000 C 
ATOM      2  C   UNL     1      13.461  -2.636  22.657  0.00  0.00    +0.000 C 
ATOM      3  C   UNL     1      11.964  -4.526  22.554  0.00  0.00    +0.000 C 
ATOM      4  C   UNL     1      13.504  -2.594  21.265  0.00  0.00    +0.000 C 
ATOM      5  C   UNL     1      12.005  -4.484  21.162  0.00  0.00    +0.000 C 
ATOM      6  C   UNL     1      12.776  -3.517  20.519  0.00  0.00    +0.000 C 
ATOM      7  O   UNL     1      12.853  -3.438  17.919  0.00  0.00    +0.000 OA
ATOM      8  C   UNL     1      12.818  -3.474  19.094  0.00  0.00    +0.000 C 
ENDROOT
BRANCH   1   9
ATOM      9  C   UNL     1      12.648  -3.648  24.768  0.00  0.00    +0.000 C 
ATOM     10  C   UNL     1      11.897  -4.731  25.501  0.00  0.00    +0.000 C 
ATOM     11  C   UNL     1      13.353  -2.612  25.608  0.00  0.00    +0.000 C 
ENDBRANCH   1   9
TORSDOF 1
ENDMDL
MODEL 8
REMARK VINA RESULT:      -4.0     21.285     22.058
REMARK  Name = 326_Cuminaldehyde.pdb
REMARK  1 active torsions:
REMARK  status: ('A' for Active; 'I' for Inactive)
REMARK    1  A    between atoms: C_1  and  C_7
REMARK                            x       y       z     vdW  Elec       q    Type
REMARK                         _______ _______ _______ _____ _____    ______ ____
ROOT
ATOM      1  C   UNL     1      18.048  31.964   9.005  0.00  0.00    +0.000 C 
ATOM      2  C   UNL     1      17.655  32.995   9.861  0.00  0.00    +0.000 C 
ATOM      3  C   UNL     1      17.305  30.781   8.967  0.00  0.00    +0.000 C 
ATOM      4  C   UNL     1      16.529  32.847  10.670  0.00  0.00    +0.000 C 
ATOM      5  C   UNL     1      16.181  30.631   9.777  0.00  0.00    +0.000 C 
ATOM      6  C   UNL     1      15.794  31.665  10.628  0.00  0.00    +0.000 C 
ATOM      7  O   UNL     1      13.695  31.385  12.139  0.00  0.00    +0.000 OA
ATOM      8  C   UNL     1      14.644  31.511  11.456  0.00  0.00    +0.000 C 
ENDROOT
BRANCH   1   9
ATOM      9  C   UNL     1      19.226  32.121   8.156  0.00  0.00    +0.000 C 
ATOM     10  C   UNL     1      19.376  31.352   6.867  0.00  0.00    +0.000 C 
ATOM     11  C   UNL     1      20.346  33.059   8.530  0.00  0.00    +0.000 C 
ENDBRANCH   1   9
TORSDOF 1
ENDMDL
MODEL 9
REMARK VINA RESULT:      -3.9     19.349     21.646
REMARK  Name = 326_Cuminaldehyde.pdb
REMARK  1 active torsions:
REMARK  status: ('A' for Active; 'I' for Inactive)
REMARK    1  A    between atoms: C_1  and  C_7
REMARK                            x       y       z     vdW  Elec       q    Type
REMARK                         _______ _______ _______ _____ _____    ______ ____
ROOT
ATOM      1  C   UNL     1      18.414  31.233   8.478  0.00  0.00    +0.000 C 
ATOM      2  C   UNL     1      17.227  30.738   9.026  0.00  0.00    +0.000 C 
ATOM      3  C   UNL     1      18.843  32.519   8.816  0.00  0.00    +0.000 C 
ATOM      4  C   UNL     1      16.479  31.520   9.903  0.00  0.00    +0.000 C 
ATOM      5  C   UNL     1      18.094  33.302   9.693  0.00  0.00    +0.000 C 
ATOM      6  C   UNL     1      16.912  32.801  10.235  0.00  0.00    +0.000 C 
ATOM      7  O   UNL     1      15.514  34.263  11.872  0.00  0.00    +0.000 OA
ATOM      8  C   UNL     1      16.146  33.603  11.132  0.00  0.00    +0.000 C 
ENDROOT
BRANCH   1   9
ATOM      9  C   UNL     1      19.198  30.412   7.560  0.00  0.00    +0.000 C 
ATOM     10  C   UNL     1      19.898  29.159   8.025  0.00  0.00    +0.000 C 
ATOM     11  C   UNL     1      19.345  30.781   6.105  0.00  0.00    +0.000 C 
ENDBRANCH   1   9
TORSDOF 1
ENDMDL
