MODEL 1
REMARK VINA RESULT:      -4.6      0.000      0.000
REMARK  Name = 3363_5FluorouracilDeoxyriboside.pdbqt.pdb
REMARK  4 active torsions:
REMARK  status: ('A' for Active; 'I' for Inactive)
REMARK    1  A    between atoms: N_4  and  C1*_13
REMARK    2  A    between atoms: C3*_12  and  O3*_16
REMARK    3  A    between atoms: C4*_15  and  C5*_18
REMARK    4  A    between atoms: C5*_18  and  O5*_19
REMARK                            x       y       z     vdW  Elec       q    Type
REMARK                         _______ _______ _______ _____ _____    ______ ____
ROOT
ATOM      1  F   UNL     1      26.120  14.050  23.938  0.00  0.00    +0.000 F 
ATOM      2  O   UNL     1      21.348  12.695  26.152  0.00  0.00    +0.000 OA
ATOM      3  O   UNL     1      24.665  11.766  23.119  0.00  0.00    +0.000 OA
ATOM      4  N   UNL     1      23.314  14.018  26.218  0.00  0.00    +0.000 N 
ATOM      5  N   UNL     1      23.072  12.225  24.717  0.00  0.00    +0.000 N 
ATOM      6  C   UNL     1      22.474  12.976  25.758  0.00  0.00    +0.000 C 
ATOM      7  C   UNL     1      24.519  14.143  25.626  0.00  0.00    +0.000 C 
ATOM      8  C   UNL     1      25.142  13.516  24.687  0.00  0.00    +0.000 C 
ATOM      9  C   UNL     1      24.308  12.423  24.088  0.00  0.00    +0.000 C 
ATOM     10  H   UNL     1      22.492  11.495  24.328  0.00  0.00    +0.000 HD
ENDROOT
BRANCH   4  13
ATOM     11  O4* UNL     1      22.373  16.131  26.929  0.00  0.00    +0.000 OA
ATOM     12  C3* UNL     1      22.620  15.905  29.222  0.00  0.00    +0.000 A 
ATOM     13  C1* UNL     1      22.972  14.895  27.208  0.00  0.00    +0.000 A 
ATOM     14  C2* UNL     1      23.117  14.746  28.601  0.00  0.00    +0.000 A 
ATOM     15  C4* UNL     1      22.152  16.761  28.160  0.00  0.00    +0.000 A 
BRANCH  12  16
ATOM     16  O3* UNL     1      22.044  15.908  30.462  0.00  0.00    +0.000 OA
ATOM     17  H3* UNL     1      22.080  16.787  30.881  0.00  0.00    +0.000 HD
ENDBRANCH  12  16
BRANCH  15  18
ATOM     18  C5* UNL     1      21.388  17.939  28.280  0.00  0.00    +0.000 C 
BRANCH  18  19
ATOM     19  O5* UNL     1      20.685  19.060  28.397  0.00  0.00    +0.000 OA
ATOM     20  H5* UNL     1      21.256  19.838  28.275  0.00  0.00    +0.000 HD
ENDBRANCH  18  19
ENDBRANCH  15  18
ENDBRANCH   4  13
TORSDOF 4
ENDMDL
MODEL 2
REMARK VINA RESULT:      -4.5      2.233      6.493
REMARK  Name = 3363_5FluorouracilDeoxyriboside.pdbqt.pdb
REMARK  4 active torsions:
REMARK  status: ('A' for Active; 'I' for Inactive)
REMARK    1  A    between atoms: N_4  and  C1*_13
REMARK    2  A    between atoms: C3*_12  and  O3*_16
REMARK    3  A    between atoms: C4*_15  and  C5*_18
REMARK    4  A    between atoms: C5*_18  and  O5*_19
REMARK                            x       y       z     vdW  Elec       q    Type
REMARK                         _______ _______ _______ _____ _____    ______ ____
ROOT
ATOM      1  F   UNL     1      25.285  15.340  28.599  0.00  0.00    +0.000 F 
ATOM      2  O   UNL     1      21.624  12.135  26.182  0.00  0.00    +0.000 OA
ATOM      3  O   UNL     1      22.576  15.258  29.408  0.00  0.00    +0.000 OA
ATOM      4  N   UNL     1      23.785  13.111  26.178  0.00  0.00    +0.000 N 
ATOM      5  N   UNL     1      22.130  13.760  27.718  0.00  0.00    +0.000 N 
ATOM      6  C   UNL     1      22.456  12.919  26.625  0.00  0.00    +0.000 C 
ATOM      7  C   UNL     1      24.525  14.033  26.828  0.00  0.00    +0.000 C 
ATOM      8  C   UNL     1      24.317  14.835  27.816  0.00  0.00    +0.000 C 
ATOM      9  C   UNL     1      22.949  14.667  28.403  0.00  0.00    +0.000 C 
ATOM     10  H   UNL     1      21.203  13.629  28.097  0.00  0.00    +0.000 HD
ENDROOT
BRANCH   4  13
ATOM     11  O4* UNL     1      24.526  11.029  25.194  0.00  0.00    +0.000 OA
ATOM     12  C3* UNL     1      25.318  11.827  23.168  0.00  0.00    +0.000 A 
ATOM     13  C1* UNL     1      24.352  12.418  25.147  0.00  0.00    +0.000 A 
ATOM     14  C2* UNL     1      24.823  12.910  23.914  0.00  0.00    +0.000 A 
ATOM     15  C4* UNL     1      25.119  10.653  23.983  0.00  0.00    +0.000 A 
BRANCH  12  16
ATOM     16  O3* UNL     1      25.287  11.774  21.802  0.00  0.00    +0.000 OA
ATOM     17  H3* UNL     1      25.795  12.498  21.395  0.00  0.00    +0.000 HD
ENDBRANCH  12  16
BRANCH  15  18
ATOM     18  C5* UNL     1      25.263   9.306  23.598  0.00  0.00    +0.000 C 
BRANCH  18  19
ATOM     19  O5* UNL     1      25.410   8.031  23.252  0.00  0.00    +0.000 OA
ATOM     20  H5* UNL     1      25.051   7.445  23.940  0.00  0.00    +0.000 HD
ENDBRANCH  18  19
ENDBRANCH  15  18
ENDBRANCH   4  13
TORSDOF 4
ENDMDL
MODEL 3
REMARK VINA RESULT:      -4.1     27.607     28.875
REMARK  Name = 3363_5FluorouracilDeoxyriboside.pdbqt.pdb
REMARK  4 active torsions:
REMARK  status: ('A' for Active; 'I' for Inactive)
REMARK    1  A    between atoms: N_4  and  C1*_13
REMARK    2  A    between atoms: C3*_12  and  O3*_16
REMARK    3  A    between atoms: C4*_15  and  C5*_18
REMARK    4  A    between atoms: C5*_18  and  O5*_19
REMARK                            x       y       z     vdW  Elec       q    Type
REMARK                         _______ _______ _______ _____ _____    ______ ____
ROOT
ATOM      1  F   UNL     1      -0.330  17.290   5.658  0.00  0.00    +0.000 F 
ATOM      2  O   UNL     1       1.262  16.507  10.792  0.00  0.00    +0.000 OA
ATOM      3  O   UNL     1      -0.867  19.160   7.712  0.00  0.00    +0.000 OA
ATOM      4  N   UNL     1       0.940  15.635   8.611  0.00  0.00    +0.000 N 
ATOM      5  N   UNL     1       0.134  17.753   9.235  0.00  0.00    +0.000 N 
ATOM      6  C   UNL     1       0.830  16.591   9.649  0.00  0.00    +0.000 C 
ATOM      7  C   UNL     1       0.388  15.951   7.422  0.00  0.00    +0.000 C 
ATOM      8  C   UNL     1      -0.257  16.967   6.960  0.00  0.00    +0.000 C 
ATOM      9  C   UNL     1      -0.378  18.067   7.969  0.00  0.00    +0.000 C 
ATOM     10  H   UNL     1       0.065  18.481   9.932  0.00  0.00    +0.000 HD
ENDROOT
BRANCH   4  13
ATOM     11  O4* UNL     1       1.140  13.462   9.658  0.00  0.00    +0.000 OA
ATOM     12  C3* UNL     1       2.987  12.657   8.514  0.00  0.00    +0.000 A 
ATOM     13  C1* UNL     1       1.575  14.432   8.745  0.00  0.00    +0.000 A 
ATOM     14  C2* UNL     1       2.693  13.947   8.039  0.00  0.00    +0.000 A 
ATOM     15  C4* UNL     1       2.001  12.366   9.525  0.00  0.00    +0.000 A 
BRANCH  12  16
ATOM     16  O3* UNL     1       3.542  11.677   7.740  0.00  0.00    +0.000 OA
ATOM     17  H3* UNL     1       3.429  11.852   6.788  0.00  0.00    +0.000 HD
ENDBRANCH  12  16
BRANCH  15  18
ATOM     18  C5* UNL     1       1.749  11.128  10.148  0.00  0.00    +0.000 C 
BRANCH  18  19
ATOM     19  O5* UNL     1       1.531   9.960  10.744  0.00  0.00    +0.000 OA
ATOM     20  H5* UNL     1       1.860   9.227  10.195  0.00  0.00    +0.000 HD
ENDBRANCH  18  19
ENDBRANCH  15  18
ENDBRANCH   4  13
TORSDOF 4
ENDMDL
MODEL 4
REMARK VINA RESULT:      -4.0     28.955     30.489
REMARK  Name = 3363_5FluorouracilDeoxyriboside.pdbqt.pdb
REMARK  4 active torsions:
REMARK  status: ('A' for Active; 'I' for Inactive)
REMARK    1  A    between atoms: N_4  and  C1*_13
REMARK    2  A    between atoms: C3*_12  and  O3*_16
REMARK    3  A    between atoms: C4*_15  and  C5*_18
REMARK    4  A    between atoms: C5*_18  and  O5*_19
REMARK                            x       y       z     vdW  Elec       q    Type
REMARK                         _______ _______ _______ _____ _____    ______ ____
ROOT
ATOM      1  F   UNL     1      -2.281  24.568  14.915  0.00  0.00    +0.000 F 
ATOM      2  O   UNL     1      -0.265  29.120  17.090  0.00  0.00    +0.000 OA
ATOM      3  O   UNL     1       0.138  25.732  14.020  0.00  0.00    +0.000 OA
ATOM      4  N   UNL     1      -2.078  27.610  16.861  0.00  0.00    +0.000 N 
ATOM      5  N   UNL     1      -0.155  27.458  15.517  0.00  0.00    +0.000 N 
ATOM      6  C   UNL     1      -0.810  28.160  16.558  0.00  0.00    +0.000 C 
ATOM      7  C   UNL     1      -2.471  26.538  16.142  0.00  0.00    +0.000 C 
ATOM      8  C   UNL     1      -1.953  25.842  15.188  0.00  0.00    +0.000 C 
ATOM      9  C   UNL     1      -0.575  26.310  14.831  0.00  0.00    +0.000 C 
ATOM     10  H   UNL     1       0.772  27.790  15.293  0.00  0.00    +0.000 HD
ENDROOT
BRANCH   4  13
ATOM     11  O4* UNL     1      -3.625  29.285  17.669  0.00  0.00    +0.000 OA
ATOM     12  C3* UNL     1      -4.117  28.380  19.745  0.00  0.00    +0.000 A 
ATOM     13  C1* UNL     1      -2.908  28.093  17.832  0.00  0.00    +0.000 A 
ATOM     14  C2* UNL     1      -3.208  27.531  19.088  0.00  0.00    +0.000 A 
ATOM     15  C4* UNL     1      -4.372  29.472  18.838  0.00  0.00    +0.000 A 
BRANCH  12  16
ATOM     16  O3* UNL     1      -5.061  27.936  20.628  0.00  0.00    +0.000 OA
ATOM     17  H3* UNL     1      -5.959  28.216  20.377  0.00  0.00    +0.000 HD
ENDBRANCH  12  16
BRANCH  15  18
ATOM     18  C5* UNL     1      -5.363  30.468  18.951  0.00  0.00    +0.000 C 
BRANCH  18  19
ATOM     19  O5* UNL     1      -6.304  31.397  19.075  0.00  0.00    +0.000 OA
ATOM     20  H5* UNL     1      -5.906  32.279  19.174  0.00  0.00    +0.000 HD
ENDBRANCH  18  19
ENDBRANCH  15  18
ENDBRANCH   4  13
TORSDOF 4
ENDMDL
MODEL 5
REMARK VINA RESULT:      -3.9     28.842     29.915
REMARK  Name = 3363_5FluorouracilDeoxyriboside.pdbqt.pdb
REMARK  4 active torsions:
REMARK  status: ('A' for Active; 'I' for Inactive)
REMARK    1  A    between atoms: N_4  and  C1*_13
REMARK    2  A    between atoms: C3*_12  and  O3*_16
REMARK    3  A    between atoms: C4*_15  and  C5*_18
REMARK    4  A    between atoms: C5*_18  and  O5*_19
REMARK                            x       y       z     vdW  Elec       q    Type
REMARK                         _______ _______ _______ _____ _____    ______ ____
ROOT
ATOM      1  F   UNL     1      -2.896  22.117  12.551  0.00  0.00    +0.000 F 
ATOM      2  O   UNL     1      -4.082  24.675  17.194  0.00  0.00    +0.000 OA
ATOM      3  O   UNL     1      -4.521  20.949  14.551  0.00  0.00    +0.000 OA
ATOM      4  N   UNL     1      -2.785  24.562  15.213  0.00  0.00    +0.000 N 
ATOM      5  N   UNL     1      -4.198  22.804  15.877  0.00  0.00    +0.000 N 
ATOM      6  C   UNL     1      -3.702  24.094  16.185  0.00  0.00    +0.000 C 
ATOM      7  C   UNL     1      -2.520  23.745  14.174  0.00  0.00    +0.000 C 
ATOM      8  C   UNL     1      -2.915  22.570  13.815  0.00  0.00    +0.000 C 
ATOM      9  C   UNL     1      -3.940  22.008  14.753  0.00  0.00    +0.000 C 
ATOM     10  H   UNL     1      -4.887  22.445  16.522  0.00  0.00    +0.000 HD
ENDROOT
BRANCH   4  13
ATOM     11  O4* UNL     1      -1.604  26.274  16.450  0.00  0.00    +0.000 OA
ATOM     12  C3* UNL     1      -1.288  27.820  14.753  0.00  0.00    +0.000 A 
ATOM     13  C1* UNL     1      -2.170  25.781  15.267  0.00  0.00    +0.000 A 
ATOM     14  C2* UNL     1      -1.975  26.711  14.228  0.00  0.00    +0.000 A 
ATOM     15  C4* UNL     1      -1.059  27.527  16.147  0.00  0.00    +0.000 A 
BRANCH  12  16
ATOM     16  O3* UNL     1      -0.425  28.588  14.023  0.00  0.00    +0.000 OA
ATOM     17  H3* UNL     1       0.345  28.874  14.547  0.00  0.00    +0.000 HD
ENDBRANCH  12  16
BRANCH  15  18
ATOM     18  C5* UNL     1      -0.237  28.232  17.048  0.00  0.00    +0.000 C 
BRANCH  18  19
ATOM     19  O5* UNL     1       0.523  28.895  17.913  0.00  0.00    +0.000 OA
ATOM     20  H5* UNL     1       0.459  28.501  18.800  0.00  0.00    +0.000 HD
ENDBRANCH  18  19
ENDBRANCH  15  18
ENDBRANCH   4  13
TORSDOF 4
ENDMDL
MODEL 6
REMARK VINA RESULT:      -3.9     29.088     30.057
REMARK  Name = 3363_5FluorouracilDeoxyriboside.pdbqt.pdb
REMARK  4 active torsions:
REMARK  status: ('A' for Active; 'I' for Inactive)
REMARK    1  A    between atoms: N_4  and  C1*_13
REMARK    2  A    between atoms: C3*_12  and  O3*_16
REMARK    3  A    between atoms: C4*_15  and  C5*_18
REMARK    4  A    between atoms: C5*_18  and  O5*_19
REMARK                            x       y       z     vdW  Elec       q    Type
REMARK                         _______ _______ _______ _____ _____    ______ ____
ROOT
ATOM      1  F   UNL     1       0.327  27.556  15.887  0.00  0.00    +0.000 F 
ATOM      2  O   UNL     1       1.387  30.295  11.317  0.00  0.00    +0.000 OA
ATOM      3  O   UNL     1      -0.413  26.586  13.334  0.00  0.00    +0.000 OA
ATOM      4  N   UNL     1       1.287  30.259  13.685  0.00  0.00    +0.000 N 
ATOM      5  N   UNL     1       0.425  28.506  12.377  0.00  0.00    +0.000 N 
ATOM      6  C   UNL     1       1.073  29.765  12.376  0.00  0.00    +0.000 C 
ATOM      7  C   UNL     1       0.859  29.493  14.709  0.00  0.00    +0.000 C 
ATOM      8  C   UNL     1       0.266  28.352  14.807  0.00  0.00    +0.000 C 
ATOM      9  C   UNL     1       0.045  27.714  13.469  0.00  0.00    +0.000 C 
ATOM     10  H   UNL     1       0.287  28.095  11.465  0.00  0.00    +0.000 HD
ENDROOT
BRANCH   4  13
ATOM     11  O4* UNL     1       1.329  32.677  13.615  0.00  0.00    +0.000 OA
ATOM     12  C3* UNL     1       3.353  33.054  14.680  0.00  0.00    +0.000 A 
ATOM     13  C1* UNL     1       1.902  31.447  13.963  0.00  0.00    +0.000 A 
ATOM     14  C2* UNL     1       3.129  31.667  14.618  0.00  0.00    +0.000 A 
ATOM     15  C4* UNL     1       2.212  33.673  14.051  0.00  0.00    +0.000 A 
BRANCH  12  16
ATOM     16  O3* UNL     1       4.041  33.662  15.692  0.00  0.00    +0.000 OA
ATOM     17  H3* UNL     1       3.619  33.525  16.558  0.00  0.00    +0.000 HD
ENDBRANCH  12  16
BRANCH  15  18
ATOM     18  C5* UNL     1       1.871  35.040  14.046  0.00  0.00    +0.000 C 
BRANCH  18  19
ATOM     19  O5* UNL     1       1.570  36.334  14.049  0.00  0.00    +0.000 OA
ATOM     20  H5* UNL     1       1.873  36.756  14.871  0.00  0.00    +0.000 HD
ENDBRANCH  18  19
ENDBRANCH  15  18
ENDBRANCH   4  13
TORSDOF 4
ENDMDL
MODEL 7
REMARK VINA RESULT:      -3.9     28.931     30.442
REMARK  Name = 3363_5FluorouracilDeoxyriboside.pdbqt.pdb
REMARK  4 active torsions:
REMARK  status: ('A' for Active; 'I' for Inactive)
REMARK    1  A    between atoms: N_4  and  C1*_13
REMARK    2  A    between atoms: C3*_12  and  O3*_16
REMARK    3  A    between atoms: C4*_15  and  C5*_18
REMARK    4  A    between atoms: C5*_18  and  O5*_19
REMARK                            x       y       z     vdW  Elec       q    Type
REMARK                         _______ _______ _______ _____ _____    ______ ____
ROOT
ATOM      1  F   UNL     1       1.047  27.749  14.921  0.00  0.00    +0.000 F 
ATOM      2  O   UNL     1      -4.003  25.831  15.498  0.00  0.00    +0.000 OA
ATOM      3  O   UNL     1       0.028  25.659  13.310  0.00  0.00    +0.000 OA
ATOM      4  N   UNL     1      -2.227  27.158  16.338  0.00  0.00    +0.000 N 
ATOM      5  N   UNL     1      -1.945  25.724  14.497  0.00  0.00    +0.000 N 
ATOM      6  C   UNL     1      -2.841  26.219  15.475  0.00  0.00    +0.000 C 
ATOM      7  C   UNL     1      -0.926  27.438  16.118  0.00  0.00    +0.000 C 
ATOM      8  C   UNL     1      -0.042  27.042  15.266  0.00  0.00    +0.000 C 
ATOM      9  C   UNL     1      -0.610  26.084  14.265  0.00  0.00    +0.000 C 
ATOM     10  H   UNL     1      -2.349  25.080  13.832  0.00  0.00    +0.000 HD
ENDROOT
BRANCH   4  13
ATOM     11  O4* UNL     1      -3.530  29.017  17.175  0.00  0.00    +0.000 OA
ATOM     12  C3* UNL     1      -3.769  28.351  19.382  0.00  0.00    +0.000 A 
ATOM     13  C1* UNL     1      -2.874  27.793  17.360  0.00  0.00    +0.000 A 
ATOM     14  C2* UNL     1      -3.022  27.377  18.697  0.00  0.00    +0.000 A 
ATOM     15  C4* UNL     1      -4.085  29.371  18.411  0.00  0.00    +0.000 A 
BRANCH  12  16
ATOM     16  O3* UNL     1      -4.600  28.067  20.429  0.00  0.00    +0.000 OA
ATOM     17  H3* UNL     1      -4.119  27.685  21.186  0.00  0.00    +0.000 HD
ENDBRANCH  12  16
BRANCH  15  18
ATOM     18  C5* UNL     1      -4.982  30.447  18.557  0.00  0.00    +0.000 C 
BRANCH  18  19
ATOM     19  O5* UNL     1      -5.813  31.473  18.702  0.00  0.00    +0.000 OA
ATOM     20  H5* UNL     1      -5.382  32.305  18.438  0.00  0.00    +0.000 HD
ENDBRANCH  18  19
ENDBRANCH  15  18
ENDBRANCH   4  13
TORSDOF 4
ENDMDL
MODEL 8
REMARK VINA RESULT:      -3.8     28.952     29.941
REMARK  Name = 3363_5FluorouracilDeoxyriboside.pdbqt.pdb
REMARK  4 active torsions:
REMARK  status: ('A' for Active; 'I' for Inactive)
REMARK    1  A    between atoms: N_4  and  C1*_13
REMARK    2  A    between atoms: C3*_12  and  O3*_16
REMARK    3  A    between atoms: C4*_15  and  C5*_18
REMARK    4  A    between atoms: C5*_18  and  O5*_19
REMARK                            x       y       z     vdW  Elec       q    Type
REMARK                         _______ _______ _______ _____ _____    ______ ____
ROOT
ATOM      1  F   UNL     1       0.609  27.105  15.012  0.00  0.00    +0.000 F 
ATOM      2  O   UNL     1      -3.081  27.335  18.992  0.00  0.00    +0.000 OA
ATOM      3  O   UNL     1       0.474  29.269  16.829  0.00  0.00    +0.000 OA
ATOM      4  N   UNL     1      -2.311  26.316  16.995  0.00  0.00    +0.000 N 
ATOM      5  N   UNL     1      -1.363  28.301  17.825  0.00  0.00    +0.000 N 
ATOM      6  C   UNL     1      -2.339  27.294  18.018  0.00  0.00    +0.000 C 
ATOM      7  C   UNL     1      -1.395  26.475  16.018  0.00  0.00    +0.000 C 
ATOM      8  C   UNL     1      -0.480  27.347  15.761  0.00  0.00    +0.000 C 
ATOM      9  C   UNL     1      -0.389  28.400  16.822  0.00  0.00    +0.000 C 
ATOM     10  H   UNL     1      -1.319  29.000  18.552  0.00  0.00    +0.000 HD
ENDROOT
BRANCH   4  13
ATOM     11  O4* UNL     1      -3.146  24.346  15.866  0.00  0.00    +0.000 OA
ATOM     12  C3* UNL     1      -4.696  23.636  17.435  0.00  0.00    +0.000 A 
ATOM     13  C1* UNL     1      -3.141  25.232  16.951  0.00  0.00    +0.000 A 
ATOM     14  C2* UNL     1      -4.075  24.803  17.914  0.00  0.00    +0.000 A 
ATOM     15  C4* UNL     1      -4.097  23.360  16.152  0.00  0.00    +0.000 A 
BRANCH  12  16
ATOM     16  O3* UNL     1      -5.157  22.639  18.249  0.00  0.00    +0.000 OA
ATOM     17  H3* UNL     1      -5.618  22.989  19.032  0.00  0.00    +0.000 HD
ENDBRANCH  12  16
BRANCH  15  18
ATOM     18  C5* UNL     1      -4.236  22.194  15.373  0.00  0.00    +0.000 C 
BRANCH  18  19
ATOM     19  O5* UNL     1      -4.363  21.083  14.656  0.00  0.00    +0.000 OA
ATOM     20  H5* UNL     1      -4.006  21.210  13.759  0.00  0.00    +0.000 HD
ENDBRANCH  18  19
ENDBRANCH  15  18
ENDBRANCH   4  13
TORSDOF 4
ENDMDL
MODEL 9
REMARK VINA RESULT:      -3.8     29.149     30.263
REMARK  Name = 3363_5FluorouracilDeoxyriboside.pdbqt.pdb
REMARK  4 active torsions:
REMARK  status: ('A' for Active; 'I' for Inactive)
REMARK    1  A    between atoms: N_4  and  C1*_13
REMARK    2  A    between atoms: C3*_12  and  O3*_16
REMARK    3  A    between atoms: C4*_15  and  C5*_18
REMARK    4  A    between atoms: C5*_18  and  O5*_19
REMARK                            x       y       z     vdW  Elec       q    Type
REMARK                         _______ _______ _______ _____ _____    ______ ____
ROOT
ATOM      1  F   UNL     1      -1.439  25.803  13.082  0.00  0.00    +0.000 F 
ATOM      2  O   UNL     1      -1.435  30.486  15.836  0.00  0.00    +0.000 OA
ATOM      3  O   UNL     1      -3.466  26.469  14.939  0.00  0.00    +0.000 OA
ATOM      4  N   UNL     1      -0.286  28.948  14.445  0.00  0.00    +0.000 N 
ATOM      5  N   UNL     1      -2.362  28.432  15.420  0.00  0.00    +0.000 N 
ATOM      6  C   UNL     1      -1.339  29.400  15.276  0.00  0.00    +0.000 C 
ATOM      7  C   UNL     1      -0.399  27.707  13.929  0.00  0.00    +0.000 C 
ATOM      8  C   UNL     1      -1.279  26.767  14.004  0.00  0.00    +0.000 C 
ATOM      9  C   UNL     1      -2.470  27.171  14.819  0.00  0.00    +0.000 C 
ATOM     10  H   UNL     1      -3.155  28.726  15.972  0.00  0.00    +0.000 HD
ENDROOT
BRANCH   4  13
ATOM     11  O4* UNL     1       1.098  30.092  12.823  0.00  0.00    +0.000 OA
ATOM     12  C3* UNL     1       2.746  30.905  14.234  0.00  0.00    +0.000 A 
ATOM     13  C1* UNL     1       0.817  29.692  14.136  0.00  0.00    +0.000 A 
ATOM     14  C2* UNL     1       1.810  30.190  15.002  0.00  0.00    +0.000 A 
ATOM     15  C4* UNL     1       2.281  30.838  12.870  0.00  0.00    +0.000 A 
BRANCH  12  16
ATOM     16  O3* UNL     1       3.450  31.976  14.708  0.00  0.00    +0.000 OA
ATOM     17  H3* UNL     1       4.403  31.901  14.521  0.00  0.00    +0.000 HD
ENDBRANCH  12  16
BRANCH  15  18
ATOM     18  C5* UNL     1       2.761  31.565  11.763  0.00  0.00    +0.000 C 
BRANCH  18  19
ATOM     19  O5* UNL     1       3.199  32.266  10.723  0.00  0.00    +0.000 OA
ATOM     20  H5* UNL     1       2.655  33.061  10.590  0.00  0.00    +0.000 HD
ENDBRANCH  18  19
ENDBRANCH  15  18
ENDBRANCH   4  13
TORSDOF 4
ENDMDL
