MODEL 1
REMARK VINA RESULT:      -3.8      0.000      0.000
REMARK  Name = 3385_5Fluorouracil.pdbqt.pdb
REMARK  0 active torsions:
REMARK  status: ('A' for Active; 'I' for Inactive)
REMARK                            x       y       z     vdW  Elec       q    Type
REMARK                         _______ _______ _______ _____ _____    ______ ____
ROOT
ATOM      1  F   UNL     1      11.130  16.501  28.616  0.00  0.00    +0.000 F 
ATOM      2  O   UNL     1      11.868  18.007  30.899  0.00  0.00    +0.000 OA
ATOM      3  O   UNL     1      16.253  16.662  30.403  0.00  0.00    +0.000 OA
ATOM      4  N   UNL     1      14.040  17.276  30.686  0.00  0.00    +0.000 N 
ATOM      5  N   UNL     1      14.638  15.766  29.027  0.00  0.00    +0.000 N 
ATOM      6  C   UNL     1      12.680  17.276  30.344  0.00  0.00    +0.000 C 
ATOM      7  C   UNL     1      15.081  16.570  30.066  0.00  0.00    +0.000 C 
ATOM      8  C   UNL     1      12.305  16.327  29.242  0.00  0.00    +0.000 C 
ATOM      9  C   UNL     1      13.331  15.734  28.729  0.00  0.00    +0.000 C 
ATOM     10  H   UNL     1      14.313  17.906  31.426  0.00  0.00    +0.000 HD
ATOM     11  H   UNL     1      15.314  15.218  28.511  0.00  0.00    +0.000 HD
ENDROOT
TORSDOF 0
ENDMDL
MODEL 2
REMARK VINA RESULT:      -3.8      2.006      2.409
REMARK  Name = 3385_5Fluorouracil.pdbqt.pdb
REMARK  0 active torsions:
REMARK  status: ('A' for Active; 'I' for Inactive)
REMARK                            x       y       z     vdW  Elec       q    Type
REMARK                         _______ _______ _______ _____ _____    ______ ____
ROOT
ATOM      1  F   UNL     1       9.885  18.457  29.290  0.00  0.00    +0.000 F 
ATOM      2  O   UNL     1      10.063  15.637  29.490  0.00  0.00    +0.000 OA
ATOM      3  O   UNL     1      14.523  15.969  30.620  0.00  0.00    +0.000 OA
ATOM      4  N   UNL     1      12.304  15.808  29.985  0.00  0.00    +0.000 N 
ATOM      5  N   UNL     1      13.370  17.870  30.014  0.00  0.00    +0.000 N 
ATOM      6  C   UNL     1      11.065  16.334  29.592  0.00  0.00    +0.000 C 
ATOM      7  C   UNL     1      13.493  16.506  30.237  0.00  0.00    +0.000 C 
ATOM      8  C   UNL     1      11.063  17.813  29.326  0.00  0.00    +0.000 C 
ATOM      9  C   UNL     1      12.197  18.367  29.597  0.00  0.00    +0.000 C 
ATOM     10  H   UNL     1      12.328  14.816  30.168  0.00  0.00    +0.000 HD
ATOM     11  H   UNL     1      14.173  18.465  30.173  0.00  0.00    +0.000 HD
ENDROOT
TORSDOF 0
ENDMDL
MODEL 3
REMARK VINA RESULT:      -3.7      2.485      3.448
REMARK  Name = 3385_5Fluorouracil.pdbqt.pdb
REMARK  0 active torsions:
REMARK  status: ('A' for Active; 'I' for Inactive)
REMARK                            x       y       z     vdW  Elec       q    Type
REMARK                         _______ _______ _______ _____ _____    ______ ____
ROOT
ATOM      1  F   UNL     1      12.993  13.705  31.132  0.00  0.00    +0.000 F 
ATOM      2  O   UNL     1      14.544  16.024  30.643  0.00  0.00    +0.000 OA
ATOM      3  O   UNL     1      10.919  18.062  28.646  0.00  0.00    +0.000 OA
ATOM      4  N   UNL     1      12.750  17.008  29.586  0.00  0.00    +0.000 N 
ATOM      5  N   UNL     1      10.754  15.859  29.298  0.00  0.00    +0.000 N 
ATOM      6  C   UNL     1      13.406  15.929  30.197  0.00  0.00    +0.000 C 
ATOM      7  C   UNL     1      11.426  17.061  29.130  0.00  0.00    +0.000 C 
ATOM      8  C   UNL     1      12.602  14.663  30.275  0.00  0.00    +0.000 C 
ATOM      9  C   UNL     1      11.395  14.815  29.843  0.00  0.00    +0.000 C 
ATOM     10  H   UNL     1      13.274  17.868  29.522  0.00  0.00    +0.000 HD
ATOM     11  H   UNL     1       9.788  15.794  29.005  0.00  0.00    +0.000 HD
ENDROOT
TORSDOF 0
ENDMDL
MODEL 4
REMARK VINA RESULT:      -3.5     15.372     15.923
REMARK  Name = 3385_5Fluorouracil.pdbqt.pdb
REMARK  0 active torsions:
REMARK  status: ('A' for Active; 'I' for Inactive)
REMARK                            x       y       z     vdW  Elec       q    Type
REMARK                         _______ _______ _______ _____ _____    ______ ____
ROOT
ATOM      1  F   UNL     1       0.333  18.605  23.896  0.00  0.00    +0.000 F 
ATOM      2  O   UNL     1       0.119  18.676  21.073  0.00  0.00    +0.000 OA
ATOM      3  O   UNL     1      -1.063  14.217  21.022  0.00  0.00    +0.000 OA
ATOM      4  N   UNL     1      -0.402  16.434  21.051  0.00  0.00    +0.000 N 
ATOM      5  N   UNL     1      -0.435  15.193  23.012  0.00  0.00    +0.000 N 
ATOM      6  C   UNL     1       0.008  17.618  21.680  0.00  0.00    +0.000 C 
ATOM      7  C   UNL     1      -0.665  15.192  21.644  0.00  0.00    +0.000 C 
ATOM      8  C   UNL     1       0.281  17.489  23.152  0.00  0.00    +0.000 C 
ATOM      9  C   UNL     1      -0.002  16.314  23.607  0.00  0.00    +0.000 C 
ATOM     10  H   UNL     1      -0.589  16.499  20.061  0.00  0.00    +0.000 HD
ATOM     11  H   UNL     1      -0.601  14.344  23.536  0.00  0.00    +0.000 HD
ENDROOT
TORSDOF 0
ENDMDL
MODEL 5
REMARK VINA RESULT:      -3.5     11.066     12.171
REMARK  Name = 3385_5Fluorouracil.pdbqt.pdb
REMARK  0 active torsions:
REMARK  status: ('A' for Active; 'I' for Inactive)
REMARK                            x       y       z     vdW  Elec       q    Type
REMARK                         _______ _______ _______ _____ _____    ______ ____
ROOT
ATOM      1  F   UNL     1      24.619  15.325  26.653  0.00  0.00    +0.000 F 
ATOM      2  O   UNL     1      22.384  13.610  26.951  0.00  0.00    +0.000 OA
ATOM      3  O   UNL     1      23.747  11.151  23.293  0.00  0.00    +0.000 OA
ATOM      4  N   UNL     1      23.033  12.430  25.084  0.00  0.00    +0.000 N 
ATOM      5  N   UNL     1      24.889  13.073  23.847  0.00  0.00    +0.000 N 
ATOM      6  C   UNL     1      23.130  13.500  25.985  0.00  0.00    +0.000 C 
ATOM      7  C   UNL     1      23.880  12.135  24.007  0.00  0.00    +0.000 C 
ATOM      8  C   UNL     1      24.225  14.484  25.682  0.00  0.00    +0.000 C 
ATOM      9  C   UNL     1      24.956  14.119  24.683  0.00  0.00    +0.000 C 
ATOM     10  H   UNL     1      22.303  11.759  25.268  0.00  0.00    +0.000 HD
ATOM     11  H   UNL     1      25.559  12.948  23.099  0.00  0.00    +0.000 HD
ENDROOT
TORSDOF 0
ENDMDL
MODEL 6
REMARK VINA RESULT:      -3.5     22.841     23.508
REMARK  Name = 3385_5Fluorouracil.pdbqt.pdb
REMARK  0 active torsions:
REMARK  status: ('A' for Active; 'I' for Inactive)
REMARK                            x       y       z     vdW  Elec       q    Type
REMARK                         _______ _______ _______ _____ _____    ______ ____
ROOT
ATOM      1  F   UNL     1       0.733  28.579  12.072  0.00  0.00    +0.000 F 
ATOM      2  O   UNL     1       2.207  30.460  13.592  0.00  0.00    +0.000 OA
ATOM      3  O   UNL     1       0.273  28.883  17.472  0.00  0.00    +0.000 OA
ATOM      4  N   UNL     1       1.186  29.715  15.516  0.00  0.00    +0.000 N 
ATOM      5  N   UNL     1      -0.448  28.067  15.442  0.00  0.00    +0.000 N 
ATOM      6  C   UNL     1       1.355  29.759  14.124  0.00  0.00    +0.000 C 
ATOM      7  C   UNL     1       0.326  28.887  16.250  0.00  0.00    +0.000 C 
ATOM      8  C   UNL     1       0.426  28.871  13.346  0.00  0.00    +0.000 C 
ATOM      9  C   UNL     1      -0.316  28.141  14.110  0.00  0.00    +0.000 C 
ATOM     10  H   UNL     1       1.799  30.305  16.057  0.00  0.00    +0.000 HD
ATOM     11  H   UNL     1      -1.099  27.426  15.876  0.00  0.00    +0.000 HD
ENDROOT
TORSDOF 0
ENDMDL
MODEL 7
REMARK VINA RESULT:      -3.4     16.444     17.365
REMARK  Name = 3385_5Fluorouracil.pdbqt.pdb
REMARK  0 active torsions:
REMARK  status: ('A' for Active; 'I' for Inactive)
REMARK                            x       y       z     vdW  Elec       q    Type
REMARK                         _______ _______ _______ _____ _____    ______ ____
ROOT
ATOM      1  F   UNL     1      20.406   0.494  21.759  0.00  0.00    +0.000 F 
ATOM      2  O   UNL     1      19.749   3.234  22.046  0.00  0.00    +0.000 OA
ATOM      3  O   UNL     1      17.710   2.353  26.088  0.00  0.00    +0.000 OA
ATOM      4  N   UNL     1      18.673   2.776  24.028  0.00  0.00    +0.000 N 
ATOM      5  N   UNL     1      18.494   0.600  24.817  0.00  0.00    +0.000 N 
ATOM      6  C   UNL     1      19.333   2.406  22.847  0.00  0.00    +0.000 C 
ATOM      7  C   UNL     1      18.242   1.940  25.068  0.00  0.00    +0.000 C 
ATOM      8  C   UNL     1      19.503   0.926  22.654  0.00  0.00    +0.000 C 
ATOM      9  C   UNL     1      19.087   0.244  23.668  0.00  0.00    +0.000 C 
ATOM     10  H   UNL     1      18.548   3.766  24.176  0.00  0.00    +0.000 HD
ATOM     11  H   UNL     1      18.225  -0.086  25.511  0.00  0.00    +0.000 HD
ENDROOT
TORSDOF 0
ENDMDL
MODEL 8
REMARK VINA RESULT:      -3.3     14.149     14.929
REMARK  Name = 3385_5Fluorouracil.pdbqt.pdb
REMARK  0 active torsions:
REMARK  status: ('A' for Active; 'I' for Inactive)
REMARK                            x       y       z     vdW  Elec       q    Type
REMARK                         _______ _______ _______ _____ _____    ______ ____
ROOT
ATOM      1  F   UNL     1      -1.956  19.206  23.919  0.00  0.00    +0.000 F 
ATOM      2  O   UNL     1      -0.032  18.645  21.917  0.00  0.00    +0.000 OA
ATOM      3  O   UNL     1       1.612  15.148  24.436  0.00  0.00    +0.000 OA
ATOM      4  N   UNL     1       0.828  16.946  23.210  0.00  0.00    +0.000 N 
ATOM      5  N   UNL     1      -0.015  16.512  25.329  0.00  0.00    +0.000 N 
ATOM      6  C   UNL     1      -0.013  18.046  22.985  0.00  0.00    +0.000 C 
ATOM      7  C   UNL     1       0.874  16.117  24.340  0.00  0.00    +0.000 C 
ATOM      8  C   UNL     1      -0.893  18.416  24.145  0.00  0.00    +0.000 C 
ATOM      9  C   UNL     1      -0.788  17.589  25.130  0.00  0.00    +0.000 C 
ATOM     10  H   UNL     1       1.429  16.682  22.444  0.00  0.00    +0.000 HD
ATOM     11  H   UNL     1      -0.063  15.974  26.185  0.00  0.00    +0.000 HD
ENDROOT
TORSDOF 0
ENDMDL
MODEL 9
REMARK VINA RESULT:      -3.1     23.193     23.811
REMARK  Name = 3385_5Fluorouracil.pdbqt.pdb
REMARK  0 active torsions:
REMARK  status: ('A' for Active; 'I' for Inactive)
REMARK                            x       y       z     vdW  Elec       q    Type
REMARK                         _______ _______ _______ _____ _____    ______ ____
ROOT
ATOM      1  F   UNL     1       2.248  31.244  12.165  0.00  0.00    +0.000 F 
ATOM      2  O   UNL     1       2.882  31.102  14.922  0.00  0.00    +0.000 OA
ATOM      3  O   UNL     1       0.431  27.213  15.314  0.00  0.00    +0.000 OA
ATOM      4  N   UNL     1       1.601  29.200  15.124  0.00  0.00    +0.000 N 
ATOM      5  N   UNL     1       0.413  28.359  13.316  0.00  0.00    +0.000 N 
ATOM      6  C   UNL     1       2.091  30.311  14.422  0.00  0.00    +0.000 C 
ATOM      7  C   UNL     1       0.779  28.173  14.641  0.00  0.00    +0.000 C 
ATOM      8  C   UNL     1       1.586  30.441  13.013  0.00  0.00    +0.000 C 
ATOM      9  C   UNL     1       0.848  29.443  12.658  0.00  0.00    +0.000 C 
ATOM     10  H   UNL     1       1.927  29.095  16.074  0.00  0.00    +0.000 HD
ATOM     11  H   UNL     1      -0.176  27.668  12.870  0.00  0.00    +0.000 HD
ENDROOT
TORSDOF 0
ENDMDL
