MODEL 1
REMARK VINA RESULT:      -6.3      0.000      0.000
REMARK  Name = 342374_SipholenolA.pdbqt.pdb
REMARK  5 active torsions:
REMARK  status: ('A' for Active; 'I' for Inactive)
REMARK    1  A    between atoms: C_3  and  C_20
REMARK    2  A    between atoms: C_4  and  O_16
REMARK    3  A    between atoms: C_13  and  O_18
REMARK    4  A    between atoms: C_21  and  C_25
REMARK    5  A    between atoms: C_26  and  O_36
REMARK                            x       y       z     vdW  Elec       q    Type
REMARK                         _______ _______ _______ _____ _____    ______ ____
ROOT
ATOM      1  O   UNL     1      -2.726  27.937  18.323  0.00  0.00    +0.000 OA
ATOM      2  C   UNL     1      -1.517  27.935  16.008  0.00  0.00    +0.000 C 
ATOM      3  C   UNL     1      -1.329  27.138  14.714  0.00  0.00    +0.000 C 
ATOM      4  C   UNL     1      -1.137  25.632  14.774  0.00  0.00    +0.000 C 
ATOM      5  C   UNL     1      -2.322  27.228  17.185  0.00  0.00    +0.000 C 
ATOM      6  C   UNL     1      -2.350  29.121  15.759  0.00  0.00    +0.000 C 
ATOM      7  C   UNL     1      -1.629  25.148  16.049  0.00  0.00    +0.000 C 
ATOM      8  C   UNL     1      -2.217  25.825  17.241  0.00  0.00    +0.000 C 
ATOM      9  C   UNL     1      -0.129  28.352  16.566  0.00  0.00    +0.000 C 
ATOM     10  C   UNL     1      -3.473  29.923  16.371  0.00  0.00    +0.000 C 
ATOM     11  C   UNL     1      -4.087  28.477  18.380  0.00  0.00    +0.000 C 
ATOM     12  C   UNL     1      -1.845  24.939  13.600  0.00  0.00    +0.000 C 
ATOM     13  C   UNL     1      -4.249  29.781  17.541  0.00  0.00    +0.000 C 
ATOM     14  C   UNL     1      -5.145  27.444  17.893  0.00  0.00    +0.000 C 
ATOM     15  C   UNL     1      -4.369  28.849  19.865  0.00  0.00    +0.000 C 
ENDROOT
BRANCH   4  16
ATOM     16  O   UNL     1       0.226  25.318  14.636  0.00  0.00    +0.000 OA
ATOM     17  H   UNL     1       0.640  26.048  15.130  0.00  0.00    +0.000 HD
ENDBRANCH   4  16
BRANCH  13  18
ATOM     18  O   UNL     1      -5.113  30.808  17.907  0.00  0.00    +0.000 OA
ATOM     19  H   UNL     1      -4.761  31.319  18.665  0.00  0.00    +0.000 HD
ENDBRANCH  13  18
BRANCH   3  20
ATOM     20  C   UNL     1      -1.098  27.835  13.475  0.00  0.00    +0.000 C 
ATOM     21  C   UNL     1      -0.840  28.586  12.165  0.00  0.00    +0.000 C 
BRANCH  21  25
ATOM     22  C   UNL     1      -1.099  28.221   8.599  0.00  0.00    +0.000 C 
ATOM     23  C   UNL     1      -1.540  29.198   9.722  0.00  0.00    +0.000 C 
ATOM     24  C   UNL     1       0.189  28.305   7.832  0.00  0.00    +0.000 C 
ATOM     25  C   UNL     1      -0.593  29.295  10.942  0.00  0.00    +0.000 C 
ATOM     26  C   UNL     1       0.171  27.486   6.546  0.00  0.00    +0.000 C 
ATOM     27  C   UNL     1      -1.944  27.359   7.837  0.00  0.00    +0.000 C 
ATOM     28  C   UNL     1      -1.178  26.936   6.614  0.00  0.00    +0.000 C 
ATOM     29  C   UNL     1       1.225  29.068   8.400  0.00  0.00    +0.000 C 
ATOM     30  C   UNL     1       0.681  30.003  10.812  0.00  0.00    +0.000 C 
ATOM     31  C   UNL     1      -2.957  28.733  10.230  0.00  0.00    +0.000 C 
ATOM     32  C   UNL     1      -1.741  30.616   9.086  0.00  0.00    +0.000 C 
ATOM     33  C   UNL     1       1.339  29.788   9.716  0.00  0.00    +0.000 C 
ATOM     34  C   UNL     1       1.294  26.460   6.494  0.00  0.00    +0.000 C 
ATOM     35  C   UNL     1       1.454  30.561  11.977  0.00  0.00    +0.000 C 
BRANCH  26  36
ATOM     36  O   UNL     1       0.320  28.326   5.431  0.00  0.00    +0.000 OA
ATOM     37  H   UNL     1       0.194  29.200   5.840  0.00  0.00    +0.000 HD
ENDBRANCH  26  36
ENDBRANCH  21  25
ENDBRANCH   3  20
TORSDOF 5
ENDMDL
MODEL 2
REMARK VINA RESULT:      -6.2      3.640      6.086
REMARK  Name = 342374_SipholenolA.pdbqt.pdb
REMARK  5 active torsions:
REMARK  status: ('A' for Active; 'I' for Inactive)
REMARK    1  A    between atoms: C_3  and  C_20
REMARK    2  A    between atoms: C_4  and  O_16
REMARK    3  A    between atoms: C_13  and  O_18
REMARK    4  A    between atoms: C_21  and  C_25
REMARK    5  A    between atoms: C_26  and  O_36
REMARK                            x       y       z     vdW  Elec       q    Type
REMARK                         _______ _______ _______ _____ _____    ______ ____
ROOT
ATOM      1  O   UNL     1      -3.104  27.534  17.955  0.00  0.00    +0.000 OA
ATOM      2  C   UNL     1      -1.176  28.501  16.482  0.00  0.00    +0.000 C 
ATOM      3  C   UNL     1      -0.455  28.354  15.139  0.00  0.00    +0.000 C 
ATOM      4  C   UNL     1      -0.114  26.971  14.612  0.00  0.00    +0.000 C 
ATOM      5  C   UNL     1      -2.247  27.385  16.858  0.00  0.00    +0.000 C 
ATOM      6  C   UNL     1      -2.010  29.713  16.482  0.00  0.00    +0.000 C 
ATOM      7  C   UNL     1      -0.953  25.995  15.279  0.00  0.00    +0.000 C 
ATOM      8  C   UNL     1      -1.997  26.099  16.340  0.00  0.00    +0.000 C 
ATOM      9  C   UNL     1      -0.130  28.561  17.628  0.00  0.00    +0.000 C 
ATOM     10  C   UNL     1      -3.364  30.213  16.923  0.00  0.00    +0.000 C 
ATOM     11  C   UNL     1      -4.455  28.057  17.738  0.00  0.00    +0.000 C 
ATOM     12  C   UNL     1      -0.280  26.906  13.087  0.00  0.00    +0.000 C 
ATOM     13  C   UNL     1      -4.474  29.603  17.545  0.00  0.00    +0.000 C 
ATOM     14  C   UNL     1      -5.144  27.399  16.506  0.00  0.00    +0.000 C 
ATOM     15  C   UNL     1      -5.278  27.744  19.022  0.00  0.00    +0.000 C 
ENDROOT
BRANCH   4  16
ATOM     16  O   UNL     1       1.240  26.686  14.861  0.00  0.00    +0.000 OA
ATOM     17  H   UNL     1       1.427  26.028  14.167  0.00  0.00    +0.000 HD
ENDBRANCH   4  16
BRANCH  13  18
ATOM     18  O   UNL     1      -5.531  30.401  17.973  0.00  0.00    +0.000 OA
ATOM     19  H   UNL     1      -5.409  31.334  17.695  0.00  0.00    +0.000 HD
ENDBRANCH  13  18
BRANCH   3  20
ATOM     20  C   UNL     1       0.104  29.517  14.499  0.00  0.00    +0.000 C 
ATOM     21  C   UNL     1       0.687  30.753  13.807  0.00  0.00    +0.000 C 
BRANCH  21  25
ATOM     22  C   UNL     1       3.334  33.168  14.089  0.00  0.00    +0.000 C 
ATOM     23  C   UNL     1       2.748  32.171  13.052  0.00  0.00    +0.000 C 
ATOM     24  C   UNL     1       2.906  34.598  14.256  0.00  0.00    +0.000 C 
ATOM     25  C   UNL     1       1.226  31.910  13.152  0.00  0.00    +0.000 C 
ATOM     26  C   UNL     1       3.909  35.431  15.045  0.00  0.00    +0.000 C 
ATOM     27  C   UNL     1       4.587  33.061  14.763  0.00  0.00    +0.000 C 
ATOM     28  C   UNL     1       4.921  34.417  15.320  0.00  0.00    +0.000 C 
ATOM     29  C   UNL     1       1.660  34.962  13.715  0.00  0.00    +0.000 C 
ATOM     30  C   UNL     1       0.287  32.940  12.708  0.00  0.00    +0.000 C 
ATOM     31  C   UNL     1       3.500  30.799  13.232  0.00  0.00    +0.000 C 
ATOM     32  C   UNL     1       3.110  32.689  11.618  0.00  0.00    +0.000 C 
ATOM     33  C   UNL     1       0.582  34.157  13.041  0.00  0.00    +0.000 C 
ATOM     34  C   UNL     1       3.287  36.082  16.273  0.00  0.00    +0.000 C 
ATOM     35  C   UNL     1      -1.142  32.663  12.321  0.00  0.00    +0.000 C 
BRANCH  26  36
ATOM     36  O   UNL     1       4.428  36.460  14.244  0.00  0.00    +0.000 OA
ATOM     37  H   UNL     1       4.532  35.997  13.394  0.00  0.00    +0.000 HD
ENDBRANCH  26  36
ENDBRANCH  21  25
ENDBRANCH   3  20
TORSDOF 5
ENDMDL
MODEL 3
REMARK VINA RESULT:      -6.1      2.151      9.264
REMARK  Name = 342374_SipholenolA.pdbqt.pdb
REMARK  5 active torsions:
REMARK  status: ('A' for Active; 'I' for Inactive)
REMARK    1  A    between atoms: C_3  and  C_20
REMARK    2  A    between atoms: C_4  and  O_16
REMARK    3  A    between atoms: C_13  and  O_18
REMARK    4  A    between atoms: C_21  and  C_25
REMARK    5  A    between atoms: C_26  and  O_36
REMARK                            x       y       z     vdW  Elec       q    Type
REMARK                         _______ _______ _______ _____ _____    ______ ____
ROOT
ATOM      1  O   UNL     1      -0.854  26.004   5.672  0.00  0.00    +0.000 OA
ATOM      2  C   UNL     1      -0.404  27.427   7.815  0.00  0.00    +0.000 C 
ATOM      3  C   UNL     1      -1.016  28.467   8.758  0.00  0.00    +0.000 C 
ATOM      4  C   UNL     1      -1.793  29.640   8.186  0.00  0.00    +0.000 C 
ATOM      5  C   UNL     1      -1.216  27.079   6.491  0.00  0.00    +0.000 C 
ATOM      6  C   UNL     1      -0.349  26.112   8.473  0.00  0.00    +0.000 C 
ATOM      7  C   UNL     1      -2.210  29.313   6.837  0.00  0.00    +0.000 C 
ATOM      8  C   UNL     1      -1.996  28.125   5.960  0.00  0.00    +0.000 C 
ATOM      9  C   UNL     1       1.019  27.884   7.393  0.00  0.00    +0.000 C 
ATOM     10  C   UNL     1      -0.579  24.646   8.199  0.00  0.00    +0.000 C 
ATOM     11  C   UNL     1      -1.538  24.719   5.838  0.00  0.00    +0.000 C 
ATOM     12  C   UNL     1      -2.996  29.990   9.076  0.00  0.00    +0.000 C 
ATOM     13  C   UNL     1      -1.021  23.921   7.072  0.00  0.00    +0.000 C 
ATOM     14  C   UNL     1      -3.079  24.893   5.976  0.00  0.00    +0.000 C 
ATOM     15  C   UNL     1      -1.223  23.866   4.574  0.00  0.00    +0.000 C 
ENDROOT
BRANCH   4  16
ATOM     16  O   UNL     1      -0.983  30.788   8.172  0.00  0.00    +0.000 OA
ATOM     17  H   UNL     1      -1.019  31.035   7.231  0.00  0.00    +0.000 HD
ENDBRANCH   4  16
BRANCH  13  18
ATOM     18  O   UNL     1      -0.965  22.531   7.099  0.00  0.00    +0.000 OA
ATOM     19  H   UNL     1      -0.064  22.214   7.323  0.00  0.00    +0.000 HD
ENDBRANCH  13  18
BRANCH   3  20
ATOM     20  C   UNL     1      -0.657  28.463  10.153  0.00  0.00    +0.000 C 
ATOM     21  C   UNL     1      -0.265  28.472  11.633  0.00  0.00    +0.000 C 
BRANCH  21  25
ATOM     22  C   UNL     1      -1.508  27.602  14.892  0.00  0.00    +0.000 C 
ATOM     23  C   UNL     1      -0.269  27.343  13.991  0.00  0.00    +0.000 C 
ATOM     24  C   UNL     1      -1.650  28.735  15.867  0.00  0.00    +0.000 C 
ATOM     25  C   UNL     1       0.108  28.486  13.019  0.00  0.00    +0.000 C 
ATOM     26  C   UNL     1      -2.764  28.509  16.883  0.00  0.00    +0.000 C 
ATOM     27  C   UNL     1      -2.512  26.655  15.253  0.00  0.00    +0.000 C 
ATOM     28  C   UNL     1      -3.248  27.205  16.445  0.00  0.00    +0.000 C 
ATOM     29  C   UNL     1      -0.794  29.838  15.699  0.00  0.00    +0.000 C 
ATOM     30  C   UNL     1       0.730  29.703  13.542  0.00  0.00    +0.000 C 
ATOM     31  C   UNL     1      -0.558  26.047  13.144  0.00  0.00    +0.000 C 
ATOM     32  C   UNL     1       0.948  27.005  14.918  0.00  0.00    +0.000 C 
ATOM     33  C   UNL     1       0.231  30.164  14.646  0.00  0.00    +0.000 C 
ATOM     34  C   UNL     1      -3.797  29.627  16.870  0.00  0.00    +0.000 C 
ATOM     35  C   UNL     1       1.544  30.656  12.708  0.00  0.00    +0.000 C 
BRANCH  26  36
ATOM     36  O   UNL     1      -2.235  28.444  18.181  0.00  0.00    +0.000 OA
ATOM     37  H   UNL     1      -1.836  29.328  18.262  0.00  0.00    +0.000 HD
ENDBRANCH  26  36
ENDBRANCH  21  25
ENDBRANCH   3  20
TORSDOF 5
ENDMDL
MODEL 4
REMARK VINA RESULT:      -6.0     17.900     20.241
REMARK  Name = 342374_SipholenolA.pdbqt.pdb
REMARK  5 active torsions:
REMARK  status: ('A' for Active; 'I' for Inactive)
REMARK    1  A    between atoms: C_3  and  C_20
REMARK    2  A    between atoms: C_4  and  O_16
REMARK    3  A    between atoms: C_13  and  O_18
REMARK    4  A    between atoms: C_21  and  C_25
REMARK    5  A    between atoms: C_26  and  O_36
REMARK                            x       y       z     vdW  Elec       q    Type
REMARK                         _______ _______ _______ _____ _____    ______ ____
ROOT
ATOM      1  O   UNL     1       5.043  34.776  29.920  0.00  0.00    +0.000 OA
ATOM      2  C   UNL     1       6.684  32.839  29.306  0.00  0.00    +0.000 C 
ATOM      3  C   UNL     1       8.162  32.486  29.118  0.00  0.00    +0.000 C 
ATOM      4  C   UNL     1       9.082  33.449  28.386  0.00  0.00    +0.000 C 
ATOM      5  C   UNL     1       6.327  34.374  29.535  0.00  0.00    +0.000 C 
ATOM      6  C   UNL     1       6.169  32.235  30.545  0.00  0.00    +0.000 C 
ATOM      7  C   UNL     1       8.479  34.767  28.390  0.00  0.00    +0.000 C 
ATOM      8  C   UNL     1       7.191  35.301  28.920  0.00  0.00    +0.000 C 
ATOM      9  C   UNL     1       5.872  32.341  28.079  0.00  0.00    +0.000 C 
ATOM     10  C   UNL     1       5.282  32.542  31.726  0.00  0.00    +0.000 C 
ATOM     11  C   UNL     1       4.765  35.009  31.340  0.00  0.00    +0.000 C 
ATOM     12  C   UNL     1      10.479  33.468  29.024  0.00  0.00    +0.000 C 
ATOM     13  C   UNL     1       4.561  33.685  32.134  0.00  0.00    +0.000 C 
ATOM     14  C   UNL     1       5.897  35.827  32.029  0.00  0.00    +0.000 C 
ATOM     15  C   UNL     1       3.428  35.803  31.419  0.00  0.00    +0.000 C 
ENDROOT
BRANCH   4  16
ATOM     16  O   UNL     1       9.273  33.014  27.063  0.00  0.00    +0.000 OA
ATOM     17  H   UNL     1       8.872  33.746  26.562  0.00  0.00    +0.000 HD
ENDBRANCH   4  16
BRANCH  13  18
ATOM     18  O   UNL     1       3.690  33.582  33.215  0.00  0.00    +0.000 OA
ATOM     19  H   UNL     1       2.816  33.235  32.938  0.00  0.00    +0.000 HD
ENDBRANCH  13  18
BRANCH   3  20
ATOM     20  C   UNL     1       8.621  31.155  29.420  0.00  0.00    +0.000 C 
ATOM     21  C   UNL     1       9.097  29.733  29.731  0.00  0.00    +0.000 C 
BRANCH  21  25
ATOM     22  C   UNL     1       8.848  26.365  28.501  0.00  0.00    +0.000 C 
ATOM     23  C   UNL     1       9.934  27.399  28.904  0.00  0.00    +0.000 C 
ATOM     24  C   UNL     1       8.212  25.370  29.428  0.00  0.00    +0.000 C 
ATOM     25  C   UNL     1       9.536  28.397  30.017  0.00  0.00    +0.000 C 
ATOM     26  C   UNL     1       7.502  24.239  28.691  0.00  0.00    +0.000 C 
ATOM     27  C   UNL     1       8.557  25.903  27.182  0.00  0.00    +0.000 C 
ATOM     28  C   UNL     1       7.762  24.632  27.311  0.00  0.00    +0.000 C 
ATOM     29  C   UNL     1       8.313  25.622  30.808  0.00  0.00    +0.000 C 
ATOM     30  C   UNL     1       9.448  27.934  31.403  0.00  0.00    +0.000 C 
ATOM     31  C   UNL     1      10.313  28.220  27.614  0.00  0.00    +0.000 C 
ATOM     32  C   UNL     1      11.225  26.615  29.323  0.00  0.00    +0.000 C 
ATOM     33  C   UNL     1       8.889  26.779  31.579  0.00  0.00    +0.000 C 
ATOM     34  C   UNL     1       6.033  24.128  29.073  0.00  0.00    +0.000 C 
ATOM     35  C   UNL     1       9.530  28.845  32.599  0.00  0.00    +0.000 C 
BRANCH  26  36
ATOM     36  O   UNL     1       8.106  23.008  28.989  0.00  0.00    +0.000 OA
ATOM     37  H   UNL     1       8.743  22.933  28.257  0.00  0.00    +0.000 HD
ENDBRANCH  26  36
ENDBRANCH  21  25
ENDBRANCH   3  20
TORSDOF 5
ENDMDL
MODEL 5
REMARK VINA RESULT:      -5.9      2.427      2.945
REMARK  Name = 342374_SipholenolA.pdbqt.pdb
REMARK  5 active torsions:
REMARK  status: ('A' for Active; 'I' for Inactive)
REMARK    1  A    between atoms: C_3  and  C_20
REMARK    2  A    between atoms: C_4  and  O_16
REMARK    3  A    between atoms: C_13  and  O_18
REMARK    4  A    between atoms: C_21  and  C_25
REMARK    5  A    between atoms: C_26  and  O_36
REMARK                            x       y       z     vdW  Elec       q    Type
REMARK                         _______ _______ _______ _____ _____    ______ ____
ROOT
ATOM      1  O   UNL     1      -3.039  27.399  18.377  0.00  0.00    +0.000 OA
ATOM      2  C   UNL     1      -1.310  28.256  16.618  0.00  0.00    +0.000 C 
ATOM      3  C   UNL     1      -0.753  28.011  15.212  0.00  0.00    +0.000 C 
ATOM      4  C   UNL     1      -0.465  26.593  14.751  0.00  0.00    +0.000 C 
ATOM      5  C   UNL     1      -2.318  27.170  17.199  0.00  0.00    +0.000 C 
ATOM      6  C   UNL     1      -2.149  29.465  16.630  0.00  0.00    +0.000 C 
ATOM      7  C   UNL     1      -1.210  25.669  15.583  0.00  0.00    +0.000 C 
ATOM      8  C   UNL     1      -2.120  25.850  16.750  0.00  0.00    +0.000 C 
ATOM      9  C   UNL     1      -0.135  28.400  17.623  0.00  0.00    +0.000 C 
ATOM     10  C   UNL     1      -3.446  29.995  17.191  0.00  0.00    +0.000 C 
ATOM     11  C   UNL     1      -4.411  27.904  18.286  0.00  0.00    +0.000 C 
ATOM     12  C   UNL     1      -0.811  26.416  13.265  0.00  0.00    +0.000 C 
ATOM     13  C   UNL     1      -4.468  29.432  17.986  0.00  0.00    +0.000 C 
ATOM     14  C   UNL     1      -5.236  27.157  17.197  0.00  0.00    +0.000 C 
ATOM     15  C   UNL     1      -5.072  27.686  19.679  0.00  0.00    +0.000 C 
ENDROOT
BRANCH   4  16
ATOM     16  O   UNL     1       0.912  26.327  14.855  0.00  0.00    +0.000 OA
ATOM     17  H   UNL     1       0.984  25.495  14.356  0.00  0.00    +0.000 HD
ENDBRANCH   4  16
BRANCH  13  18
ATOM     18  O   UNL     1      -5.472  30.259  18.477  0.00  0.00    +0.000 OA
ATOM     19  H   UNL     1      -5.548  30.189  19.452  0.00  0.00    +0.000 HD
ENDBRANCH  13  18
BRANCH   3  20
ATOM     20  C   UNL     1      -0.285  29.124  14.427  0.00  0.00    +0.000 C 
ATOM     21  C   UNL     1       0.226  30.309  13.602  0.00  0.00    +0.000 C 
BRANCH  21  25
ATOM     22  C   UNL     1      -0.289  32.013  10.480  0.00  0.00    +0.000 C 
ATOM     23  C   UNL     1      -0.227  32.324  12.000  0.00  0.00    +0.000 C 
ATOM     24  C   UNL     1       0.882  32.037   9.541  0.00  0.00    +0.000 C 
ATOM     25  C   UNL     1       0.712  31.421  12.836  0.00  0.00    +0.000 C 
ATOM     26  C   UNL     1       0.468  32.095   8.075  0.00  0.00    +0.000 C 
ATOM     27  C   UNL     1      -1.449  32.047   9.649  0.00  0.00    +0.000 C 
ATOM     28  C   UNL     1      -0.983  32.103   8.220  0.00  0.00    +0.000 C 
ATOM     29  C   UNL     1       2.165  31.963  10.112  0.00  0.00    +0.000 C 
ATOM     30  C   UNL     1       2.161  31.593  12.730  0.00  0.00    +0.000 C 
ATOM     31  C   UNL     1      -1.687  32.188  12.576  0.00  0.00    +0.000 C 
ATOM     32  C   UNL     1       0.180  33.827  12.176  0.00  0.00    +0.000 C 
ATOM     33  C   UNL     1       2.623  31.780  11.534  0.00  0.00    +0.000 C 
ATOM     34  C   UNL     1       1.037  30.939   7.264  0.00  0.00    +0.000 C 
ATOM     35  C   UNL     1       3.139  31.135  13.779  0.00  0.00    +0.000 C 
BRANCH  26  36
ATOM     36  O   UNL     1       0.925  33.284   7.485  0.00  0.00    +0.000 OA
ATOM     37  H   UNL     1       1.035  33.849   8.271  0.00  0.00    +0.000 HD
ENDBRANCH  26  36
ENDBRANCH  21  25
ENDBRANCH   3  20
TORSDOF 5
ENDMDL
MODEL 6
REMARK VINA RESULT:      -5.8     32.212     35.094
REMARK  Name = 342374_SipholenolA.pdbqt.pdb
REMARK  5 active torsions:
REMARK  status: ('A' for Active; 'I' for Inactive)
REMARK    1  A    between atoms: C_3  and  C_20
REMARK    2  A    between atoms: C_4  and  O_16
REMARK    3  A    between atoms: C_13  and  O_18
REMARK    4  A    between atoms: C_21  and  C_25
REMARK    5  A    between atoms: C_26  and  O_36
REMARK                            x       y       z     vdW  Elec       q    Type
REMARK                         _______ _______ _______ _____ _____    ______ ____
ROOT
ATOM      1  O   UNL     1      30.263  15.237  15.676  0.00  0.00    +0.000 OA
ATOM      2  C   UNL     1      30.321  14.977  18.274  0.00  0.00    +0.000 C 
ATOM      3  C   UNL     1      29.918  15.646  19.591  0.00  0.00    +0.000 C 
ATOM      4  C   UNL     1      30.122  17.140  19.773  0.00  0.00    +0.000 C 
ATOM      5  C   UNL     1      30.123  15.822  16.940  0.00  0.00    +0.000 C 
ATOM      6  C   UNL     1      29.460  13.813  18.009  0.00  0.00    +0.000 C 
ATOM      7  C   UNL     1      30.249  17.758  18.467  0.00  0.00    +0.000 C 
ATOM      8  C   UNL     1      30.247  17.218  17.077  0.00  0.00    +0.000 C 
ATOM      9  C   UNL     1      31.811  14.545  18.346  0.00  0.00    +0.000 C 
ATOM     10  C   UNL     1      28.722  13.124  16.888  0.00  0.00    +0.000 C 
ATOM     11  C   UNL     1      29.067  14.769  14.971  0.00  0.00    +0.000 C 
ATOM     12  C   UNL     1      28.969  17.760  20.578  0.00  0.00    +0.000 C 
ATOM     13  C   UNL     1      28.545  13.406  15.517  0.00  0.00    +0.000 C 
ATOM     14  C   UNL     1      27.906  15.804  15.043  0.00  0.00    +0.000 C 
ATOM     15  C   UNL     1      29.471  14.544  13.484  0.00  0.00    +0.000 C 
ENDROOT
BRANCH   4  16
ATOM     16  O   UNL     1      31.284  17.375  20.528  0.00  0.00    +0.000 OA
ATOM     17  H   UNL     1      31.867  16.665  20.207  0.00  0.00    +0.000 HD
ENDBRANCH   4  16
BRANCH  13  18
ATOM     18  O   UNL     1      27.929  12.457  14.707  0.00  0.00    +0.000 OA
ATOM     19  H   UNL     1      26.967  12.629  14.624  0.00  0.00    +0.000 HD
ENDBRANCH  13  18
BRANCH   3  20
ATOM     20  C   UNL     1      29.574  14.831  20.728  0.00  0.00    +0.000 C 
ATOM     21  C   UNL     1      29.222  13.957  21.935  0.00  0.00    +0.000 C 
BRANCH  21  25
ATOM     22  C   UNL     1      26.462  12.240  23.468  0.00  0.00    +0.000 C 
ATOM     23  C   UNL     1      27.904  11.951  22.970  0.00  0.00    +0.000 C 
ATOM     24  C   UNL     1      26.095  12.686  24.854  0.00  0.00    +0.000 C 
ATOM     25  C   UNL     1      28.899  13.132  23.064  0.00  0.00    +0.000 C 
ATOM     26  C   UNL     1      24.616  12.498  25.168  0.00  0.00    +0.000 C 
ATOM     27  C   UNL     1      25.247  11.775  22.881  0.00  0.00    +0.000 C 
ATOM     28  C   UNL     1      24.158  11.927  23.907  0.00  0.00    +0.000 C 
ATOM     29  C   UNL     1      27.120  13.239  25.642  0.00  0.00    +0.000 C 
ATOM     30  C   UNL     1      29.420  13.535  24.371  0.00  0.00    +0.000 C 
ATOM     31  C   UNL     1      27.808  11.502  21.463  0.00  0.00    +0.000 C 
ATOM     32  C   UNL     1      28.458  10.719  23.764  0.00  0.00    +0.000 C 
ATOM     33  C   UNL     1      28.559  13.561  25.340  0.00  0.00    +0.000 C 
ATOM     34  C   UNL     1      23.939  13.797  25.582  0.00  0.00    +0.000 C 
ATOM     35  C   UNL     1      30.692  14.317  24.564  0.00  0.00    +0.000 C 
BRANCH  26  36
ATOM     36  O   UNL     1      24.453  11.587  26.224  0.00  0.00    +0.000 OA
ATOM     37  H   UNL     1      25.090  10.896  25.972  0.00  0.00    +0.000 HD
ENDBRANCH  26  36
ENDBRANCH  21  25
ENDBRANCH   3  20
TORSDOF 5
ENDMDL
MODEL 7
REMARK VINA RESULT:      -5.3      2.956      9.160
REMARK  Name = 342374_SipholenolA.pdbqt.pdb
REMARK  5 active torsions:
REMARK  status: ('A' for Active; 'I' for Inactive)
REMARK    1  A    between atoms: C_3  and  C_20
REMARK    2  A    between atoms: C_4  and  O_16
REMARK    3  A    between atoms: C_13  and  O_18
REMARK    4  A    between atoms: C_21  and  C_25
REMARK    5  A    between atoms: C_26  and  O_36
REMARK                            x       y       z     vdW  Elec       q    Type
REMARK                         _______ _______ _______ _____ _____    ______ ____
ROOT
ATOM      1  O   UNL     1      -1.276  22.918   6.263  0.00  0.00    +0.000 OA
ATOM      2  C   UNL     1      -0.602  24.975   7.725  0.00  0.00    +0.000 C 
ATOM      3  C   UNL     1      -0.240  26.462   7.672  0.00  0.00    +0.000 C 
ATOM      4  C   UNL     1       0.689  26.976   6.585  0.00  0.00    +0.000 C 
ATOM      5  C   UNL     1      -0.750  24.214   6.334  0.00  0.00    +0.000 C 
ATOM      6  C   UNL     1      -1.946  24.797   8.296  0.00  0.00    +0.000 C 
ATOM      7  C   UNL     1       0.711  26.019   5.497  0.00  0.00    +0.000 C 
ATOM      8  C   UNL     1       0.054  24.697   5.284  0.00  0.00    +0.000 C 
ATOM      9  C   UNL     1       0.454  24.215   8.573  0.00  0.00    +0.000 C 
ATOM     10  C   UNL     1      -3.210  23.994   8.110  0.00  0.00    +0.000 C 
ATOM     11  C   UNL     1      -2.696  22.741   5.950  0.00  0.00    +0.000 C 
ATOM     12  C   UNL     1       0.255  28.367   6.101  0.00  0.00    +0.000 C 
ATOM     13  C   UNL     1      -3.618  23.020   7.174  0.00  0.00    +0.000 C 
ATOM     14  C   UNL     1      -3.151  23.653   4.772  0.00  0.00    +0.000 C 
ATOM     15  C   UNL     1      -2.894  21.247   5.556  0.00  0.00    +0.000 C 
ENDROOT
BRANCH   4  16
ATOM     16  O   UNL     1       1.985  27.140   7.104  0.00  0.00    +0.000 OA
ATOM     17  H   UNL     1       2.531  26.887   6.338  0.00  0.00    +0.000 HD
ENDBRANCH   4  16
BRANCH  13  18
ATOM     18  O   UNL     1      -4.814  22.341   7.386  0.00  0.00    +0.000 OA
ATOM     19  H   UNL     1      -4.946  21.633   6.720  0.00  0.00    +0.000 HD
ENDBRANCH  13  18
BRANCH   3  20
ATOM     20  C   UNL     1      -0.585  27.320   8.777  0.00  0.00    +0.000 C 
ATOM     21  C   UNL     1      -0.965  28.237   9.943  0.00  0.00    +0.000 C 
BRANCH  21  25
ATOM     22  C   UNL     1      -0.164  28.922  13.379  0.00  0.00    +0.000 C 
ATOM     23  C   UNL     1      -0.284  29.667  12.021  0.00  0.00    +0.000 C 
ATOM     24  C   UNL     1      -1.279  28.733  14.366  0.00  0.00    +0.000 C 
ATOM     25  C   UNL     1      -1.328  29.100  11.030  0.00  0.00    +0.000 C 
ATOM     26  C   UNL     1      -0.785  28.337  15.753  0.00  0.00    +0.000 C 
ATOM     27  C   UNL     1       1.038  28.649  14.099  0.00  0.00    +0.000 C 
ATOM     28  C   UNL     1       0.653  28.310  15.513  0.00  0.00    +0.000 C 
ATOM     29  C   UNL     1      -2.592  28.899  13.891  0.00  0.00    +0.000 C 
ATOM     30  C   UNL     1      -2.754  29.311  11.284  0.00  0.00    +0.000 C 
ATOM     31  C   UNL     1       1.130  29.628  11.328  0.00  0.00    +0.000 C 
ATOM     32  C   UNL     1      -0.590  31.175  12.317  0.00  0.00    +0.000 C 
ATOM     33  C   UNL     1      -3.137  29.165  12.513  0.00  0.00    +0.000 C 
ATOM     34  C   UNL     1      -1.392  27.027  16.235  0.00  0.00    +0.000 C 
ATOM     35  C   UNL     1      -3.816  29.233  10.221  0.00  0.00    +0.000 C 
BRANCH  26  36
ATOM     36  O   UNL     1      -1.123  29.325  16.692  0.00  0.00    +0.000 OA
ATOM     37  H   UNL     1      -1.911  28.927  17.102  0.00  0.00    +0.000 HD
ENDBRANCH  26  36
ENDBRANCH  21  25
ENDBRANCH   3  20
TORSDOF 5
ENDMDL
MODEL 8
REMARK VINA RESULT:      -5.3     18.102     20.715
REMARK  Name = 342374_SipholenolA.pdbqt.pdb
REMARK  5 active torsions:
REMARK  status: ('A' for Active; 'I' for Inactive)
REMARK    1  A    between atoms: C_3  and  C_20
REMARK    2  A    between atoms: C_4  and  O_16
REMARK    3  A    between atoms: C_13  and  O_18
REMARK    4  A    between atoms: C_21  and  C_25
REMARK    5  A    between atoms: C_26  and  O_36
REMARK                            x       y       z     vdW  Elec       q    Type
REMARK                         _______ _______ _______ _____ _____    ______ ____
ROOT
ATOM      1  O   UNL     1       5.277  36.329  31.385  0.00  0.00    +0.000 OA
ATOM      2  C   UNL     1       6.019  33.957  30.581  0.00  0.00    +0.000 C 
ATOM      3  C   UNL     1       6.829  33.211  29.517  0.00  0.00    +0.000 C 
ATOM      4  C   UNL     1       6.735  33.635  28.062  0.00  0.00    +0.000 C 
ATOM      5  C   UNL     1       5.818  35.523  30.376  0.00  0.00    +0.000 C 
ATOM      6  C   UNL     1       6.721  33.923  31.874  0.00  0.00    +0.000 C 
ATOM      7  C   UNL     1       6.229  34.992  28.000  0.00  0.00    +0.000 C 
ATOM      8  C   UNL     1       5.784  35.965  29.039  0.00  0.00    +0.000 C 
ATOM      9  C   UNL     1       4.612  33.311  30.710  0.00  0.00    +0.000 C 
ATOM     10  C   UNL     1       7.055  34.797  33.058  0.00  0.00    +0.000 C 
ATOM     11  C   UNL     1       6.182  37.061  32.275  0.00  0.00    +0.000 C 
ATOM     12  C   UNL     1       8.098  33.512  27.363  0.00  0.00    +0.000 C 
ATOM     13  C   UNL     1       6.807  36.150  33.373  0.00  0.00    +0.000 C 
ATOM     14  C   UNL     1       7.338  37.751  31.492  0.00  0.00    +0.000 C 
ATOM     15  C   UNL     1       5.331  38.142  33.004  0.00  0.00    +0.000 C 
ENDROOT
BRANCH   4  16
ATOM     16  O   UNL     1       5.872  32.770  27.367  0.00  0.00    +0.000 OA
ATOM     17  H   UNL     1       6.184  31.900  27.676  0.00  0.00    +0.000 HD
ENDBRANCH   4  16
BRANCH  13  18
ATOM     18  O   UNL     1       7.114  36.612  34.649  0.00  0.00    +0.000 OA
ATOM     19  H   UNL     1       6.312  36.925  35.119  0.00  0.00    +0.000 HD
ENDBRANCH  13  18
BRANCH   3  20
ATOM     20  C   UNL     1       7.484  31.974  29.858  0.00  0.00    +0.000 C 
ATOM     21  C   UNL     1       8.193  30.662  30.208  0.00  0.00    +0.000 C 
BRANCH  21  25
ATOM     22  C   UNL     1       9.264  27.571  28.721  0.00  0.00    +0.000 C 
ATOM     23  C   UNL     1       9.846  28.747  29.551  0.00  0.00    +0.000 C 
ATOM     24  C   UNL     1       8.660  26.321  29.292  0.00  0.00    +0.000 C 
ATOM     25  C   UNL     1       8.862  29.434  30.528  0.00  0.00    +0.000 C 
ATOM     26  C   UNL     1       8.553  25.192  28.273  0.00  0.00    +0.000 C 
ATOM     27  C   UNL     1       9.541  27.274  27.353  0.00  0.00    +0.000 C 
ATOM     28  C   UNL     1       9.120  25.852  27.102  0.00  0.00    +0.000 C 
ATOM     29  C   UNL     1       8.248  26.363  30.636  0.00  0.00    +0.000 C 
ATOM     30  C   UNL     1       8.468  28.746  31.758  0.00  0.00    +0.000 C 
ATOM     31  C   UNL     1      10.376  29.831  28.538  0.00  0.00    +0.000 C 
ATOM     32  C   UNL     1      11.098  28.222  30.333  0.00  0.00    +0.000 C 
ATOM     33  C   UNL     1       8.216  27.480  31.643  0.00  0.00    +0.000 C 
ATOM     34  C   UNL     1       7.126  24.688  28.111  0.00  0.00    +0.000 C 
ATOM     35  C   UNL     1       7.919  29.446  32.973  0.00  0.00    +0.000 C 
BRANCH  26  36
ATOM     36  O   UNL     1       9.340  24.100  28.669  0.00  0.00    +0.000 OA
ATOM     37  H   UNL     1       9.065  23.429  28.020  0.00  0.00    +0.000 HD
ENDBRANCH  26  36
ENDBRANCH  21  25
ENDBRANCH   3  20
TORSDOF 5
ENDMDL
MODEL 9
REMARK VINA RESULT:      -5.2     27.668     31.169
REMARK  Name = 342374_SipholenolA.pdbqt.pdb
REMARK  5 active torsions:
REMARK  status: ('A' for Active; 'I' for Inactive)
REMARK    1  A    between atoms: C_3  and  C_20
REMARK    2  A    between atoms: C_4  and  O_16
REMARK    3  A    between atoms: C_13  and  O_18
REMARK    4  A    between atoms: C_21  and  C_25
REMARK    5  A    between atoms: C_26  and  O_36
REMARK                            x       y       z     vdW  Elec       q    Type
REMARK                         _______ _______ _______ _____ _____    ______ ____
ROOT
ATOM      1  O   UNL     1       8.891   4.291  31.157  0.00  0.00    +0.000 OA
ATOM      2  C   UNL     1       8.181   2.309  29.612  0.00  0.00    +0.000 C 
ATOM      3  C   UNL     1       7.165   1.176  29.444  0.00  0.00    +0.000 C 
ATOM      4  C   UNL     1       6.768   0.334  30.645  0.00  0.00    +0.000 C 
ATOM      5  C   UNL     1       8.152   3.115  30.984  0.00  0.00    +0.000 C 
ATOM      6  C   UNL     1       7.914   3.382  28.641  0.00  0.00    +0.000 C 
ATOM      7  C   UNL     1       7.092   1.062  31.856  0.00  0.00    +0.000 C 
ATOM      8  C   UNL     1       7.733   2.384  32.113  0.00  0.00    +0.000 C 
ATOM      9  C   UNL     1       9.618   1.749  29.420  0.00  0.00    +0.000 C 
ATOM     10  C   UNL     1       7.870   4.886  28.528  0.00  0.00    +0.000 C 
ATOM     11  C   UNL     1       8.232   5.583  30.954  0.00  0.00    +0.000 C 
ATOM     12  C   UNL     1       5.277  -0.031  30.592  0.00  0.00    +0.000 C 
ATOM     13  C   UNL     1       8.066   5.940  29.446  0.00  0.00    +0.000 C 
ATOM     14  C   UNL     1       6.829   5.635  31.628  0.00  0.00    +0.000 C 
ATOM     15  C   UNL     1       9.151   6.670  31.584  0.00  0.00    +0.000 C 
ENDROOT
BRANCH   4  16
ATOM     16  O   UNL     1       7.461  -0.889  30.621  0.00  0.00    +0.000 OA
ATOM     17  H   UNL     1       6.846  -1.466  31.109  0.00  0.00    +0.000 HD
ENDBRANCH   4  16
BRANCH  13  18
ATOM     18  O   UNL     1       8.118   7.246  28.972  0.00  0.00    +0.000 OA
ATOM     19  H   UNL     1       7.221   7.591  28.775  0.00  0.00    +0.000 HD
ENDBRANCH  13  18
BRANCH   3  20
ATOM     20  C   UNL     1       6.772   0.760  28.122  0.00  0.00    +0.000 C 
ATOM     21  C   UNL     1       6.350   0.334  26.713  0.00  0.00    +0.000 C 
BRANCH  21  25
ATOM     22  C   UNL     1       4.843   1.647  23.725  0.00  0.00    +0.000 C 
ATOM     23  C   UNL     1       6.117   0.875  24.167  0.00  0.00    +0.000 C 
ATOM     24  C   UNL     1       3.547   1.015  23.309  0.00  0.00    +0.000 C 
ATOM     25  C   UNL     1       5.952  -0.056  25.391  0.00  0.00    +0.000 C 
ATOM     26  C   UNL     1       2.633   1.973  22.554  0.00  0.00    +0.000 C 
ATOM     27  C   UNL     1       4.780   2.995  23.262  0.00  0.00    +0.000 C 
ATOM     28  C   UNL     1       3.462   3.173  22.560  0.00  0.00    +0.000 C 
ATOM     29  C   UNL     1       3.333  -0.322  23.690  0.00  0.00    +0.000 C 
ATOM     30  C   UNL     1       5.225  -1.318  25.245  0.00  0.00    +0.000 C 
ATOM     31  C   UNL     1       7.229   1.940  24.501  0.00  0.00    +0.000 C 
ATOM     32  C   UNL     1       6.643   0.057  22.938  0.00  0.00    +0.000 C 
ATOM     33  C   UNL     1       4.141  -1.269  24.536  0.00  0.00    +0.000 C 
ATOM     34  C   UNL     1       1.269   2.118  23.215  0.00  0.00    +0.000 C 
ATOM     35  C   UNL     1       5.381  -2.489  26.178  0.00  0.00    +0.000 C 
BRANCH  26  36
ATOM     36  O   UNL     1       2.417   1.513  21.246  0.00  0.00    +0.000 OA
ATOM     37  H   UNL     1       2.384   2.355  20.757  0.00  0.00    +0.000 HD
ENDBRANCH  26  36
ENDBRANCH  21  25
ENDBRANCH   3  20
TORSDOF 5
ENDMDL
