MODEL 1
REMARK VINA RESULT:      -4.0      0.000      0.000
REMARK  Name = 43806_Diaminocyclohexane.pdbqt.pdb
REMARK  2 active torsions:
REMARK  status: ('A' for Active; 'I' for Inactive)
REMARK    1  A    between atoms: C_1  and  N_7
REMARK    2  A    between atoms: C_2  and  N_10
REMARK                            x       y       z     vdW  Elec       q    Type
REMARK                         _______ _______ _______ _____ _____    ______ ____
ROOT
ATOM      1  C   UNL     1      13.559  15.590  29.262  0.00  0.00    +0.000 A 
ATOM      2  C   UNL     1      12.349  16.417  29.066  0.00  0.00    +0.000 A 
ATOM      3  C   UNL     1      14.629  16.231  29.967  0.00  0.00    +0.000 A 
ATOM      4  C   UNL     1      12.409  17.730  29.638  0.00  0.00    +0.000 A 
ATOM      5  C   UNL     1      14.768  17.627  30.594  0.00  0.00    +0.000 A 
ATOM      6  C   UNL     1      13.509  18.476  30.410  0.00  0.00    +0.000 A 
ENDROOT
BRANCH   1   7
ATOM      7  N   UNL     1      13.633  14.236  28.857  0.00  0.00    +0.000 N 
ATOM      8  H   UNL     1      14.118  14.103  27.975  0.00  0.00    +0.000 HD
ATOM      9  H   UNL     1      12.750  13.737  28.892  0.00  0.00    +0.000 HD
ENDBRANCH   1   7
BRANCH   2  10
ATOM     10  N   UNL     1      11.240  15.982  28.302  0.00  0.00    +0.000 N 
ATOM     11  H   UNL     1      10.590  15.403  28.825  0.00  0.00    +0.000 HD
ATOM     12  H   UNL     1      11.480  15.577  27.404  0.00  0.00    +0.000 HD
ENDBRANCH   2  10
TORSDOF 2
ENDMDL
MODEL 2
REMARK VINA RESULT:      -4.0      0.001      2.286
REMARK  Name = 43806_Diaminocyclohexane.pdbqt.pdb
REMARK  2 active torsions:
REMARK  status: ('A' for Active; 'I' for Inactive)
REMARK    1  A    between atoms: C_1  and  N_7
REMARK    2  A    between atoms: C_2  and  N_10
REMARK                            x       y       z     vdW  Elec       q    Type
REMARK                         _______ _______ _______ _____ _____    ______ ____
ROOT
ATOM      1  C   UNL     1      12.349  16.418  29.066  0.00  0.00    +0.000 A 
ATOM      2  C   UNL     1      13.559  15.589  29.262  0.00  0.00    +0.000 A 
ATOM      3  C   UNL     1      12.409  17.730  29.638  0.00  0.00    +0.000 A 
ATOM      4  C   UNL     1      14.629  16.231  29.967  0.00  0.00    +0.000 A 
ATOM      5  C   UNL     1      13.510  18.476  30.410  0.00  0.00    +0.000 A 
ATOM      6  C   UNL     1      14.769  17.627  30.594  0.00  0.00    +0.000 A 
ENDROOT
BRANCH   1   7
ATOM      7  N   UNL     1      11.240  15.983  28.303  0.00  0.00    +0.000 N 
ATOM      8  H   UNL     1      11.256  16.309  27.342  0.00  0.00    +0.000 HD
ATOM      9  H   UNL     1      10.339  16.131  28.747  0.00  0.00    +0.000 HD
ENDBRANCH   1   7
BRANCH   2  10
ATOM     10  N   UNL     1      13.632  14.236  28.857  0.00  0.00    +0.000 N 
ATOM     11  H   UNL     1      14.085  14.106  27.958  0.00  0.00    +0.000 HD
ATOM     12  H   UNL     1      12.757  13.727  28.926  0.00  0.00    +0.000 HD
ENDBRANCH   2  10
TORSDOF 2
ENDMDL
MODEL 3
REMARK VINA RESULT:      -3.4      2.619      4.142
REMARK  Name = 43806_Diaminocyclohexane.pdbqt.pdb
REMARK  2 active torsions:
REMARK  status: ('A' for Active; 'I' for Inactive)
REMARK    1  A    between atoms: C_1  and  N_7
REMARK    2  A    between atoms: C_2  and  N_10
REMARK                            x       y       z     vdW  Elec       q    Type
REMARK                         _______ _______ _______ _____ _____    ______ ____
ROOT
ATOM      1  C   UNL     1      10.988  17.711  29.418  0.00  0.00    +0.000 A 
ATOM      2  C   UNL     1      11.266  16.270  29.234  0.00  0.00    +0.000 A 
ATOM      3  C   UNL     1       9.814  18.014  30.182  0.00  0.00    +0.000 A 
ATOM      4  C   UNL     1      10.339  15.384  29.875  0.00  0.00    +0.000 A 
ATOM      5  C   UNL     1       8.775  17.124  30.885  0.00  0.00    +0.000 A 
ATOM      6  C   UNL     1       9.075  15.633  30.712  0.00  0.00    +0.000 A 
ENDROOT
BRANCH   1   7
ATOM      7  N   UNL     1      11.856  18.724  28.945  0.00  0.00    +0.000 N 
ATOM      8  H   UNL     1      11.779  18.888  27.946  0.00  0.00    +0.000 HD
ATOM      9  H   UNL     1      12.820  18.627  29.248  0.00  0.00    +0.000 HD
ENDBRANCH   1   7
BRANCH   2  10
ATOM     10  N   UNL     1      12.321  15.792  28.421  0.00  0.00    +0.000 N 
ATOM     11  H   UNL     1      12.357  16.230  27.506  0.00  0.00    +0.000 HD
ATOM     12  H   UNL     1      12.387  14.781  28.368  0.00  0.00    +0.000 HD
ENDBRANCH   2  10
TORSDOF 2
ENDMDL
MODEL 4
REMARK VINA RESULT:      -3.2     17.564     18.500
REMARK  Name = 43806_Diaminocyclohexane.pdbqt.pdb
REMARK  2 active torsions:
REMARK  status: ('A' for Active; 'I' for Inactive)
REMARK    1  A    between atoms: C_1  and  N_7
REMARK    2  A    between atoms: C_2  and  N_10
REMARK                            x       y       z     vdW  Elec       q    Type
REMARK                         _______ _______ _______ _____ _____    ______ ____
ROOT
ATOM      1  C   UNL     1      12.939  32.350  22.155  0.00  0.00    +0.000 A 
ATOM      2  C   UNL     1      12.218  33.573  21.740  0.00  0.00    +0.000 A 
ATOM      3  C   UNL     1      13.896  31.856  21.211  0.00  0.00    +0.000 A 
ATOM      4  C   UNL     1      12.605  34.107  20.468  0.00  0.00    +0.000 A 
ATOM      5  C   UNL     1      14.353  32.365  19.834  0.00  0.00    +0.000 A 
ATOM      6  C   UNL     1      13.623  33.642  19.414  0.00  0.00    +0.000 A 
ENDROOT
BRANCH   1   7
ATOM      7  N   UNL     1      12.759  31.750  23.424  0.00  0.00    +0.000 N 
ATOM      8  H   UNL     1      12.047  31.027  23.433  0.00  0.00    +0.000 HD
ATOM      9  H   UNL     1      12.651  32.409  24.190  0.00  0.00    +0.000 HD
ENDBRANCH   1   7
BRANCH   2  10
ATOM     10  N   UNL     1      11.166  34.137  22.501  0.00  0.00    +0.000 N 
ATOM     11  H   UNL     1      11.390  34.244  23.485  0.00  0.00    +0.000 HD
ATOM     12  H   UNL     1      10.262  33.700  22.357  0.00  0.00    +0.000 HD
ENDBRANCH   2  10
TORSDOF 2
ENDMDL
MODEL 5
REMARK VINA RESULT:      -3.1     17.204     18.195
REMARK  Name = 43806_Diaminocyclohexane.pdbqt.pdb
REMARK  2 active torsions:
REMARK  status: ('A' for Active; 'I' for Inactive)
REMARK    1  A    between atoms: C_1  and  N_7
REMARK    2  A    between atoms: C_2  and  N_10
REMARK                            x       y       z     vdW  Elec       q    Type
REMARK                         _______ _______ _______ _____ _____    ______ ____
ROOT
ATOM      1  C   UNL     1       5.737   0.594  22.156  0.00  0.00    +0.000 A 
ATOM      2  C   UNL     1       4.982   1.866  22.184  0.00  0.00    +0.000 A 
ATOM      3  C   UNL     1       6.779   0.481  23.133  0.00  0.00    +0.000 A 
ATOM      4  C   UNL     1       5.381   2.788  23.207  0.00  0.00    +0.000 A 
ATOM      5  C   UNL     1       7.266   1.424  24.244  0.00  0.00    +0.000 A 
ATOM      6  C   UNL     1       6.472   2.731  24.287  0.00  0.00    +0.000 A 
ENDROOT
BRANCH   1   7
ATOM      7  N   UNL     1       5.409  -0.471  21.283  0.00  0.00    +0.000 N 
ATOM      8  H   UNL     1       5.388  -0.200  20.305  0.00  0.00    +0.000 HD
ATOM      9  H   UNL     1       4.587  -1.000  21.556  0.00  0.00    +0.000 HD
ENDBRANCH   1   7
BRANCH   2  10
ATOM     10  N   UNL     1       3.993   2.189  21.226  0.00  0.00    +0.000 N 
ATOM     11  H   UNL     1       3.335   1.436  21.052  0.00  0.00    +0.000 HD
ATOM     12  H   UNL     1       4.353   2.592  20.368  0.00  0.00    +0.000 HD
ENDBRANCH   2  10
TORSDOF 2
ENDMDL
MODEL 6
REMARK VINA RESULT:      -3.0     15.254     16.079
REMARK  Name = 43806_Diaminocyclohexane.pdbqt.pdb
REMARK  2 active torsions:
REMARK  status: ('A' for Active; 'I' for Inactive)
REMARK    1  A    between atoms: C_1  and  N_7
REMARK    2  A    between atoms: C_2  and  N_10
REMARK                            x       y       z     vdW  Elec       q    Type
REMARK                         _______ _______ _______ _____ _____    ______ ____
ROOT
ATOM      1  C   UNL     1       1.018   9.879  22.680  0.00  0.00    +0.000 A 
ATOM      2  C   UNL     1       0.723   9.872  21.231  0.00  0.00    +0.000 A 
ATOM      3  C   UNL     1       0.539  11.024  23.395  0.00  0.00    +0.000 A 
ATOM      4  C   UNL     1      -0.028  10.997  20.757  0.00  0.00    +0.000 A 
ATOM      5  C   UNL     1      -0.258  12.263  22.956  0.00  0.00    +0.000 A 
ATOM      6  C   UNL     1      -0.581  12.246  21.461  0.00  0.00    +0.000 A 
ENDROOT
BRANCH   1   7
ATOM      7  N   UNL     1       1.657   8.799  23.335  0.00  0.00    +0.000 N 
ATOM      8  H   UNL     1       1.917   9.004  24.295  0.00  0.00    +0.000 HD
ATOM      9  H   UNL     1       2.417   8.379  22.810  0.00  0.00    +0.000 HD
ENDBRANCH   1   7
BRANCH   2  10
ATOM     10  N   UNL     1       1.212   8.874  20.355  0.00  0.00    +0.000 N 
ATOM     11  H   UNL     1       1.223   7.946  20.765  0.00  0.00    +0.000 HD
ATOM     12  H   UNL     1       2.088   9.105  19.900  0.00  0.00    +0.000 HD
ENDBRANCH   2  10
TORSDOF 2
ENDMDL
MODEL 7
REMARK VINA RESULT:      -3.0     15.230     16.113
REMARK  Name = 43806_Diaminocyclohexane.pdbqt.pdb
REMARK  2 active torsions:
REMARK  status: ('A' for Active; 'I' for Inactive)
REMARK    1  A    between atoms: C_1  and  N_7
REMARK    2  A    between atoms: C_2  and  N_10
REMARK                            x       y       z     vdW  Elec       q    Type
REMARK                         _______ _______ _______ _____ _____    ______ ____
ROOT
ATOM      1  C   UNL     1       0.737   9.861  21.241  0.00  0.00    +0.000 A 
ATOM      2  C   UNL     1       1.049   9.862  22.687  0.00  0.00    +0.000 A 
ATOM      3  C   UNL     1      -0.026  10.982  20.780  0.00  0.00    +0.000 A 
ATOM      4  C   UNL     1       0.571  11.003  23.412  0.00  0.00    +0.000 A 
ATOM      5  C   UNL     1      -0.578  12.226  21.495  0.00  0.00    +0.000 A 
ATOM      6  C   UNL     1      -0.237  12.239  22.987  0.00  0.00    +0.000 A 
ENDROOT
BRANCH   1   7
ATOM      7  N   UNL     1       1.221   8.868  20.356  0.00  0.00    +0.000 N 
ATOM      8  H   UNL     1       2.214   8.683  20.459  0.00  0.00    +0.000 HD
ATOM      9  H   UNL     1       0.950   9.000  19.387  0.00  0.00    +0.000 HD
ENDBRANCH   1   7
BRANCH   2  10
ATOM     10  N   UNL     1       1.701   8.784  23.330  0.00  0.00    +0.000 N 
ATOM     11  H   UNL     1       1.067   8.053  23.639  0.00  0.00    +0.000 HD
ATOM     12  H   UNL     1       2.355   9.059  24.055  0.00  0.00    +0.000 HD
ENDBRANCH   2  10
TORSDOF 2
ENDMDL
MODEL 8
REMARK VINA RESULT:      -3.0     20.634     20.901
REMARK  Name = 43806_Diaminocyclohexane.pdbqt.pdb
REMARK  2 active torsions:
REMARK  status: ('A' for Active; 'I' for Inactive)
REMARK    1  A    between atoms: C_1  and  N_7
REMARK    2  A    between atoms: C_2  and  N_10
REMARK                            x       y       z     vdW  Elec       q    Type
REMARK                         _______ _______ _______ _____ _____    ______ ____
ROOT
ATOM      1  C   UNL     1      29.026  15.528  16.301  0.00  0.00    +0.000 A 
ATOM      2  C   UNL     1      28.270  15.359  15.040  0.00  0.00    +0.000 A 
ATOM      3  C   UNL     1      29.301  14.317  17.014  0.00  0.00    +0.000 A 
ATOM      4  C   UNL     1      27.952  14.004  14.698  0.00  0.00    +0.000 A 
ATOM      5  C   UNL     1      28.984  12.842  16.716  0.00  0.00    +0.000 A 
ATOM      6  C   UNL     1      28.221  12.665  15.402  0.00  0.00    +0.000 A 
ENDROOT
BRANCH   1   7
ATOM      7  N   UNL     1      29.514  16.783  16.737  0.00  0.00    +0.000 N 
ATOM      8  H   UNL     1      30.527  16.834  16.769  0.00  0.00    +0.000 HD
ATOM      9  H   UNL     1      29.082  17.130  17.588  0.00  0.00    +0.000 HD
ENDBRANCH   1   7
BRANCH   2  10
ATOM     10  N   UNL     1      27.822  16.454  14.265  0.00  0.00    +0.000 N 
ATOM     11  H   UNL     1      26.899  16.786  14.527  0.00  0.00    +0.000 HD
ATOM     12  H   UNL     1      27.916  16.327  13.262  0.00  0.00    +0.000 HD
ENDBRANCH   2  10
TORSDOF 2
ENDMDL
MODEL 9
REMARK VINA RESULT:      -2.9     16.334     17.531
REMARK  Name = 43806_Diaminocyclohexane.pdbqt.pdb
REMARK  2 active torsions:
REMARK  status: ('A' for Active; 'I' for Inactive)
REMARK    1  A    between atoms: C_1  and  N_7
REMARK    2  A    between atoms: C_2  and  N_10
REMARK                            x       y       z     vdW  Elec       q    Type
REMARK                         _______ _______ _______ _____ _____    ______ ____
ROOT
ATOM      1  C   UNL     1      -1.249  17.647  21.112  0.00  0.00    +0.000 A 
ATOM      2  C   UNL     1      -1.112  18.964  21.772  0.00  0.00    +0.000 A 
ATOM      3  C   UNL     1      -2.541  17.374  20.558  0.00  0.00    +0.000 A 
ATOM      4  C   UNL     1      -2.283  19.789  21.734  0.00  0.00    +0.000 A 
ATOM      5  C   UNL     1      -3.836  18.200  20.488  0.00  0.00    +0.000 A 
ATOM      6  C   UNL     1      -3.689  19.570  21.153  0.00  0.00    +0.000 A 
ENDROOT
BRANCH   1   7
ATOM      7  N   UNL     1      -0.165  16.750  20.964  0.00  0.00    +0.000 N 
ATOM      8  H   UNL     1      -0.280  15.886  21.483  0.00  0.00    +0.000 HD
ATOM      9  H   UNL     1       0.750  17.167  21.106  0.00  0.00    +0.000 HD
ENDBRANCH   1   7
BRANCH   2  10
ATOM     10  N   UNL     1       0.059  19.355  22.463  0.00  0.00    +0.000 N 
ATOM     11  H   UNL     1       0.030  20.311  22.801  0.00  0.00    +0.000 HD
ATOM     12  H   UNL     1       0.925  19.143  21.979  0.00  0.00    +0.000 HD
ENDBRANCH   2  10
TORSDOF 2
ENDMDL
