MODEL 1
REMARK VINA RESULT:      -6.4      0.000      0.000
REMARK  Name = 44234954_SipholenolL.pdbqt.pdb
REMARK  5 active torsions:
REMARK  status: ('A' for Active; 'I' for Inactive)
REMARK    1  A    between atoms: C_3  and  C_20
REMARK    2  A    between atoms: C_4  and  O_16
REMARK    3  A    between atoms: C_13  and  O_18
REMARK    4  A    between atoms: C_21  and  C_25
REMARK    5  A    between atoms: C_26  and  O_36
REMARK                            x       y       z     vdW  Elec       q    Type
REMARK                         _______ _______ _______ _____ _____    ______ ____
ROOT
ATOM      1  O   UNL     1      24.836  11.431  27.064  0.00  0.00    +0.000 OA
ATOM      2  C   UNL     1      24.657  13.984  27.555  0.00  0.00    +0.000 C 
ATOM      3  C   UNL     1      23.811  15.034  28.279  0.00  0.00    +0.000 C 
ATOM      4  C   UNL     1      23.370  14.783  29.709  0.00  0.00    +0.000 C 
ATOM      5  C   UNL     1      24.274  12.462  27.823  0.00  0.00    +0.000 C 
ATOM      6  C   UNL     1      24.471  14.067  26.099  0.00  0.00    +0.000 C 
ATOM      7  C   UNL     1      23.340  13.350  29.939  0.00  0.00    +0.000 C 
ATOM      8  C   UNL     1      23.739  12.184  29.097  0.00  0.00    +0.000 C 
ATOM      9  C   UNL     1      26.154  14.181  27.911  0.00  0.00    +0.000 C 
ATOM     10  C   UNL     1      24.271  13.188  24.890  0.00  0.00    +0.000 C 
ATOM     11  C   UNL     1      24.082  10.862  25.934  0.00  0.00    +0.000 C 
ATOM     12  C   UNL     1      24.214  15.561  30.714  0.00  0.00    +0.000 C 
ATOM     13  C   UNL     1      24.113  11.798  24.680  0.00  0.00    +0.000 C 
ATOM     14  C   UNL     1      24.795   9.528  25.585  0.00  0.00    +0.000 C 
ATOM     15  C   UNL     1      22.594  10.603  26.327  0.00  0.00    +0.000 C 
ENDROOT
BRANCH   4  16
ATOM     16  O   UNL     1      22.057  15.281  29.873  0.00  0.00    +0.000 OA
ATOM     17  H   UNL     1      21.884  15.033  30.801  0.00  0.00    +0.000 HD
ENDBRANCH   4  16
BRANCH  13  18
ATOM     18  O   UNL     1      23.772  11.342  23.413  0.00  0.00    +0.000 OA
ATOM     19  H   UNL     1      23.179  10.570  23.443  0.00  0.00    +0.000 HD
ENDBRANCH  13  18
BRANCH   3  20
ATOM     20  C   UNL     1      23.482  16.280  27.643  0.00  0.00    +0.000 C 
ATOM     21  C   UNL     1      23.132  17.625  26.998  0.00  0.00    +0.000 C 
BRANCH  21  25
ATOM     22  C   UNL     1      22.466  20.094  27.351  0.00  0.00    +0.000 A 
ATOM     23  C   UNL     1      22.158  21.501  26.706  0.00  0.00    +0.000 A 
ATOM     24  C   UNL     1      22.394  19.862  28.918  0.00  0.00    +0.000 C 
ATOM     25  C   UNL     1      22.824  18.903  26.436  0.00  0.00    +0.000 A 
ATOM     26  C   UNL     1      21.806  22.823  27.425  0.00  0.00    +0.000 C 
ATOM     27  C   UNL     1      22.003  21.160  29.475  0.00  0.00    +0.000 C 
ATOM     28  C   UNL     1      21.729  22.494  28.835  0.00  0.00    +0.000 C 
ATOM     29  C   UNL     1      22.204  21.419  25.283  0.00  0.00    +0.000 A 
ATOM     30  C   UNL     1      22.855  19.006  24.951  0.00  0.00    +0.000 A 
ATOM     31  C   UNL     1      23.795  19.477  29.452  0.00  0.00    +0.000 C 
ATOM     32  C   UNL     1      21.304  18.819  29.247  0.00  0.00    +0.000 C 
ATOM     33  C   UNL     1      22.551  20.183  24.506  0.00  0.00    +0.000 A 
ATOM     34  C   UNL     1      22.822  23.913  27.112  0.00  0.00    +0.000 C 
ATOM     35  C   UNL     1      23.321  17.944  23.998  0.00  0.00    +0.000 C 
BRANCH  26  36
ATOM     36  O   UNL     1      20.557  23.283  26.978  0.00  0.00    +0.000 OA
ATOM     37  H   UNL     1      20.151  22.451  26.674  0.00  0.00    +0.000 HD
ENDBRANCH  26  36
ENDBRANCH  21  25
ENDBRANCH   3  20
TORSDOF 5
ENDMDL
MODEL 2
REMARK VINA RESULT:      -6.4      6.110      9.874
REMARK  Name = 44234954_SipholenolL.pdbqt.pdb
REMARK  5 active torsions:
REMARK  status: ('A' for Active; 'I' for Inactive)
REMARK    1  A    between atoms: C_3  and  C_20
REMARK    2  A    between atoms: C_4  and  O_16
REMARK    3  A    between atoms: C_13  and  O_18
REMARK    4  A    between atoms: C_21  and  C_25
REMARK    5  A    between atoms: C_26  and  O_36
REMARK                            x       y       z     vdW  Elec       q    Type
REMARK                         _______ _______ _______ _____ _____    ______ ____
ROOT
ATOM      1  O   UNL     1      25.820  13.400  26.725  0.00  0.00    +0.000 OA
ATOM      2  C   UNL     1      27.678  14.024  25.009  0.00  0.00    +0.000 C 
ATOM      3  C   UNL     1      28.367  15.210  24.328  0.00  0.00    +0.000 C 
ATOM      4  C   UNL     1      28.816  16.395  25.163  0.00  0.00    +0.000 C 
ATOM      5  C   UNL     1      26.655  14.378  26.176  0.00  0.00    +0.000 C 
ATOM      6  C   UNL     1      26.797  13.314  24.070  0.00  0.00    +0.000 C 
ATOM      7  C   UNL     1      28.002  16.448  26.363  0.00  0.00    +0.000 C 
ATOM      8  C   UNL     1      26.950  15.543  26.913  0.00  0.00    +0.000 C 
ATOM      9  C   UNL     1      28.746  13.051  25.573  0.00  0.00    +0.000 C 
ATOM     10  C   UNL     1      25.426  12.691  23.991  0.00  0.00    +0.000 C 
ATOM     11  C   UNL     1      24.425  13.291  26.266  0.00  0.00    +0.000 C 
ATOM     12  C   UNL     1      30.319  16.373  25.426  0.00  0.00    +0.000 C 
ATOM     13  C   UNL     1      24.323  12.590  24.870  0.00  0.00    +0.000 C 
ATOM     14  C   UNL     1      23.704  12.413  27.324  0.00  0.00    +0.000 C 
ATOM     15  C   UNL     1      23.754  14.697  26.169  0.00  0.00    +0.000 C 
ENDROOT
BRANCH   4  16
ATOM     16  O   UNL     1      28.592  17.580  24.428  0.00  0.00    +0.000 OA
ATOM     17  H   UNL     1      29.372  18.105  24.687  0.00  0.00    +0.000 HD
ENDBRANCH   4  16
BRANCH  13  18
ATOM     18  O   UNL     1      23.123  12.076  24.390  0.00  0.00    +0.000 OA
ATOM     19  H   UNL     1      22.508  12.774  24.105  0.00  0.00    +0.000 HD
ENDBRANCH  13  18
BRANCH   3  20
ATOM     20  C   UNL     1      28.648  15.188  22.918  0.00  0.00    +0.000 C 
ATOM     21  C   UNL     1      28.913  15.165  21.410  0.00  0.00    +0.000 C 
BRANCH  21  25
ATOM     22  C   UNL     1      29.132  13.832  19.210  0.00  0.00    +0.000 A 
ATOM     23  C   UNL     1      29.326  13.860  17.644  0.00  0.00    +0.000 A 
ATOM     24  C   UNL     1      28.976  12.470  20.006  0.00  0.00    +0.000 C 
ATOM     25  C   UNL     1      29.114  15.162  19.994  0.00  0.00    +0.000 A 
ATOM     26  C   UNL     1      29.350  12.664  16.664  0.00  0.00    +0.000 C 
ATOM     27  C   UNL     1      29.069  11.422  18.985  0.00  0.00    +0.000 C 
ATOM     28  C   UNL     1      29.241  11.478  17.491  0.00  0.00    +0.000 C 
ATOM     29  C   UNL     1      29.530  15.196  17.189  0.00  0.00    +0.000 A 
ATOM     30  C   UNL     1      29.315  16.486  19.344  0.00  0.00    +0.000 A 
ATOM     31  C   UNL     1      27.581  12.413  20.673  0.00  0.00    +0.000 C 
ATOM     32  C   UNL     1      30.141  12.309  21.006  0.00  0.00    +0.000 C 
ATOM     33  C   UNL     1      29.508  16.413  18.066  0.00  0.00    +0.000 A 
ATOM     34  C   UNL     1      28.247  12.779  15.621  0.00  0.00    +0.000 C 
ATOM     35  C   UNL     1      29.180  17.827  20.005  0.00  0.00    +0.000 C 
BRANCH  26  36
ATOM     36  O   UNL     1      30.573  12.647  15.973  0.00  0.00    +0.000 OA
ATOM     37  H   UNL     1      30.964  13.490  16.268  0.00  0.00    +0.000 HD
ENDBRANCH  26  36
ENDBRANCH  21  25
ENDBRANCH   3  20
TORSDOF 5
ENDMDL
MODEL 3
REMARK VINA RESULT:      -6.4     20.369     24.164
REMARK  Name = 44234954_SipholenolL.pdbqt.pdb
REMARK  5 active torsions:
REMARK  status: ('A' for Active; 'I' for Inactive)
REMARK    1  A    between atoms: C_3  and  C_20
REMARK    2  A    between atoms: C_4  and  O_16
REMARK    3  A    between atoms: C_13  and  O_18
REMARK    4  A    between atoms: C_21  and  C_25
REMARK    5  A    between atoms: C_26  and  O_36
REMARK                            x       y       z     vdW  Elec       q    Type
REMARK                         _______ _______ _______ _____ _____    ______ ____
ROOT
ATOM      1  O   UNL     1      29.171  26.370   9.068  0.00  0.00    +0.000 OA
ATOM      2  C   UNL     1      27.604  27.316   7.213  0.00  0.00    +0.000 C 
ATOM      3  C   UNL     1      26.553  28.392   6.931  0.00  0.00    +0.000 C 
ATOM      4  C   UNL     1      26.811  29.823   7.366  0.00  0.00    +0.000 C 
ATOM      5  C   UNL     1      28.348  27.407   8.617  0.00  0.00    +0.000 C 
ATOM      6  C   UNL     1      26.986  25.985   7.309  0.00  0.00    +0.000 C 
ATOM      7  C   UNL     1      27.745  29.806   8.477  0.00  0.00    +0.000 C 
ATOM      8  C   UNL     1      28.508  28.707   9.139  0.00  0.00    +0.000 C 
ATOM      9  C   UNL     1      28.676  27.323   6.092  0.00  0.00    +0.000 C 
ATOM     10  C   UNL     1      27.027  24.731   8.145  0.00  0.00    +0.000 C 
ATOM     11  C   UNL     1      28.640  25.379  10.020  0.00  0.00    +0.000 C 
ATOM     12  C   UNL     1      27.240  30.708   6.200  0.00  0.00    +0.000 C 
ATOM     13  C   UNL     1      27.711  24.333   9.317  0.00  0.00    +0.000 C 
ATOM     14  C   UNL     1      29.881  24.645  10.594  0.00  0.00    +0.000 C 
ATOM     15  C   UNL     1      27.835  26.074  11.163  0.00  0.00    +0.000 C 
ENDROOT
BRANCH   4  16
ATOM     16  O   UNL     1      25.597  30.385   7.822  0.00  0.00    +0.000 OA
ATOM     17  H   UNL     1      25.025  30.237   7.046  0.00  0.00    +0.000 HD
ENDBRANCH   4  16
BRANCH  13  18
ATOM     18  O   UNL     1      27.370  23.129   9.921  0.00  0.00    +0.000 OA
ATOM     19  H   UNL     1      27.558  22.362   9.353  0.00  0.00    +0.000 HD
ENDBRANCH  13  18
BRANCH   3  20
ATOM     20  C   UNL     1      25.353  28.077   6.204  0.00  0.00    +0.000 C 
ATOM     21  C   UNL     1      24.087  27.760   5.402  0.00  0.00    +0.000 C 
BRANCH  21  25
ATOM     22  C   UNL     1      21.666  28.356   4.731  0.00  0.00    +0.000 A 
ATOM     23  C   UNL     1      20.414  28.038   3.825  0.00  0.00    +0.000 A 
ATOM     24  C   UNL     1      21.655  29.544   5.780  0.00  0.00    +0.000 C 
ATOM     25  C   UNL     1      22.930  27.477   4.612  0.00  0.00    +0.000 A 
ATOM     26  C   UNL     1      19.067  28.794   3.760  0.00  0.00    +0.000 C 
ATOM     27  C   UNL     1      20.321  30.141   5.662  0.00  0.00    +0.000 C 
ATOM     28  C   UNL     1      19.147  29.825   4.776  0.00  0.00    +0.000 C 
ATOM     29  C   UNL     1      20.650  26.873   3.037  0.00  0.00    +0.000 A 
ATOM     30  C   UNL     1      23.014  26.301   3.702  0.00  0.00    +0.000 A 
ATOM     31  C   UNL     1      22.723  30.594   5.390  0.00  0.00    +0.000 C 
ATOM     32  C   UNL     1      21.837  28.987   7.209  0.00  0.00    +0.000 C 
ATOM     33  C   UNL     1      21.929  26.089   3.027  0.00  0.00    +0.000 A 
ATOM     34  C   UNL     1      18.803  29.338   2.363  0.00  0.00    +0.000 C 
ATOM     35  C   UNL     1      24.239  25.480   3.426  0.00  0.00    +0.000 C 
BRANCH  26  36
ATOM     36  O   UNL     1      18.017  27.911   4.064  0.00  0.00    +0.000 OA
ATOM     37  H   UNL     1      17.315  28.538   4.314  0.00  0.00    +0.000 HD
ENDBRANCH  26  36
ENDBRANCH  21  25
ENDBRANCH   3  20
TORSDOF 5
ENDMDL
MODEL 4
REMARK VINA RESULT:      -6.2     10.660     15.052
REMARK  Name = 44234954_SipholenolL.pdbqt.pdb
REMARK  5 active torsions:
REMARK  status: ('A' for Active; 'I' for Inactive)
REMARK    1  A    between atoms: C_3  and  C_20
REMARK    2  A    between atoms: C_4  and  O_16
REMARK    3  A    between atoms: C_13  and  O_18
REMARK    4  A    between atoms: C_21  and  C_25
REMARK    5  A    between atoms: C_26  and  O_36
REMARK                            x       y       z     vdW  Elec       q    Type
REMARK                         _______ _______ _______ _____ _____    ______ ____
ROOT
ATOM      1  O   UNL     1      29.555  23.050  16.356  0.00  0.00    +0.000 OA
ATOM      2  C   UNL     1      29.528  20.819  17.702  0.00  0.00    +0.000 C 
ATOM      3  C   UNL     1      30.433  19.792  18.386  0.00  0.00    +0.000 C 
ATOM      4  C   UNL     1      31.546  20.268  19.302  0.00  0.00    +0.000 C 
ATOM      5  C   UNL     1      30.236  22.143  17.173  0.00  0.00    +0.000 C 
ATOM      6  C   UNL     1      28.969  20.282  16.452  0.00  0.00    +0.000 C 
ATOM      7  C   UNL     1      31.917  21.617  18.915  0.00  0.00    +0.000 C 
ATOM      8  C   UNL     1      31.358  22.570  17.911  0.00  0.00    +0.000 C 
ATOM      9  C   UNL     1      28.381  21.229  18.662  0.00  0.00    +0.000 C 
ATOM     10  C   UNL     1      28.701  20.679  15.022  0.00  0.00    +0.000 C 
ATOM     11  C   UNL     1      29.750  23.006  14.897  0.00  0.00    +0.000 C 
ATOM     12  C   UNL     1      31.179  20.118  20.775  0.00  0.00    +0.000 C 
ATOM     13  C   UNL     1      28.962  21.825  14.237  0.00  0.00    +0.000 C 
ATOM     14  C   UNL     1      29.186  24.350  14.359  0.00  0.00    +0.000 C 
ATOM     15  C   UNL     1      31.262  22.862  14.537  0.00  0.00    +0.000 C 
ENDROOT
BRANCH   4  16
ATOM     16  O   UNL     1      32.672  19.434  19.120  0.00  0.00    +0.000 OA
ATOM     17  H   UNL     1      33.038  19.800  18.294  0.00  0.00    +0.000 HD
ENDBRANCH   4  16
BRANCH  13  18
ATOM     18  O   UNL     1      28.718  21.777  12.870  0.00  0.00    +0.000 OA
ATOM     19  H   UNL     1      29.288  21.134  12.413  0.00  0.00    +0.000 HD
ENDBRANCH  13  18
BRANCH   3  20
ATOM     20  C   UNL     1      30.204  18.383  18.221  0.00  0.00    +0.000 C 
ATOM     21  C   UNL     1      29.931  16.883  18.067  0.00  0.00    +0.000 C 
BRANCH  21  25
ATOM     22  C   UNL     1      29.480  14.848  16.543  0.00  0.00    +0.000 A 
ATOM     23  C   UNL     1      29.175  13.304  16.432  0.00  0.00    +0.000 A 
ATOM     24  C   UNL     1      29.615  15.767  15.259  0.00  0.00    +0.000 C 
ATOM     25  C   UNL     1      29.630  15.492  17.939  0.00  0.00    +0.000 A 
ATOM     26  C   UNL     1      29.013  12.454  15.150  0.00  0.00    +0.000 C 
ATOM     27  C   UNL     1      29.390  14.866  14.124  0.00  0.00    +0.000 C 
ATOM     28  C   UNL     1      29.115  13.388  14.045  0.00  0.00    +0.000 C 
ATOM     29  C   UNL     1      29.015  12.731  17.727  0.00  0.00    +0.000 A 
ATOM     30  C   UNL     1      29.457  14.726  19.205  0.00  0.00    +0.000 A 
ATOM     31  C   UNL     1      31.050  16.342  15.178  0.00  0.00    +0.000 C 
ATOM     32  C   UNL     1      28.519  16.853  15.269  0.00  0.00    +0.000 C 
ATOM     33  C   UNL     1      29.169  13.477  19.020  0.00  0.00    +0.000 A 
ATOM     34  C   UNL     1      30.043  11.334  15.093  0.00  0.00    +0.000 C 
ATOM     35  C   UNL     1      29.715  15.236  20.592  0.00  0.00    +0.000 C 
BRANCH  26  36
ATOM     36  O   UNL     1      27.745  11.851  15.144  0.00  0.00    +0.000 OA
ATOM     37  H   UNL     1      27.786  11.343  14.313  0.00  0.00    +0.000 HD
ENDBRANCH  26  36
ENDBRANCH  21  25
ENDBRANCH   3  20
TORSDOF 5
ENDMDL
MODEL 5
REMARK VINA RESULT:      -6.0      3.330      8.904
REMARK  Name = 44234954_SipholenolL.pdbqt.pdb
REMARK  5 active torsions:
REMARK  status: ('A' for Active; 'I' for Inactive)
REMARK    1  A    between atoms: C_3  and  C_20
REMARK    2  A    between atoms: C_4  and  O_16
REMARK    3  A    between atoms: C_13  and  O_18
REMARK    4  A    between atoms: C_21  and  C_25
REMARK    5  A    between atoms: C_26  and  O_36
REMARK                            x       y       z     vdW  Elec       q    Type
REMARK                         _______ _______ _______ _____ _____    ______ ____
ROOT
ATOM      1  O   UNL     1      18.027  21.133  33.082  0.00  0.00    +0.000 OA
ATOM      2  C   UNL     1      19.956  21.104  31.330  0.00  0.00    +0.000 C 
ATOM      3  C   UNL     1      20.328  21.548  29.913  0.00  0.00    +0.000 C 
ATOM      4  C   UNL     1      20.018  22.965  29.467  0.00  0.00    +0.000 C 
ATOM      5  C   UNL     1      18.565  21.635  31.893  0.00  0.00    +0.000 C 
ATOM      6  C   UNL     1      19.745  19.650  31.390  0.00  0.00    +0.000 C 
ATOM      7  C   UNL     1      18.911  23.466  30.260  0.00  0.00    +0.000 C 
ATOM      8  C   UNL     1      18.157  22.898  31.417  0.00  0.00    +0.000 C 
ATOM      9  C   UNL     1      21.075  21.519  32.321  0.00  0.00    +0.000 C 
ATOM     10  C   UNL     1      18.804  18.624  31.971  0.00  0.00    +0.000 C 
ATOM     11  C   UNL     1      16.994  20.086  33.030  0.00  0.00    +0.000 C 
ATOM     12  C   UNL     1      21.256  23.856  29.486  0.00  0.00    +0.000 C 
ATOM     13  C   UNL     1      17.603  18.678  32.715  0.00  0.00    +0.000 C 
ATOM     14  C   UNL     1      16.359  20.054  34.447  0.00  0.00    +0.000 C 
ATOM     15  C   UNL     1      15.914  20.416  31.952  0.00  0.00    +0.000 C 
ENDROOT
BRANCH   4  16
ATOM     16  O   UNL     1      19.611  22.936  28.114  0.00  0.00    +0.000 OA
ATOM     17  H   UNL     1      20.345  23.419  27.693  0.00  0.00    +0.000 HD
ENDBRANCH   4  16
BRANCH  13  18
ATOM     18  O   UNL     1      16.897  17.503  32.943  0.00  0.00    +0.000 OA
ATOM     19  H   UNL     1      15.956  17.584  32.709  0.00  0.00    +0.000 HD
ENDBRANCH  13  18
BRANCH   3  20
ATOM     20  C   UNL     1      21.024  20.660  29.022  0.00  0.00    +0.000 C 
ATOM     21  C   UNL     1      21.749  19.686  28.088  0.00  0.00    +0.000 C 
BRANCH  21  25
ATOM     22  C   UNL     1      22.671  17.304  27.710  0.00  0.00    +0.000 A 
ATOM     23  C   UNL     1      23.352  16.275  26.727  0.00  0.00    +0.000 A 
ATOM     24  C   UNL     1      22.286  16.908  29.196  0.00  0.00    +0.000 C 
ATOM     25  C   UNL     1      22.389  18.743  27.225  0.00  0.00    +0.000 A 
ATOM     26  C   UNL     1      23.701  14.792  26.990  0.00  0.00    +0.000 C 
ATOM     27  C   UNL     1      22.711  15.512  29.337  0.00  0.00    +0.000 C 
ATOM     28  C   UNL     1      23.348  14.546  28.375  0.00  0.00    +0.000 C 
ATOM     29  C   UNL     1      23.675  16.905  25.489  0.00  0.00    +0.000 A 
ATOM     30  C   UNL     1      22.771  19.228  25.870  0.00  0.00    +0.000 A 
ATOM     31  C   UNL     1      20.752  16.997  29.379  0.00  0.00    +0.000 C 
ATOM     32  C   UNL     1      23.074  17.781  30.196  0.00  0.00    +0.000 C 
ATOM     33  C   UNL     1      23.361  18.331  25.145  0.00  0.00    +0.000 A 
ATOM     34  C   UNL     1      22.985  13.872  26.010  0.00  0.00    +0.000 C 
ATOM     35  C   UNL     1      22.417  20.558  25.272  0.00  0.00    +0.000 C 
BRANCH  26  36
ATOM     36  O   UNL     1      25.080  14.594  26.811  0.00  0.00    +0.000 OA
ATOM     37  H   UNL     1      25.177  14.813  25.866  0.00  0.00    +0.000 HD
ENDBRANCH  26  36
ENDBRANCH  21  25
ENDBRANCH   3  20
TORSDOF 5
ENDMDL
MODEL 6
REMARK VINA RESULT:      -5.9     17.402     20.886
REMARK  Name = 44234954_SipholenolL.pdbqt.pdb
REMARK  5 active torsions:
REMARK  status: ('A' for Active; 'I' for Inactive)
REMARK    1  A    between atoms: C_3  and  C_20
REMARK    2  A    between atoms: C_4  and  O_16
REMARK    3  A    between atoms: C_13  and  O_18
REMARK    4  A    between atoms: C_21  and  C_25
REMARK    5  A    between atoms: C_26  and  O_36
REMARK                            x       y       z     vdW  Elec       q    Type
REMARK                         _______ _______ _______ _____ _____    ______ ____
ROOT
ATOM      1  O   UNL     1       1.086  21.123  31.247  0.00  0.00    +0.000 OA
ATOM      2  C   UNL     1       3.141  22.319  32.313  0.00  0.00    +0.000 C 
ATOM      3  C   UNL     1       3.555  23.547  33.127  0.00  0.00    +0.000 C 
ATOM      4  C   UNL     1       2.761  23.928  34.363  0.00  0.00    +0.000 C 
ATOM      5  C   UNL     1       1.577  22.085  32.135  0.00  0.00    +0.000 C 
ATOM      6  C   UNL     1       3.566  22.446  30.911  0.00  0.00    +0.000 C 
ATOM      7  C   UNL     1       1.415  23.402  34.227  0.00  0.00    +0.000 C 
ATOM      8  C   UNL     1       0.769  22.533  33.200  0.00  0.00    +0.000 C 
ATOM      9  C   UNL     1       3.758  21.041  32.940  0.00  0.00    +0.000 C 
ATOM     10  C   UNL     1       3.062  22.220  29.507  0.00  0.00    +0.000 C 
ATOM     11  C   UNL     1       0.632  21.532  29.907  0.00  0.00    +0.000 C 
ATOM     12  C   UNL     1       3.468  23.512  35.650  0.00  0.00    +0.000 C 
ATOM     13  C   UNL     1       1.834  21.807  28.941  0.00  0.00    +0.000 C 
ATOM     14  C   UNL     1      -0.189  20.333  29.360  0.00  0.00    +0.000 C 
ATOM     15  C   UNL     1      -0.252  22.815  29.982  0.00  0.00    +0.000 C 
ENDROOT
BRANCH   4  16
ATOM     16  O   UNL     1       2.677  25.337  34.433  0.00  0.00    +0.000 OA
ATOM     17  H   UNL     1       1.870  25.444  34.971  0.00  0.00    +0.000 HD
ENDBRANCH   4  16
BRANCH  13  18
ATOM     18  O   UNL     1       1.670  21.874  27.563  0.00  0.00    +0.000 OA
ATOM     19  H   UNL     1       2.403  22.341  27.124  0.00  0.00    +0.000 HD
ENDBRANCH  13  18
BRANCH   3  20
ATOM     20  C   UNL     1       4.723  24.307  32.772  0.00  0.00    +0.000 C 
ATOM     21  C   UNL     1       5.958  25.113  32.359  0.00  0.00    +0.000 C 
BRANCH  21  25
ATOM     22  C   UNL     1       7.670  25.679  30.512  0.00  0.00    +0.000 A 
ATOM     23  C   UNL     1       8.901  26.554  30.053  0.00  0.00    +0.000 A 
ATOM     24  C   UNL     1       7.026  24.585  29.564  0.00  0.00    +0.000 C 
ATOM     25  C   UNL     1       7.089  25.875  31.929  0.00  0.00    +0.000 A 
ATOM     26  C   UNL     1       9.621  26.544  28.685  0.00  0.00    +0.000 C 
ATOM     27  C   UNL     1       7.822  24.635  28.333  0.00  0.00    +0.000 C 
ATOM     28  C   UNL     1       8.986  25.492  27.915  0.00  0.00    +0.000 C 
ATOM     29  C   UNL     1       9.343  27.394  31.118  0.00  0.00    +0.000 A 
ATOM     30  C   UNL     1       7.664  26.832  32.914  0.00  0.00    +0.000 A 
ATOM     31  C   UNL     1       5.562  24.970  29.242  0.00  0.00    +0.000 C 
ATOM     32  C   UNL     1       7.166  23.186  30.202  0.00  0.00    +0.000 C 
ATOM     33  C   UNL     1       8.695  27.477  32.469  0.00  0.00    +0.000 A 
ATOM     34  C   UNL     1       9.557  27.909  28.014  0.00  0.00    +0.000 C 
ATOM     35  C   UNL     1       7.085  27.181  34.254  0.00  0.00    +0.000 C 
BRANCH  26  36
ATOM     36  O   UNL     1      10.980  26.239  28.871  0.00  0.00    +0.000 OA
ATOM     37  H   UNL     1      11.312  27.084  29.226  0.00  0.00    +0.000 HD
ENDBRANCH  26  36
ENDBRANCH  21  25
ENDBRANCH   3  20
TORSDOF 5
ENDMDL
MODEL 7
REMARK VINA RESULT:      -5.9     12.973     18.041
REMARK  Name = 44234954_SipholenolL.pdbqt.pdb
REMARK  5 active torsions:
REMARK  status: ('A' for Active; 'I' for Inactive)
REMARK    1  A    between atoms: C_3  and  C_20
REMARK    2  A    between atoms: C_4  and  O_16
REMARK    3  A    between atoms: C_13  and  O_18
REMARK    4  A    between atoms: C_21  and  C_25
REMARK    5  A    between atoms: C_26  and  O_36
REMARK                            x       y       z     vdW  Elec       q    Type
REMARK                         _______ _______ _______ _____ _____    ______ ____
ROOT
ATOM      1  O   UNL     1      28.957  32.194  20.055  0.00  0.00    +0.000 OA
ATOM      2  C   UNL     1      29.734  30.129  18.669  0.00  0.00    +0.000 C 
ATOM      3  C   UNL     1      29.529  29.400  17.339  0.00  0.00    +0.000 C 
ATOM      4  C   UNL     1      29.515  30.194  16.045  0.00  0.00    +0.000 C 
ATOM      5  C   UNL     1      29.011  31.539  18.821  0.00  0.00    +0.000 C 
ATOM      6  C   UNL     1      29.125  29.382  19.780  0.00  0.00    +0.000 C 
ATOM      7  C   UNL     1      29.124  31.559  16.346  0.00  0.00    +0.000 C 
ATOM      8  C   UNL     1      28.854  32.274  17.628  0.00  0.00    +0.000 C 
ATOM      9  C   UNL     1      31.250  30.326  18.930  0.00  0.00    +0.000 C 
ATOM     10  C   UNL     1      28.290  29.594  21.018  0.00  0.00    +0.000 C 
ATOM     11  C   UNL     1      27.744  32.087  20.884  0.00  0.00    +0.000 C 
ATOM     12  C   UNL     1      30.831  30.073  15.284  0.00  0.00    +0.000 C 
ATOM     13  C   UNL     1      27.656  30.707  21.617  0.00  0.00    +0.000 C 
ATOM     14  C   UNL     1      27.864  33.214  21.946  0.00  0.00    +0.000 C 
ATOM     15  C   UNL     1      26.457  32.279  20.023  0.00  0.00    +0.000 C 
ENDROOT
BRANCH   4  16
ATOM     16  O   UNL     1      28.543  29.640  15.182  0.00  0.00    +0.000 OA
ATOM     17  H   UNL     1      27.724  29.986  15.584  0.00  0.00    +0.000 HD
ENDBRANCH   4  16
BRANCH  13  18
ATOM     18  O   UNL     1      26.804  30.499  22.694  0.00  0.00    +0.000 OA
ATOM     19  H   UNL     1      26.426  29.602  22.701  0.00  0.00    +0.000 HD
ENDBRANCH  13  18
BRANCH   3  20
ATOM     20  C   UNL     1      29.411  27.968  17.293  0.00  0.00    +0.000 C 
ATOM     21  C   UNL     1      29.288  26.441  17.281  0.00  0.00    +0.000 C 
BRANCH  21  25
ATOM     22  C   UNL     1      29.215  24.193  16.013  0.00  0.00    +0.000 A 
ATOM     23  C   UNL     1      29.099  22.621  16.086  0.00  0.00    +0.000 A 
ATOM     24  C   UNL     1      29.364  24.955  14.631  0.00  0.00    +0.000 C 
ATOM     25  C   UNL     1      29.160  25.018  17.317  0.00  0.00    +0.000 A 
ATOM     26  C   UNL     1      29.155  21.606  14.922  0.00  0.00    +0.000 C 
ATOM     27  C   UNL     1      29.349  23.899  13.614  0.00  0.00    +0.000 C 
ATOM     28  C   UNL     1      29.252  22.400  13.713  0.00  0.00    +0.000 C 
ATOM     29  C   UNL     1      28.885  22.197  17.430  0.00  0.00    +0.000 A 
ATOM     30  C   UNL     1      28.958  24.399  18.657  0.00  0.00    +0.000 A 
ATOM     31  C   UNL     1      30.725  25.691  14.585  0.00  0.00    +0.000 C 
ATOM     32  C   UNL     1      28.154  25.889  14.410  0.00  0.00    +0.000 C 
ATOM     33  C   UNL     1      28.833  23.111  18.619  0.00  0.00    +0.000 A 
ATOM     34  C   UNL     1      30.306  20.624  15.096  0.00  0.00    +0.000 C 
ATOM     35  C   UNL     1      29.026  25.106  19.979  0.00  0.00    +0.000 C 
BRANCH  26  36
ATOM     36  O   UNL     1      27.970  20.852  14.898  0.00  0.00    +0.000 OA
ATOM     37  H   UNL     1      27.534  21.167  15.711  0.00  0.00    +0.000 HD
ENDBRANCH  26  36
ENDBRANCH  21  25
ENDBRANCH   3  20
TORSDOF 5
ENDMDL
MODEL 8
REMARK VINA RESULT:      -5.8     26.207     29.926
REMARK  Name = 44234954_SipholenolL.pdbqt.pdb
REMARK  5 active torsions:
REMARK  status: ('A' for Active; 'I' for Inactive)
REMARK    1  A    between atoms: C_3  and  C_20
REMARK    2  A    between atoms: C_4  and  O_16
REMARK    3  A    between atoms: C_13  and  O_18
REMARK    4  A    between atoms: C_21  and  C_25
REMARK    5  A    between atoms: C_26  and  O_36
REMARK                            x       y       z     vdW  Elec       q    Type
REMARK                         _______ _______ _______ _____ _____    ______ ____
ROOT
ATOM      1  O   UNL     1      10.275  22.750  -2.155  0.00  0.00    +0.000 OA
ATOM      2  C   UNL     1      10.397  20.472  -0.896  0.00  0.00    +0.000 C 
ATOM      3  C   UNL     1      10.184  19.817   0.471  0.00  0.00    +0.000 C 
ATOM      4  C   UNL     1       8.923  20.123   1.258  0.00  0.00    +0.000 C 
ATOM      5  C   UNL     1       9.943  21.992  -1.028  0.00  0.00    +0.000 C 
ATOM      6  C   UNL     1      11.830  20.581  -1.212  0.00  0.00    +0.000 C 
ATOM      7  C   UNL     1       8.420  21.418   0.840  0.00  0.00    +0.000 C 
ATOM      8  C   UNL     1       8.849  22.373  -0.224  0.00  0.00    +0.000 C 
ATOM      9  C   UNL     1       9.673  19.648  -1.992  0.00  0.00    +0.000 C 
ATOM     10  C   UNL     1      12.835  21.550  -1.782  0.00  0.00    +0.000 C 
ATOM     11  C   UNL     1      11.431  23.661  -2.105  0.00  0.00    +0.000 C 
ATOM     12  C   UNL     1       7.901  18.994   1.164  0.00  0.00    +0.000 C 
ATOM     13  C   UNL     1      12.788  22.891  -2.227  0.00  0.00    +0.000 C 
ATOM     14  C   UNL     1      11.275  24.602  -3.331  0.00  0.00    +0.000 C 
ATOM     15  C   UNL     1      11.441  24.484  -0.779  0.00  0.00    +0.000 C 
ENDROOT
BRANCH   4  16
ATOM     16  O   UNL     1       9.252  20.202   2.630  0.00  0.00    +0.000 OA
ATOM     17  H   UNL     1       9.330  21.168   2.743  0.00  0.00    +0.000 HD
ENDBRANCH   4  16
BRANCH  13  18
ATOM     18  O   UNL     1      13.977  23.539  -2.541  0.00  0.00    +0.000 OA
ATOM     19  H   UNL     1      14.761  23.039  -2.250  0.00  0.00    +0.000 HD
ENDBRANCH  13  18
BRANCH   3  20
ATOM     20  C   UNL     1      11.131  18.868   0.989  0.00  0.00    +0.000 C 
ATOM     21  C   UNL     1      12.119  17.832   1.534  0.00  0.00    +0.000 C 
BRANCH  21  25
ATOM     22  C   UNL     1      14.541  17.057   1.976  0.00  0.00    +0.000 A 
ATOM     23  C   UNL     1      15.506  15.944   2.543  0.00  0.00    +0.000 A 
ATOM     24  C   UNL     1      15.098  18.399   1.342  0.00  0.00    +0.000 C 
ATOM     25  C   UNL     1      13.015  16.828   2.018  0.00  0.00    +0.000 A 
ATOM     26  C   UNL     1      17.050  15.972   2.625  0.00  0.00    +0.000 C 
ATOM     27  C   UNL     1      16.557  18.281   1.429  0.00  0.00    +0.000 C 
ATOM     28  C   UNL     1      17.454  17.211   1.990  0.00  0.00    +0.000 C 
ATOM     29  C   UNL     1      14.761  14.807   2.971  0.00  0.00    +0.000 A 
ATOM     30  C   UNL     1      12.399  15.575   2.535  0.00  0.00    +0.000 A 
ATOM     31  C   UNL     1      14.631  19.608   2.188  0.00  0.00    +0.000 C 
ATOM     32  C   UNL     1      14.684  18.492  -0.142  0.00  0.00    +0.000 C 
ATOM     33  C   UNL     1      13.265  14.701   2.941  0.00  0.00    +0.000 A 
ATOM     34  C   UNL     1      17.531  15.844   4.064  0.00  0.00    +0.000 C 
ATOM     35  C   UNL     1      10.933  15.325   2.735  0.00  0.00    +0.000 C 
BRANCH  26  36
ATOM     36  O   UNL     1      17.578  14.882   1.914  0.00  0.00    +0.000 OA
ATOM     37  H   UNL     1      17.982  14.367   2.637  0.00  0.00    +0.000 HD
ENDBRANCH  26  36
ENDBRANCH  21  25
ENDBRANCH   3  20
TORSDOF 5
ENDMDL
MODEL 9
REMARK VINA RESULT:      -5.8     20.290     23.718
REMARK  Name = 44234954_SipholenolL.pdbqt.pdb
REMARK  5 active torsions:
REMARK  status: ('A' for Active; 'I' for Inactive)
REMARK    1  A    between atoms: C_3  and  C_20
REMARK    2  A    between atoms: C_4  and  O_16
REMARK    3  A    between atoms: C_13  and  O_18
REMARK    4  A    between atoms: C_21  and  C_25
REMARK    5  A    between atoms: C_26  and  O_36
REMARK                            x       y       z     vdW  Elec       q    Type
REMARK                         _______ _______ _______ _____ _____    ______ ____
ROOT
ATOM      1  O   UNL     1      12.922  -5.171  22.742  0.00  0.00    +0.000 OA
ATOM      2  C   UNL     1      13.949  -5.241  20.347  0.00  0.00    +0.000 C 
ATOM      3  C   UNL     1      15.120  -5.796  19.534  0.00  0.00    +0.000 C 
ATOM      4  C   UNL     1      15.511  -7.255  19.686  0.00  0.00    +0.000 C 
ATOM      5  C   UNL     1      13.822  -5.759  21.847  0.00  0.00    +0.000 C 
ATOM      6  C   UNL     1      14.094  -3.793  20.564  0.00  0.00    +0.000 C 
ATOM      7  C   UNL     1      15.078  -7.715  20.992  0.00  0.00    +0.000 C 
ATOM      8  C   UNL     1      14.286  -7.070  22.080  0.00  0.00    +0.000 C 
ATOM      9  C   UNL     1      12.614  -5.536  19.614  0.00  0.00    +0.000 C 
ATOM     10  C   UNL     1      13.946  -2.747  21.640  0.00  0.00    +0.000 C 
ATOM     11  C   UNL     1      13.403  -4.161  23.700  0.00  0.00    +0.000 C 
ATOM     12  C   UNL     1      15.010  -8.106  18.523  0.00  0.00    +0.000 C 
ATOM     13  C   UNL     1      13.631  -2.770  23.018  0.00  0.00    +0.000 C 
ATOM     14  C   UNL     1      12.278  -4.023  24.761  0.00  0.00    +0.000 C 
ATOM     15  C   UNL     1      14.738  -4.614  24.370  0.00  0.00    +0.000 C 
ENDROOT
BRANCH   4  16
ATOM     16  O   UNL     1      16.920  -7.355  19.630  0.00  0.00    +0.000 OA
ATOM     17  H   UNL     1      17.056  -8.231  20.038  0.00  0.00    +0.000 HD
ENDBRANCH   4  16
BRANCH  13  18
ATOM     18  O   UNL     1      13.753  -1.600  23.757  0.00  0.00    +0.000 OA
ATOM     19  H   UNL     1      14.565  -1.583  24.295  0.00  0.00    +0.000 HD
ENDBRANCH  13  18
BRANCH   3  20
ATOM     20  C   UNL     1      15.815  -4.970  18.584  0.00  0.00    +0.000 C 
ATOM     21  C   UNL     1      16.555  -4.117  17.549  0.00  0.00    +0.000 C 
BRANCH  21  25
ATOM     22  C   UNL     1      18.292  -2.304  16.946  0.00  0.00    +0.000 A 
ATOM     23  C   UNL     1      19.043  -1.497  15.818  0.00  0.00    +0.000 A 
ATOM     24  C   UNL     1      18.579  -2.052  18.484  0.00  0.00    +0.000 C 
ATOM     25  C   UNL     1      17.231  -3.354  16.547  0.00  0.00    +0.000 A 
ATOM     26  C   UNL     1      20.148  -0.428  15.985  0.00  0.00    +0.000 C 
ATOM     27  C   UNL     1      19.591  -0.992  18.511  0.00  0.00    +0.000 C 
ATOM     28  C   UNL     1      20.304  -0.246  17.415  0.00  0.00    +0.000 C 
ATOM     29  C   UNL     1      18.540  -1.848  14.531  0.00  0.00    +0.000 A 
ATOM     30  C   UNL     1      16.847  -3.617  15.133  0.00  0.00    +0.000 A 
ATOM     31  C   UNL     1      19.163  -3.334  19.123  0.00  0.00    +0.000 C 
ATOM     32  C   UNL     1      17.298  -1.547  19.184  0.00  0.00    +0.000 C 
ATOM     33  C   UNL     1      17.483  -2.883  14.278  0.00  0.00    +0.000 A 
ATOM     34  C   UNL     1      21.433  -0.844  15.283  0.00  0.00    +0.000 C 
ATOM     35  C   UNL     1      15.932  -4.705  14.651  0.00  0.00    +0.000 C 
BRANCH  26  36
ATOM     36  O   UNL     1      19.728   0.777  15.399  0.00  0.00    +0.000 OA
ATOM     37  H   UNL     1      18.781   0.595  15.258  0.00  0.00    +0.000 HD
ENDBRANCH  26  36
ENDBRANCH  21  25
ENDBRANCH   3  20
TORSDOF 5
ENDMDL
