MODEL 1
REMARK VINA RESULT:      -5.0      0.000      0.000
REMARK  Name = 442793_6gingerol.pdbqt.pdb
REMARK  7 active torsions:
REMARK  status: ('A' for Active; 'I' for Inactive)
REMARK    1  A    between atoms: C_1  and  C_3
REMARK    2  A    between atoms: C_5  and  O_6
REMARK    3  A    between atoms: C_5  and  C_8
REMARK    4  A    between atoms: C_9  and  C_10
REMARK    5  A    between atoms: C_13  and  C_14
REMARK    6  A    between atoms: C_17  and  O_20
REMARK    7  A    between atoms: C_19  and  O_22
REMARK                            x       y       z     vdW  Elec       q    Type
REMARK                         _______ _______ _______ _____ _____    ______ ____
ROOT
ATOM      1  C   UNL     1      12.090  22.022  30.091  0.00  0.00    +0.000 C 
ATOM      2  C   UNL     1      12.182  20.494  30.001  0.00  0.00    +0.000 C 
ENDROOT
BRANCH   2   3
ATOM      3  C   UNL     1      12.271  19.075  29.918  0.00  0.00    +0.000 A 
ATOM      4  C   UNL     1      13.416  18.424  30.375  0.00  0.00    +0.000 A 
ATOM      5  C   UNL     1      11.216  18.344  29.380  0.00  0.00    +0.000 A 
ATOM      6  C   UNL     1      13.518  17.032  30.299  0.00  0.00    +0.000 A 
ATOM      7  C   UNL     1      11.304  16.956  29.299  0.00  0.00    +0.000 A 
ATOM      8  C   UNL     1      12.451  16.309  29.756  0.00  0.00    +0.000 A 
BRANCH   6   9
ATOM      9  O   UNL     1      14.608  16.311  30.724  0.00  0.00    +0.000 OA
ATOM     10  C   UNL     1      15.858  16.823  30.346  0.00  0.00    +0.000 C 
ENDBRANCH   6   9
BRANCH   8  11
ATOM     11  O   UNL     1      12.532  14.946  29.674  0.00  0.00    +0.000 OA
ATOM     12  H   UNL     1      11.723  14.611  29.244  0.00  0.00    +0.000 HD
ENDBRANCH   8  11
ENDBRANCH   2   3
BRANCH   1  14
ATOM     13  O   UNL     1      12.936  24.105  30.633  0.00  0.00    +0.000 OA
ATOM     14  C   UNL     1      12.006  23.458  30.176  0.00  0.00    +0.000 C 
ATOM     15  C   UNL     1      10.818  24.125  29.720  0.00  0.00    +0.000 C 
ATOM     16  C   UNL     1       9.651  24.784  29.276  0.00  0.00    +0.000 C 
BRANCH  16  17
ATOM     17  O   UNL     1       8.753  24.052  28.537  0.00  0.00    +0.000 OA
ATOM     18  H   UNL     1       8.695  23.132  28.848  0.00  0.00    +0.000 HD
ENDBRANCH  16  17
BRANCH  16  19
ATOM     19  C   UNL     1       9.365  26.144  29.552  0.00  0.00    +0.000 C 
ATOM     20  C   UNL     1       9.064  27.615  29.855  0.00  0.00    +0.000 C 
BRANCH  20  21
ATOM     21  C   UNL     1       8.768  29.086  30.163  0.00  0.00    +0.000 C 
ATOM     22  C   UNL     1       8.474  30.559  30.469  0.00  0.00    +0.000 C 
ATOM     23  C   UNL     1       8.186  32.033  30.771  0.00  0.00    +0.000 C 
ENDBRANCH  20  21
ENDBRANCH  16  19
ENDBRANCH   1  14
TORSDOF 7
ENDMDL
MODEL 2
REMARK VINA RESULT:      -5.0     12.968     17.922
REMARK  Name = 442793_6gingerol.pdbqt.pdb
REMARK  7 active torsions:
REMARK  status: ('A' for Active; 'I' for Inactive)
REMARK    1  A    between atoms: C_1  and  C_3
REMARK    2  A    between atoms: C_5  and  O_6
REMARK    3  A    between atoms: C_5  and  C_8
REMARK    4  A    between atoms: C_9  and  C_10
REMARK    5  A    between atoms: C_13  and  C_14
REMARK    6  A    between atoms: C_17  and  O_20
REMARK    7  A    between atoms: C_19  and  O_22
REMARK                            x       y       z     vdW  Elec       q    Type
REMARK                         _______ _______ _______ _____ _____    ______ ____
ROOT
ATOM      1  C   UNL     1      22.953  15.315  26.497  0.00  0.00    +0.000 C 
ATOM      2  C   UNL     1      22.981  16.754  25.967  0.00  0.00    +0.000 C 
ENDROOT
BRANCH   2   3
ATOM      3  C   UNL     1      23.009  18.089  25.472  0.00  0.00    +0.000 A 
ATOM      4  C   UNL     1      23.528  19.111  26.265  0.00  0.00    +0.000 A 
ATOM      5  C   UNL     1      22.519  18.369  24.200  0.00  0.00    +0.000 A 
ATOM      6  C   UNL     1      23.561  20.427  25.795  0.00  0.00    +0.000 A 
ATOM      7  C   UNL     1      22.546  19.675  23.719  0.00  0.00    +0.000 A 
ATOM      8  C   UNL     1      23.065  20.695  24.516  0.00  0.00    +0.000 A 
BRANCH   6   9
ATOM      9  O   UNL     1      24.053  21.493  26.509  0.00  0.00    +0.000 OA
ATOM     10  C   UNL     1      23.275  21.899  27.604  0.00  0.00    +0.000 C 
ENDBRANCH   6   9
BRANCH   8  11
ATOM     11  O   UNL     1      23.089  21.976  24.036  0.00  0.00    +0.000 OA
ATOM     12  H   UNL     1      22.176  22.315  24.007  0.00  0.00    +0.000 HD
ENDBRANCH   8  11
ENDBRANCH   2   3
BRANCH   1  14
ATOM     13  O   UNL     1      22.688  13.741  28.170  0.00  0.00    +0.000 OA
ATOM     14  C   UNL     1      22.929  13.962  26.993  0.00  0.00    +0.000 C 
ATOM     15  C   UNL     1      23.193  12.874  26.093  0.00  0.00    +0.000 C 
ATOM     16  C   UNL     1      23.454  11.802  25.212  0.00  0.00    +0.000 C 
BRANCH  16  17
ATOM     17  O   UNL     1      23.459  12.076  23.866  0.00  0.00    +0.000 OA
ATOM     18  H   UNL     1      22.652  12.545  23.590  0.00  0.00    +0.000 HD
ENDBRANCH  16  17
BRANCH  16  19
ATOM     19  C   UNL     1      23.711  10.477  25.644  0.00  0.00    +0.000 C 
ATOM     20  C   UNL     1      23.997   9.045  26.107  0.00  0.00    +0.000 C 
BRANCH  20  21
ATOM     21  C   UNL     1      24.288   7.613  26.566  0.00  0.00    +0.000 C 
ATOM     22  C   UNL     1      24.579   6.181  27.027  0.00  0.00    +0.000 C 
ATOM     23  C   UNL     1      24.867   4.751  27.495  0.00  0.00    +0.000 C 
ENDBRANCH  20  21
ENDBRANCH  16  19
ENDBRANCH   1  14
TORSDOF 7
ENDMDL
MODEL 3
REMARK VINA RESULT:      -4.9     22.289     22.849
REMARK  Name = 442793_6gingerol.pdbqt.pdb
REMARK  7 active torsions:
REMARK  status: ('A' for Active; 'I' for Inactive)
REMARK    1  A    between atoms: C_1  and  C_3
REMARK    2  A    between atoms: C_5  and  O_6
REMARK    3  A    between atoms: C_5  and  C_8
REMARK    4  A    between atoms: C_9  and  C_10
REMARK    5  A    between atoms: C_13  and  C_14
REMARK    6  A    between atoms: C_17  and  O_20
REMARK    7  A    between atoms: C_19  and  O_22
REMARK                            x       y       z     vdW  Elec       q    Type
REMARK                         _______ _______ _______ _____ _____    ______ ____
ROOT
ATOM      1  C   UNL     1      29.381  18.267  16.380  0.00  0.00    +0.000 C 
ATOM      2  C   UNL     1      29.078  16.785  16.123  0.00  0.00    +0.000 C 
ENDROOT
BRANCH   2   3
ATOM      3  C   UNL     1      28.796  15.409  15.888  0.00  0.00    +0.000 A 
ATOM      4  C   UNL     1      29.187  14.452  16.822  0.00  0.00    +0.000 A 
ATOM      5  C   UNL     1      28.131  15.026  14.727  0.00  0.00    +0.000 A 
ATOM      6  C   UNL     1      28.918  13.097  16.605  0.00  0.00    +0.000 A 
ATOM      7  C   UNL     1      27.856  13.680  14.498  0.00  0.00    +0.000 A 
ATOM      8  C   UNL     1      28.250  12.725  15.434  0.00  0.00    +0.000 A 
BRANCH   6   9
ATOM      9  O   UNL     1      29.268  12.090  17.470  0.00  0.00    +0.000 OA
ATOM     10  C   UNL     1      28.981  12.326  18.823  0.00  0.00    +0.000 C 
ENDBRANCH   6   9
BRANCH   8  11
ATOM     11  O   UNL     1      27.977  11.405  15.203  0.00  0.00    +0.000 OA
ATOM     12  H   UNL     1      27.209  11.345  14.605  0.00  0.00    +0.000 HD
ENDBRANCH   8  11
ENDBRANCH   2   3
BRANCH   1  14
ATOM     13  O   UNL     1      30.211  20.005  17.659  0.00  0.00    +0.000 OA
ATOM     14  C   UNL     1      29.664  19.659  16.623  0.00  0.00    +0.000 C 
ATOM     15  C   UNL     1      29.295  20.638  15.639  0.00  0.00    +0.000 C 
ATOM     16  C   UNL     1      28.932  21.604  14.676  0.00  0.00    +0.000 C 
BRANCH  16  17
ATOM     17  O   UNL     1      28.565  21.150  13.432  0.00  0.00    +0.000 OA
ATOM     18  H   UNL     1      28.592  20.179  13.379  0.00  0.00    +0.000 HD
ENDBRANCH  16  17
BRANCH  16  19
ATOM     19  C   UNL     1      28.926  22.998  14.927  0.00  0.00    +0.000 C 
ATOM     20  C   UNL     1      28.922  24.505  15.207  0.00  0.00    +0.000 C 
BRANCH  20  21
ATOM     21  C   UNL     1      28.917  26.009  15.494  0.00  0.00    +0.000 C 
ATOM     22  C   UNL     1      28.912  27.514  15.784  0.00  0.00    +0.000 C 
ATOM     23  C   UNL     1      28.910  29.017  16.080  0.00  0.00    +0.000 C 
ENDBRANCH  20  21
ENDBRANCH  16  19
ENDBRANCH   1  14
TORSDOF 7
ENDMDL
MODEL 4
REMARK VINA RESULT:      -4.8      3.960     10.961
REMARK  Name = 442793_6gingerol.pdbqt.pdb
REMARK  7 active torsions:
REMARK  status: ('A' for Active; 'I' for Inactive)
REMARK    1  A    between atoms: C_1  and  C_3
REMARK    2  A    between atoms: C_5  and  O_6
REMARK    3  A    between atoms: C_5  and  C_8
REMARK    4  A    between atoms: C_9  and  C_10
REMARK    5  A    between atoms: C_13  and  C_14
REMARK    6  A    between atoms: C_17  and  O_20
REMARK    7  A    between atoms: C_19  and  O_22
REMARK                            x       y       z     vdW  Elec       q    Type
REMARK                         _______ _______ _______ _____ _____    ______ ____
ROOT
ATOM      1  C   UNL     1      11.945  17.594  29.587  0.00  0.00    +0.000 C 
ATOM      2  C   UNL     1      12.625  18.892  30.041  0.00  0.00    +0.000 C 
ENDROOT
BRANCH   2   3
ATOM      3  C   UNL     1      13.257  20.097  30.460  0.00  0.00    +0.000 A 
ATOM      4  C   UNL     1      12.698  21.328  30.120  0.00  0.00    +0.000 A 
ATOM      5  C   UNL     1      14.430  20.042  31.208  0.00  0.00    +0.000 A 
ATOM      6  C   UNL     1      13.307  22.520  30.524  0.00  0.00    +0.000 A 
ATOM      7  C   UNL     1      15.047  21.222  31.617  0.00  0.00    +0.000 A 
ATOM      8  C   UNL     1      14.485  22.451  31.274  0.00  0.00    +0.000 A 
BRANCH   6   9
ATOM      9  O   UNL     1      12.826  23.773  30.232  0.00  0.00    +0.000 OA
ATOM     10  C   UNL     1      11.445  23.852  29.998  0.00  0.00    +0.000 C 
ENDBRANCH   6   9
BRANCH   8  11
ATOM     11  O   UNL     1      15.096  23.605  31.678  0.00  0.00    +0.000 OA
ATOM     12  H   UNL     1      14.442  24.158  32.145  0.00  0.00    +0.000 HD
ENDBRANCH   8  11
ENDBRANCH   2   3
BRANCH   1  14
ATOM     13  O   UNL     1      11.078  16.184  27.972  0.00  0.00    +0.000 OA
ATOM     14  C   UNL     1      11.307  16.376  29.157  0.00  0.00    +0.000 C 
ATOM     15  C   UNL     1      10.940  15.388  30.133  0.00  0.00    +0.000 C 
ATOM     16  C   UNL     1      10.575  14.415  31.089  0.00  0.00    +0.000 C 
BRANCH  16  17
ATOM     17  O   UNL     1      11.082  14.554  32.358  0.00  0.00    +0.000 OA
ATOM     18  H   UNL     1      11.761  13.884  32.551  0.00  0.00    +0.000 HD
ENDBRANCH  16  17
BRANCH  16  19
ATOM     19  C   UNL     1       9.722  13.320  30.807  0.00  0.00    +0.000 C 
ATOM     20  C   UNL     1       8.792  12.141  30.499  0.00  0.00    +0.000 C 
BRANCH  20  21
ATOM     21  C   UNL     1       7.857  10.968  30.190  0.00  0.00    +0.000 C 
ATOM     22  C   UNL     1       6.923   9.794  29.879  0.00  0.00    +0.000 C 
ATOM     23  C   UNL     1       5.990   8.621  29.560  0.00  0.00    +0.000 C 
ENDBRANCH  20  21
ENDBRANCH  16  19
ENDBRANCH   1  14
TORSDOF 7
ENDMDL
MODEL 5
REMARK VINA RESULT:      -4.8     12.385     18.661
REMARK  Name = 442793_6gingerol.pdbqt.pdb
REMARK  7 active torsions:
REMARK  status: ('A' for Active; 'I' for Inactive)
REMARK    1  A    between atoms: C_1  and  C_3
REMARK    2  A    between atoms: C_5  and  O_6
REMARK    3  A    between atoms: C_5  and  C_8
REMARK    4  A    between atoms: C_9  and  C_10
REMARK    5  A    between atoms: C_13  and  C_14
REMARK    6  A    between atoms: C_17  and  O_20
REMARK    7  A    between atoms: C_19  and  O_22
REMARK                            x       y       z     vdW  Elec       q    Type
REMARK                         _______ _______ _______ _____ _____    ______ ____
ROOT
ATOM      1  C   UNL     1      22.862  13.922  26.071  0.00  0.00    +0.000 C 
ATOM      2  C   UNL     1      22.709  15.417  26.378  0.00  0.00    +0.000 C 
ENDROOT
BRANCH   2   3
ATOM      3  C   UNL     1      22.566  16.806  26.661  0.00  0.00    +0.000 A 
ATOM      4  C   UNL     1      23.075  17.750  25.771  0.00  0.00    +0.000 A 
ATOM      5  C   UNL     1      21.921  17.215  27.824  0.00  0.00    +0.000 A 
ATOM      6  C   UNL     1      22.943  19.116  26.034  0.00  0.00    +0.000 A 
ATOM      7  C   UNL     1      21.783  18.573  28.099  0.00  0.00    +0.000 A 
ATOM      8  C   UNL     1      22.293  19.514  27.206  0.00  0.00    +0.000 A 
BRANCH   6   9
ATOM      9  O   UNL     1      23.414  20.112  25.214  0.00  0.00    +0.000 OA
ATOM     10  C   UNL     1      22.694  20.310  24.026  0.00  0.00    +0.000 C 
ENDBRANCH   6   9
BRANCH   8  11
ATOM     11  O   UNL     1      22.154  20.846  27.482  0.00  0.00    +0.000 OA
ATOM     12  H   UNL     1      21.788  20.943  28.381  0.00  0.00    +0.000 HD
ENDBRANCH   8  11
ENDBRANCH   2   3
BRANCH   1  14
ATOM     13  O   UNL     1      22.351  11.690  26.399  0.00  0.00    +0.000 OA
ATOM     14  C   UNL     1      23.004  12.518  25.780  0.00  0.00    +0.000 C 
ATOM     15  C   UNL     1      23.921  12.097  24.758  0.00  0.00    +0.000 C 
ATOM     16  C   UNL     1      24.823  11.679  23.756  0.00  0.00    +0.000 C 
BRANCH  16  17
ATOM     17  O   UNL     1      25.331  12.643  22.920  0.00  0.00    +0.000 OA
ATOM     18  H   UNL     1      26.304  12.641  22.914  0.00  0.00    +0.000 HD
ENDBRANCH  16  17
BRANCH  16  19
ATOM     19  C   UNL     1      25.226  10.333  23.575  0.00  0.00    +0.000 C 
ATOM     20  C   UNL     1      25.671   8.880  23.378  0.00  0.00    +0.000 C 
BRANCH  20  21
ATOM     21  C   UNL     1      26.121   7.430  23.178  0.00  0.00    +0.000 C 
ATOM     22  C   UNL     1      26.570   5.979  22.977  0.00  0.00    +0.000 C 
ATOM     23  C   UNL     1      27.015   4.527  22.769  0.00  0.00    +0.000 C 
ENDBRANCH  20  21
ENDBRANCH  16  19
ENDBRANCH   1  14
TORSDOF 7
ENDMDL
MODEL 6
REMARK VINA RESULT:      -4.7     12.746     13.918
REMARK  Name = 442793_6gingerol.pdbqt.pdb
REMARK  7 active torsions:
REMARK  status: ('A' for Active; 'I' for Inactive)
REMARK    1  A    between atoms: C_1  and  C_3
REMARK    2  A    between atoms: C_5  and  O_6
REMARK    3  A    between atoms: C_5  and  C_8
REMARK    4  A    between atoms: C_9  and  C_10
REMARK    5  A    between atoms: C_13  and  C_14
REMARK    6  A    between atoms: C_17  and  O_20
REMARK    7  A    between atoms: C_19  and  O_22
REMARK                            x       y       z     vdW  Elec       q    Type
REMARK                         _______ _______ _______ _____ _____    ______ ____
ROOT
ATOM      1  C   UNL     1      23.268  20.671  25.161  0.00  0.00    +0.000 C 
ATOM      2  C   UNL     1      23.008  19.443  26.042  0.00  0.00    +0.000 C 
ENDROOT
BRANCH   2   3
ATOM      3  C   UNL     1      22.765  18.304  26.862  0.00  0.00    +0.000 A 
ATOM      4  C   UNL     1      22.862  17.025  26.317  0.00  0.00    +0.000 A 
ATOM      5  C   UNL     1      22.430  18.472  28.202  0.00  0.00    +0.000 A 
ATOM      6  C   UNL     1      22.626  15.897  27.109  0.00  0.00    +0.000 A 
ATOM      7  C   UNL     1      22.192  17.357  29.002  0.00  0.00    +0.000 A 
ATOM      8  C   UNL     1      22.290  16.079  28.453  0.00  0.00    +0.000 A 
BRANCH   6   9
ATOM      9  O   UNL     1      22.699  14.603  26.654  0.00  0.00    +0.000 OA
ATOM     10  C   UNL     1      23.836  14.292  25.892  0.00  0.00    +0.000 C 
ENDBRANCH   6   9
BRANCH   8  11
ATOM     11  O   UNL     1      22.055  14.989  29.244  0.00  0.00    +0.000 OA
ATOM     12  H   UNL     1      21.370  14.437  28.821  0.00  0.00    +0.000 HD
ENDBRANCH   8  11
ENDBRANCH   2   3
BRANCH   1  14
ATOM     13  O   UNL     1      23.235  21.803  23.145  0.00  0.00    +0.000 OA
ATOM     14  C   UNL     1      23.511  21.827  24.335  0.00  0.00    +0.000 C 
ATOM     15  C   UNL     1      24.081  23.008  24.921  0.00  0.00    +0.000 C 
ATOM     16  C   UNL     1      24.644  24.170  25.492  0.00  0.00    +0.000 C 
BRANCH  16  17
ATOM     17  O   UNL     1      24.691  24.242  26.863  0.00  0.00    +0.000 OA
ATOM     18  H   UNL     1      25.599  24.149  27.200  0.00  0.00    +0.000 HD
ENDBRANCH  16  17
BRANCH  16  19
ATOM     19  C   UNL     1      25.157  25.249  24.731  0.00  0.00    +0.000 C 
ATOM     20  C   UNL     1      25.721  26.411  23.907  0.00  0.00    +0.000 C 
BRANCH  20  21
ATOM     21  C   UNL     1      26.290  27.570  23.083  0.00  0.00    +0.000 C 
ATOM     22  C   UNL     1      26.859  28.731  22.261  0.00  0.00    +0.000 C 
ATOM     23  C   UNL     1      27.425  29.897  21.443  0.00  0.00    +0.000 C 
ENDBRANCH  20  21
ENDBRANCH  16  19
ENDBRANCH   1  14
TORSDOF 7
ENDMDL
MODEL 7
REMARK VINA RESULT:      -4.6      9.278     13.546
REMARK  Name = 442793_6gingerol.pdbqt.pdb
REMARK  7 active torsions:
REMARK  status: ('A' for Active; 'I' for Inactive)
REMARK    1  A    between atoms: C_1  and  C_3
REMARK    2  A    between atoms: C_5  and  O_6
REMARK    3  A    between atoms: C_5  and  C_8
REMARK    4  A    between atoms: C_9  and  C_10
REMARK    5  A    between atoms: C_13  and  C_14
REMARK    6  A    between atoms: C_17  and  O_20
REMARK    7  A    between atoms: C_19  and  O_22
REMARK                            x       y       z     vdW  Elec       q    Type
REMARK                         _______ _______ _______ _____ _____    ______ ____
ROOT
ATOM      1  C   UNL     1      22.976  14.932  27.981  0.00  0.00    +0.000 C 
ATOM      2  C   UNL     1      23.402  14.015  26.827  0.00  0.00    +0.000 C 
ENDROOT
BRANCH   2   3
ATOM      3  C   UNL     1      23.799  13.164  25.757  0.00  0.00    +0.000 A 
ATOM      4  C   UNL     1      23.359  11.842  25.722  0.00  0.00    +0.000 A 
ATOM      5  C   UNL     1      24.626  13.654  24.751  0.00  0.00    +0.000 A 
ATOM      6  C   UNL     1      23.742  10.994  24.679  0.00  0.00    +0.000 A 
ATOM      7  C   UNL     1      25.015  12.821  23.705  0.00  0.00    +0.000 A 
ATOM      8  C   UNL     1      24.573  11.498  23.675  0.00  0.00    +0.000 A 
BRANCH   6   9
ATOM      9  O   UNL     1      23.356   9.680  24.568  0.00  0.00    +0.000 OA
ATOM     10  C   UNL     1      23.837   8.820  25.566  0.00  0.00    +0.000 C 
ENDBRANCH   6   9
BRANCH   8  11
ATOM     11  O   UNL     1      24.958  10.685  22.645  0.00  0.00    +0.000 OA
ATOM     12  H   UNL     1      24.201  10.127  22.388  0.00  0.00    +0.000 HD
ENDBRANCH   8  11
ENDBRANCH   2   3
BRANCH   1  14
ATOM     13  O   UNL     1      22.871  15.510  30.218  0.00  0.00    +0.000 OA
ATOM     14  C   UNL     1      22.579  15.794  29.066  0.00  0.00    +0.000 C 
ATOM     15  C   UNL     1      21.834  16.989  28.783  0.00  0.00    +0.000 C 
ATOM     16  C   UNL     1      21.100  18.164  28.510  0.00  0.00    +0.000 C 
BRANCH  16  17
ATOM     17  O   UNL     1      21.025  18.573  27.201  0.00  0.00    +0.000 OA
ATOM     18  H   UNL     1      21.877  18.471  26.741  0.00  0.00    +0.000 HD
ENDBRANCH  16  17
BRANCH  16  19
ATOM     19  C   UNL     1      20.446  18.929  29.506  0.00  0.00    +0.000 C 
ATOM     20  C   UNL     1      19.732  19.761  30.577  0.00  0.00    +0.000 C 
BRANCH  20  21
ATOM     21  C   UNL     1      19.016  20.597  31.642  0.00  0.00    +0.000 C 
ATOM     22  C   UNL     1      18.298  21.433  32.707  0.00  0.00    +0.000 C 
ATOM     23  C   UNL     1      17.575  22.270  33.767  0.00  0.00    +0.000 C 
ENDBRANCH  20  21
ENDBRANCH  16  19
ENDBRANCH   1  14
TORSDOF 7
ENDMDL
MODEL 8
REMARK VINA RESULT:      -4.5     12.918     16.814
REMARK  Name = 442793_6gingerol.pdbqt.pdb
REMARK  7 active torsions:
REMARK  status: ('A' for Active; 'I' for Inactive)
REMARK    1  A    between atoms: C_1  and  C_3
REMARK    2  A    between atoms: C_5  and  O_6
REMARK    3  A    between atoms: C_5  and  C_8
REMARK    4  A    between atoms: C_9  and  C_10
REMARK    5  A    between atoms: C_13  and  C_14
REMARK    6  A    between atoms: C_17  and  O_20
REMARK    7  A    between atoms: C_19  and  O_22
REMARK                            x       y       z     vdW  Elec       q    Type
REMARK                         _______ _______ _______ _____ _____    ______ ____
ROOT
ATOM      1  C   UNL     1      23.612  21.544  26.566  0.00  0.00    +0.000 C 
ATOM      2  C   UNL     1      23.745  22.970  26.015  0.00  0.00    +0.000 C 
ENDROOT
BRANCH   2   3
ATOM      3  C   UNL     1      23.872  24.293  25.504  0.00  0.00    +0.000 A 
ATOM      4  C   UNL     1      24.665  24.530  24.383  0.00  0.00    +0.000 A 
ATOM      5  C   UNL     1      23.203  25.344  26.125  0.00  0.00    +0.000 A 
ATOM      6  C   UNL     1      24.800  25.823  23.870  0.00  0.00    +0.000 A 
ATOM      7  C   UNL     1      23.328  26.637  25.624  0.00  0.00    +0.000 A 
ATOM      8  C   UNL     1      24.123  26.870  24.503  0.00  0.00    +0.000 A 
BRANCH   6   9
ATOM      9  O   UNL     1      25.561  26.145  22.772  0.00  0.00    +0.000 OA
ATOM     10  C   UNL     1      25.883  25.076  21.923  0.00  0.00    +0.000 C 
ENDBRANCH   6   9
BRANCH   8  11
ATOM     11  O   UNL     1      24.242  28.142  24.016  0.00  0.00    +0.000 OA
ATOM     12  H   UNL     1      23.381  28.593  24.105  0.00  0.00    +0.000 HD
ENDBRANCH   8  11
ENDBRANCH   2   3
BRANCH   1  14
ATOM     13  O   UNL     1      23.518  20.002  28.287  0.00  0.00    +0.000 OA
ATOM     14  C   UNL     1      23.490  20.204  27.082  0.00  0.00    +0.000 C 
ATOM     15  C   UNL     1      23.337  19.106  26.169  0.00  0.00    +0.000 C 
ATOM     16  C   UNL     1      23.189  18.023  25.275  0.00  0.00    +0.000 C 
BRANCH  16  17
ATOM     17  O   UNL     1      22.902  18.320  23.965  0.00  0.00    +0.000 OA
ATOM     18  H   UNL     1      23.599  18.007  23.362  0.00  0.00    +0.000 HD
ENDBRANCH  16  17
BRANCH  16  19
ATOM     19  C   UNL     1      23.323  16.666  25.658  0.00  0.00    +0.000 C 
ATOM     20  C   UNL     1      23.470  15.201  26.081  0.00  0.00    +0.000 C 
BRANCH  20  21
ATOM     21  C   UNL     1      23.619  13.738  26.510  0.00  0.00    +0.000 C 
ATOM     22  C   UNL     1      23.771  12.275  26.939  0.00  0.00    +0.000 C 
ATOM     23  C   UNL     1      23.929  10.814  27.371  0.00  0.00    +0.000 C 
ENDBRANCH  20  21
ENDBRANCH  16  19
ENDBRANCH   1  14
TORSDOF 7
ENDMDL
MODEL 9
REMARK VINA RESULT:      -4.5     12.186     19.104
REMARK  Name = 442793_6gingerol.pdbqt.pdb
REMARK  7 active torsions:
REMARK  status: ('A' for Active; 'I' for Inactive)
REMARK    1  A    between atoms: C_1  and  C_3
REMARK    2  A    between atoms: C_5  and  O_6
REMARK    3  A    between atoms: C_5  and  C_8
REMARK    4  A    between atoms: C_9  and  C_10
REMARK    5  A    between atoms: C_13  and  C_14
REMARK    6  A    between atoms: C_17  and  O_20
REMARK    7  A    between atoms: C_19  and  O_22
REMARK                            x       y       z     vdW  Elec       q    Type
REMARK                         _______ _______ _______ _____ _____    ______ ____
ROOT
ATOM      1  C   UNL     1      24.881  13.974  25.345  0.00  0.00    +0.000 C 
ATOM      2  C   UNL     1      23.966  15.044  25.955  0.00  0.00    +0.000 C 
ENDROOT
BRANCH   2   3
ATOM      3  C   UNL     1      23.116  16.037  26.519  0.00  0.00    +0.000 A 
ATOM      4  C   UNL     1      22.629  15.878  27.816  0.00  0.00    +0.000 A 
ATOM      5  C   UNL     1      22.773  17.162  25.775  0.00  0.00    +0.000 A 
ATOM      6  C   UNL     1      21.793  16.844  28.383  0.00  0.00    +0.000 A 
ATOM      7  C   UNL     1      21.941  18.132  26.328  0.00  0.00    +0.000 A 
ATOM      8  C   UNL     1      21.456  17.969  27.625  0.00  0.00    +0.000 A 
BRANCH   6   9
ATOM      9  O   UNL     1      21.269  16.767  29.650  0.00  0.00    +0.000 OA
ATOM     10  C   UNL     1      22.205  16.787  30.695  0.00  0.00    +0.000 C 
ENDBRANCH   6   9
BRANCH   8  11
ATOM     11  O   UNL     1      20.639  18.926  28.162  0.00  0.00    +0.000 OA
ATOM     12  H   UNL     1      20.226  19.427  27.435  0.00  0.00    +0.000 HD
ENDBRANCH   8  11
ENDBRANCH   2   3
BRANCH   1  14
ATOM     13  O   UNL     1      26.911  13.221  24.534  0.00  0.00    +0.000 OA
ATOM     14  C   UNL     1      25.738  12.970  24.768  0.00  0.00    +0.000 C 
ATOM     15  C   UNL     1      25.203  11.671  24.469  0.00  0.00    +0.000 C 
ATOM     16  C   UNL     1      24.682  10.393  24.170  0.00  0.00    +0.000 C 
BRANCH  16  17
ATOM     17  O   UNL     1      23.448  10.078  24.687  0.00  0.00    +0.000 OA
ATOM     18  H   UNL     1      23.496   9.871  25.636  0.00  0.00    +0.000 HD
ENDBRANCH  16  17
BRANCH  16  19
ATOM     19  C   UNL     1      25.357   9.436  23.375  0.00  0.00    +0.000 C 
ATOM     20  C   UNL     1      26.096   8.407  22.512  0.00  0.00    +0.000 C 
BRANCH  20  21
ATOM     21  C   UNL     1      26.838   7.383  21.648  0.00  0.00    +0.000 C 
ATOM     22  C   UNL     1      27.581   6.358  20.785  0.00  0.00    +0.000 C 
ATOM     23  C   UNL     1      28.325   5.329  19.928  0.00  0.00    +0.000 C 
ENDBRANCH  20  21
ENDBRANCH  16  19
ENDBRANCH   1  14
TORSDOF 7
ENDMDL
