MODEL 1
REMARK VINA RESULT:      -6.9      0.000      0.000
REMARK  Name = 44423609_SipholenoneA.pdbqt.pdb
REMARK  4 active torsions:
REMARK  status: ('A' for Active; 'I' for Inactive)
REMARK    1  A    between atoms: C_3  and  C_19
REMARK    2  A    between atoms: C_5  and  O_17
REMARK    3  A    between atoms: C_20  and  C_24
REMARK    4  A    between atoms: C_25  and  O_35
REMARK                            x       y       z     vdW  Elec       q    Type
REMARK                         _______ _______ _______ _____ _____    ______ ____
ROOT
ATOM      1  O   UNL     1       7.512   6.014  29.082  0.00  0.00    +0.000 OA
ATOM      2  O   UNL     1       9.903   5.037  31.733  0.00  0.00    +0.000 OA
ATOM      3  C   UNL     1       6.849   9.873  29.615  0.00  0.00    +0.000 C 
ATOM      4  C   UNL     1       7.632   8.607  29.272  0.00  0.00    +0.000 C 
ATOM      5  C   UNL     1       5.393  10.005  29.203  0.00  0.00    +0.000 C 
ATOM      6  C   UNL     1       6.840   7.235  29.205  0.00  0.00    +0.000 C 
ATOM      7  C   UNL     1       4.883   8.693  28.851  0.00  0.00    +0.000 C 
ATOM      8  C   UNL     1       5.485   7.328  28.832  0.00  0.00    +0.000 C 
ATOM      9  C   UNL     1       8.621   8.307  30.321  0.00  0.00    +0.000 C 
ATOM     10  C   UNL     1       8.361   8.801  27.912  0.00  0.00    +0.000 C 
ATOM     11  C   UNL     1       4.564  10.650  30.319  0.00  0.00    +0.000 C 
ATOM     12  C   UNL     1       9.238   7.127  31.042  0.00  0.00    +0.000 C 
ATOM     13  C   UNL     1       7.792   5.208  30.276  0.00  0.00    +0.000 C 
ATOM     14  C   UNL     1       9.094   5.691  31.086  0.00  0.00    +0.000 C 
ATOM     15  C   UNL     1       8.006   3.757  29.735  0.00  0.00    +0.000 C 
ATOM     16  C   UNL     1       6.552   5.213  31.245  0.00  0.00    +0.000 C 
ENDROOT
BRANCH   5  17
ATOM     17  O   UNL     1       5.289  10.867  28.099  0.00  0.00    +0.000 OA
ATOM     18  H   UNL     1       4.815  10.302  27.462  0.00  0.00    +0.000 HD
ENDBRANCH   5  17
BRANCH   3  19
ATOM     19  C   UNL     1       7.560  11.032  30.092  0.00  0.00    +0.000 C 
ATOM     20  C   UNL     1       8.315  12.267  30.588  0.00  0.00    +0.000 C 
BRANCH  20  24
ATOM     21  C   UNL     1      11.632  13.706  30.905  0.00  0.00    +0.000 C 
ATOM     22  C   UNL     1      10.400  13.318  31.760  0.00  0.00    +0.000 C 
ATOM     23  C   UNL     1      11.923  15.078  30.354  0.00  0.00    +0.000 C 
ATOM     24  C   UNL     1       9.030  13.424  31.046  0.00  0.00    +0.000 C 
ATOM     25  C   UNL     1      13.249  15.117  29.592  0.00  0.00    +0.000 C 
ATOM     26  C   UNL     1      12.734  12.880  30.540  0.00  0.00    +0.000 C 
ATOM     27  C   UNL     1      13.694  13.740  29.767  0.00  0.00    +0.000 C 
ATOM     28  C   UNL     1      10.788  15.890  30.147  0.00  0.00    +0.000 C 
ATOM     29  C   UNL     1       8.473  14.742  30.736  0.00  0.00    +0.000 C 
ATOM     30  C   UNL     1      10.603  11.834  32.254  0.00  0.00    +0.000 C 
ATOM     31  C   UNL     1      10.395  14.204  33.051  0.00  0.00    +0.000 C 
ATOM     32  C   UNL     1       9.317  15.649  30.357  0.00  0.00    +0.000 C 
ATOM     33  C   UNL     1      14.180  16.195  30.121  0.00  0.00    +0.000 C 
ATOM     34  C   UNL     1       7.021  14.985  30.415  0.00  0.00    +0.000 C 
BRANCH  25  35
ATOM     35  O   UNL     1      13.027  15.393  28.231  0.00  0.00    +0.000 OA
ATOM     36  H   UNL     1      13.786  15.969  28.036  0.00  0.00    +0.000 HD
ENDBRANCH  25  35
ENDBRANCH  20  24
ENDBRANCH   3  19
TORSDOF 4
ENDMDL
MODEL 2
REMARK VINA RESULT:      -6.2     14.412     18.427
REMARK  Name = 44423609_SipholenoneA.pdbqt.pdb
REMARK  4 active torsions:
REMARK  status: ('A' for Active; 'I' for Inactive)
REMARK    1  A    between atoms: C_3  and  C_19
REMARK    2  A    between atoms: C_5  and  O_17
REMARK    3  A    between atoms: C_20  and  C_24
REMARK    4  A    between atoms: C_25  and  O_35
REMARK                            x       y       z     vdW  Elec       q    Type
REMARK                         _______ _______ _______ _____ _____    ______ ____
ROOT
ATOM      1  O   UNL     1      24.462  13.215  27.542  0.00  0.00    +0.000 OA
ATOM      2  O   UNL     1      26.352  12.315  30.594  0.00  0.00    +0.000 OA
ATOM      3  C   UNL     1      24.695  10.060  25.174  0.00  0.00    +0.000 C 
ATOM      4  C   UNL     1      24.287  10.887  26.392  0.00  0.00    +0.000 C 
ATOM      5  C   UNL     1      24.737  10.699  23.796  0.00  0.00    +0.000 C 
ATOM      6  C   UNL     1      24.635  12.434  26.394  0.00  0.00    +0.000 C 
ATOM      7  C   UNL     1      24.721  12.142  23.947  0.00  0.00    +0.000 C 
ATOM      8  C   UNL     1      24.686  13.051  25.129  0.00  0.00    +0.000 C 
ATOM      9  C   UNL     1      25.011  10.437  27.592  0.00  0.00    +0.000 C 
ATOM     10  C   UNL     1      22.757  10.744  26.626  0.00  0.00    +0.000 C 
ATOM     11  C   UNL     1      25.965  10.228  23.011  0.00  0.00    +0.000 C 
ATOM     12  C   UNL     1      25.647  10.992  28.849  0.00  0.00    +0.000 C 
ATOM     13  C   UNL     1      25.602  13.478  28.427  0.00  0.00    +0.000 C 
ATOM     14  C   UNL     1      25.909  12.277  29.453  0.00  0.00    +0.000 C 
ATOM     15  C   UNL     1      25.204  14.767  29.217  0.00  0.00    +0.000 C 
ATOM     16  C   UNL     1      26.896  13.777  27.583  0.00  0.00    +0.000 C 
ENDROOT
BRANCH   5  17
ATOM     17  O   UNL     1      23.620  10.287  23.049  0.00  0.00    +0.000 OA
ATOM     18  H   UNL     1      22.894  10.493  23.665  0.00  0.00    +0.000 HD
ENDBRANCH   5  17
BRANCH   3  19
ATOM     19  C   UNL     1      24.787   8.627  25.296  0.00  0.00    +0.000 C 
ATOM     20  C   UNL     1      24.896   7.106  25.422  0.00  0.00    +0.000 C 
BRANCH  20  24
ATOM     21  C   UNL     1      23.015   4.092  26.163  0.00  0.00    +0.000 C 
ATOM     22  C   UNL     1      24.265   4.878  26.631  0.00  0.00    +0.000 C 
ATOM     23  C   UNL     1      23.013   2.937  25.195  0.00  0.00    +0.000 C 
ATOM     24  C   UNL     1      25.002   5.679  25.530  0.00  0.00    +0.000 C 
ATOM     25  C   UNL     1      21.609   2.366  24.991  0.00  0.00    +0.000 C 
ATOM     26  C   UNL     1      21.668   4.259  26.597  0.00  0.00    +0.000 C 
ATOM     27  C   UNL     1      20.845   3.215  25.896  0.00  0.00    +0.000 C 
ATOM     28  C   UNL     1      24.088   2.925  24.281  0.00  0.00    +0.000 C 
ATOM     29  C   UNL     1      25.762   4.968  24.500  0.00  0.00    +0.000 C 
ATOM     30  C   UNL     1      23.814   5.873  27.768  0.00  0.00    +0.000 C 
ATOM     31  C   UNL     1      25.257   3.872  27.309  0.00  0.00    +0.000 C 
ATOM     32  C   UNL     1      25.248   3.860  24.067  0.00  0.00    +0.000 C 
ATOM     33  C   UNL     1      21.554   0.873  25.266  0.00  0.00    +0.000 C 
ATOM     34  C   UNL     1      26.814   5.614  23.636  0.00  0.00    +0.000 C 
BRANCH  25  35
ATOM     35  O   UNL     1      21.187   2.559  23.663  0.00  0.00    +0.000 OA
ATOM     36  H   UNL     1      21.271   3.525  23.586  0.00  0.00    +0.000 HD
ENDBRANCH  25  35
ENDBRANCH  20  24
ENDBRANCH   3  19
TORSDOF 4
ENDMDL
MODEL 3
REMARK VINA RESULT:      -6.1     27.270     30.313
REMARK  Name = 44423609_SipholenoneA.pdbqt.pdb
REMARK  4 active torsions:
REMARK  status: ('A' for Active; 'I' for Inactive)
REMARK    1  A    between atoms: C_3  and  C_19
REMARK    2  A    between atoms: C_5  and  O_17
REMARK    3  A    between atoms: C_20  and  C_24
REMARK    4  A    between atoms: C_25  and  O_35
REMARK                            x       y       z     vdW  Elec       q    Type
REMARK                         _______ _______ _______ _____ _____    ______ ____
ROOT
ATOM      1  O   UNL     1      25.456  14.092   3.112  0.00  0.00    +0.000 OA
ATOM      2  O   UNL     1      24.949  17.337   4.816  0.00  0.00    +0.000 OA
ATOM      3  C   UNL     1      21.883  12.414   2.929  0.00  0.00    +0.000 C 
ATOM      4  C   UNL     1      22.988  13.424   2.625  0.00  0.00    +0.000 C 
ATOM      5  C   UNL     1      22.216  10.939   3.079  0.00  0.00    +0.000 C 
ATOM      6  C   UNL     1      24.441  13.131   3.188  0.00  0.00    +0.000 C 
ATOM      7  C   UNL     1      23.648  10.798   3.265  0.00  0.00    +0.000 C 
ATOM      8  C   UNL     1      24.776  11.771   3.343  0.00  0.00    +0.000 C 
ATOM      9  C   UNL     1      22.698  14.719   3.263  0.00  0.00    +0.000 C 
ATOM     10  C   UNL     1      23.105  13.618   1.087  0.00  0.00    +0.000 C 
ATOM     11  C   UNL     1      21.433  10.315   4.238  0.00  0.00    +0.000 C 
ATOM     12  C   UNL     1      23.406  15.865   3.954  0.00  0.00    +0.000 C 
ATOM     13  C   UNL     1      25.737  14.953   4.266  0.00  0.00    +0.000 C 
ATOM     14  C   UNL     1      24.740  16.209   4.388  0.00  0.00    +0.000 C 
ATOM     15  C   UNL     1      27.202  15.452   4.043  0.00  0.00    +0.000 C 
ATOM     16  C   UNL     1      25.679  14.121   5.601  0.00  0.00    +0.000 C 
ENDROOT
BRANCH   5  17
ATOM     17  O   UNL     1      21.816  10.244   1.925  0.00  0.00    +0.000 OA
ATOM     18  H   UNL     1      21.937   9.320   2.210  0.00  0.00    +0.000 HD
ENDBRANCH   5  17
BRANCH   3  19
ATOM     19  C   UNL     1      20.506  12.823   2.816  0.00  0.00    +0.000 C 
ATOM     20  C   UNL     1      19.040  13.246   2.701  0.00  0.00    +0.000 C 
BRANCH  20  24
ATOM     21  C   UNL     1      15.651  11.956   2.529  0.00  0.00    +0.000 C 
ATOM     22  C   UNL     1      16.647  12.838   1.735  0.00  0.00    +0.000 C 
ATOM     23  C   UNL     1      14.595  12.460   3.479  0.00  0.00    +0.000 C 
ATOM     24  C   UNL     1      17.663  13.635   2.589  0.00  0.00    +0.000 C 
ATOM     25  C   UNL     1      13.757  11.318   4.058  0.00  0.00    +0.000 C 
ATOM     26  C   UNL     1      15.500  10.541   2.467  0.00  0.00    +0.000 C 
ATOM     27  C   UNL     1      14.359  10.178   3.376  0.00  0.00    +0.000 C 
ATOM     28  C   UNL     1      14.876  13.707   4.074  0.00  0.00    +0.000 C 
ATOM     29  C   UNL     1      17.204  14.773   3.388  0.00  0.00    +0.000 C 
ATOM     30  C   UNL     1      17.440  11.900   0.745  0.00  0.00    +0.000 C 
ATOM     31  C   UNL     1      15.827  13.820   0.832  0.00  0.00    +0.000 C 
ATOM     32  C   UNL     1      16.047  14.646   3.958  0.00  0.00    +0.000 C 
ATOM     33  C   UNL     1      12.271  11.528   3.828  0.00  0.00    +0.000 C 
ATOM     34  C   UNL     1      18.118  15.840   3.932  0.00  0.00    +0.000 C 
BRANCH  25  35
ATOM     35  O   UNL     1      13.953  11.219   5.447  0.00  0.00    +0.000 OA
ATOM     36  H   UNL     1      13.667  10.302   5.605  0.00  0.00    +0.000 HD
ENDBRANCH  25  35
ENDBRANCH  20  24
ENDBRANCH   3  19
TORSDOF 4
ENDMDL
MODEL 4
REMARK VINA RESULT:      -5.8     18.396     22.010
REMARK  Name = 44423609_SipholenoneA.pdbqt.pdb
REMARK  4 active torsions:
REMARK  status: ('A' for Active; 'I' for Inactive)
REMARK    1  A    between atoms: C_3  and  C_19
REMARK    2  A    between atoms: C_5  and  O_17
REMARK    3  A    between atoms: C_20  and  C_24
REMARK    4  A    between atoms: C_25  and  O_35
REMARK                            x       y       z     vdW  Elec       q    Type
REMARK                         _______ _______ _______ _____ _____    ______ ____
ROOT
ATOM      1  O   UNL     1      13.073  -5.332  19.955  0.00  0.00    +0.000 OA
ATOM      2  O   UNL     1      14.003  -2.614  22.288  0.00  0.00    +0.000 OA
ATOM      3  C   UNL     1      15.162  -4.676  16.666  0.00  0.00    +0.000 C 
ATOM      4  C   UNL     1      14.901  -5.033  18.129  0.00  0.00    +0.000 C 
ATOM      5  C   UNL     1      14.206  -5.150  15.584  0.00  0.00    +0.000 C 
ATOM      6  C   UNL     1      13.397  -5.191  18.601  0.00  0.00    +0.000 C 
ATOM      7  C   UNL     1      12.967  -5.578  16.204  0.00  0.00    +0.000 C 
ATOM      8  C   UNL     1      12.487  -5.624  17.616  0.00  0.00    +0.000 C 
ATOM      9  C   UNL     1      15.360  -3.951  19.017  0.00  0.00    +0.000 C 
ATOM     10  C   UNL     1      15.652  -6.347  18.483  0.00  0.00    +0.000 C 
ATOM     11  C   UNL     1      13.965  -4.049  14.545  0.00  0.00    +0.000 C 
ATOM     12  C   UNL     1      14.971  -3.250  20.301  0.00  0.00    +0.000 C 
ATOM     13  C   UNL     1      12.659  -4.160  20.735  0.00  0.00    +0.000 C 
ATOM     14  C   UNL     1      13.892  -3.270  21.260  0.00  0.00    +0.000 C 
ATOM     15  C   UNL     1      11.868  -4.748  21.949  0.00  0.00    +0.000 C 
ATOM     16  C   UNL     1      11.692  -3.250  19.890  0.00  0.00    +0.000 C 
ENDROOT
BRANCH   5  17
ATOM     17  O   UNL     1      14.781  -6.222  14.881  0.00  0.00    +0.000 OA
ATOM     18  H   UNL     1      15.469  -6.512  15.508  0.00  0.00    +0.000 HD
ENDBRANCH   5  17
BRANCH   3  19
ATOM     19  C   UNL     1      16.437  -4.120  16.294  0.00  0.00    +0.000 C 
ATOM     20  C   UNL     1      17.787  -3.522  15.888  0.00  0.00    +0.000 C 
BRANCH  20  24
ATOM     21  C   UNL     1      19.968  -2.952  13.044  0.00  0.00    +0.000 C 
ATOM     22  C   UNL     1      19.954  -3.636  14.434  0.00  0.00    +0.000 C 
ATOM     23  C   UNL     1      20.491  -1.570  12.750  0.00  0.00    +0.000 C 
ATOM     24  C   UNL     1      19.052  -2.968  15.499  0.00  0.00    +0.000 C 
ATOM     25  C   UNL     1      20.393  -1.228  11.262  0.00  0.00    +0.000 C 
ATOM     26  C   UNL     1      19.564  -3.507  11.796  0.00  0.00    +0.000 C 
ATOM     27  C   UNL     1      19.834  -2.470  10.743  0.00  0.00    +0.000 C 
ATOM     28  C   UNL     1      20.460  -0.677  13.841  0.00  0.00    +0.000 C 
ATOM     29  C   UNL     1      19.440  -1.678  16.074  0.00  0.00    +0.000 C 
ATOM     30  C   UNL     1      19.484  -5.129  14.234  0.00  0.00    +0.000 C 
ATOM     31  C   UNL     1      21.427  -3.717  14.961  0.00  0.00    +0.000 C 
ATOM     32  C   UNL     1      19.988  -0.828  15.263  0.00  0.00    +0.000 C 
ATOM     33  C   UNL     1      21.732  -0.803  10.684  0.00  0.00    +0.000 C 
ATOM     34  C   UNL     1      18.880  -1.128  17.360  0.00  0.00    +0.000 C 
BRANCH  25  35
ATOM     35  O   UNL     1      19.496  -0.163  11.060  0.00  0.00    +0.000 OA
ATOM     36  H   UNL     1      20.075   0.598  11.242  0.00  0.00    +0.000 HD
ENDBRANCH  25  35
ENDBRANCH  20  24
ENDBRANCH   3  19
TORSDOF 4
ENDMDL
MODEL 5
REMARK VINA RESULT:      -5.7      9.220     11.436
REMARK  Name = 44423609_SipholenoneA.pdbqt.pdb
REMARK  4 active torsions:
REMARK  status: ('A' for Active; 'I' for Inactive)
REMARK    1  A    between atoms: C_3  and  C_19
REMARK    2  A    between atoms: C_5  and  O_17
REMARK    3  A    between atoms: C_20  and  C_24
REMARK    4  A    between atoms: C_25  and  O_35
REMARK                            x       y       z     vdW  Elec       q    Type
REMARK                         _______ _______ _______ _____ _____    ______ ____
ROOT
ATOM      1  O   UNL     1       6.593   1.003  27.879  0.00  0.00    +0.000 OA
ATOM      2  O   UNL     1       3.799  -0.341  29.901  0.00  0.00    +0.000 OA
ATOM      3  C   UNL     1       4.902   2.991  24.913  0.00  0.00    +0.000 C 
ATOM      4  C   UNL     1       5.308   2.671  26.350  0.00  0.00    +0.000 C 
ATOM      5  C   UNL     1       5.876   2.749  23.772  0.00  0.00    +0.000 C 
ATOM      6  C   UNL     1       6.319   1.474  26.590  0.00  0.00    +0.000 C 
ATOM      7  C   UNL     1       6.942   1.884  24.240  0.00  0.00    +0.000 C 
ATOM      8  C   UNL     1       7.230   1.223  25.546  0.00  0.00    +0.000 C 
ATOM      9  C   UNL     1       4.146   2.215  27.130  0.00  0.00    +0.000 C 
ATOM     10  C   UNL     1       5.911   3.942  27.014  0.00  0.00    +0.000 C 
ATOM     11  C   UNL     1       5.159   2.153  22.556  0.00  0.00    +0.000 C 
ATOM     12  C   UNL     1       3.783   1.223  28.215  0.00  0.00    +0.000 C 
ATOM     13  C   UNL     1       5.878  -0.169  28.398  0.00  0.00    +0.000 C 
ATOM     14  C   UNL     1       4.418   0.174  28.978  0.00  0.00    +0.000 C 
ATOM     15  C   UNL     1       6.792  -0.719  29.541  0.00  0.00    +0.000 C 
ATOM     16  C   UNL     1       5.741  -1.269  27.281  0.00  0.00    +0.000 C 
ENDROOT
BRANCH   5  17
ATOM     17  O   UNL     1       6.413   3.974  23.340  0.00  0.00    +0.000 OA
ATOM     18  H   UNL     1       5.938   4.601  23.914  0.00  0.00    +0.000 HD
ENDBRANCH   5  17
BRANCH   3  19
ATOM     19  C   UNL     1       3.705   3.757  24.674  0.00  0.00    +0.000 C 
ATOM     20  C   UNL     1       2.440   4.580  24.416  0.00  0.00    +0.000 C 
BRANCH  20  24
ATOM     21  C   UNL     1       1.186   7.979  24.191  0.00  0.00    +0.000 C 
ATOM     22  C   UNL     1       0.955   6.658  24.967  0.00  0.00    +0.000 C 
ATOM     23  C   UNL     1       0.421   8.429  22.974  0.00  0.00    +0.000 C 
ATOM     24  C   UNL     1       1.259   5.359  24.181  0.00  0.00    +0.000 C 
ATOM     25  C   UNL     1       0.879   9.806  22.489  0.00  0.00    +0.000 C 
ATOM     26  C   UNL     1       2.097   9.027  24.509  0.00  0.00    +0.000 C 
ATOM     27  C   UNL     1       1.893  10.113  23.490  0.00  0.00    +0.000 C 
ATOM     28  C   UNL     1      -0.138   7.388  22.204  0.00  0.00    +0.000 C 
ATOM     29  C   UNL     1       0.370   4.944  23.094  0.00  0.00    +0.000 C 
ATOM     30  C   UNL     1       1.858   6.692  26.260  0.00  0.00    +0.000 C 
ATOM     31  C   UNL     1      -0.525   6.635  25.477  0.00  0.00    +0.000 C 
ATOM     32  C   UNL     1      -0.110   5.890  22.350  0.00  0.00    +0.000 C 
ATOM     33  C   UNL     1      -0.276  10.787  22.381  0.00  0.00    +0.000 C 
ATOM     34  C   UNL     1       0.326   3.547  22.531  0.00  0.00    +0.000 C 
BRANCH  25  35
ATOM     35  O   UNL     1       1.463   9.709  21.213  0.00  0.00    +0.000 OA
ATOM     36  H   UNL     1       2.406   9.678  21.448  0.00  0.00    +0.000 HD
ENDBRANCH  25  35
ENDBRANCH  20  24
ENDBRANCH   3  19
TORSDOF 4
ENDMDL
MODEL 6
REMARK VINA RESULT:      -5.6     21.819     25.109
REMARK  Name = 44423609_SipholenoneA.pdbqt.pdb
REMARK  4 active torsions:
REMARK  status: ('A' for Active; 'I' for Inactive)
REMARK    1  A    between atoms: C_3  and  C_19
REMARK    2  A    between atoms: C_5  and  O_17
REMARK    3  A    between atoms: C_20  and  C_24
REMARK    4  A    between atoms: C_25  and  O_35
REMARK                            x       y       z     vdW  Elec       q    Type
REMARK                         _______ _______ _______ _____ _____    ______ ____
ROOT
ATOM      1  O   UNL     1      29.533   1.328  14.995  0.00  0.00    +0.000 OA
ATOM      2  O   UNL     1      28.715  -0.448  11.854  0.00  0.00    +0.000 OA
ATOM      3  C   UNL     1      26.214   1.286  17.139  0.00  0.00    +0.000 C 
ATOM      4  C   UNL     1      27.449   0.728  16.433  0.00  0.00    +0.000 C 
ATOM      5  C   UNL     1      26.286   2.620  17.863  0.00  0.00    +0.000 C 
ATOM      6  C   UNL     1      28.482   1.758  15.814  0.00  0.00    +0.000 C 
ATOM      7  C   UNL     1      27.477   3.325  17.430  0.00  0.00    +0.000 C 
ATOM      8  C   UNL     1      28.566   3.006  16.461  0.00  0.00    +0.000 C 
ATOM      9  C   UNL     1      27.061  -0.033  15.234  0.00  0.00    +0.000 C 
ATOM     10  C   UNL     1      28.228  -0.200  17.407  0.00  0.00    +0.000 C 
ATOM     11  C   UNL     1      25.020   3.447  17.614  0.00  0.00    +0.000 C 
ATOM     12  C   UNL     1      27.531  -0.305  13.821  0.00  0.00    +0.000 C 
ATOM     13  C   UNL     1      29.391   1.374  13.536  0.00  0.00    +0.000 C 
ATOM     14  C   UNL     1      28.584   0.122  12.929  0.00  0.00    +0.000 C 
ATOM     15  C   UNL     1      30.857   1.379  12.993  0.00  0.00    +0.000 C 
ATOM     16  C   UNL     1      28.680   2.707  13.094  0.00  0.00    +0.000 C 
ENDROOT
BRANCH   5  17
ATOM     17  O   UNL     1      26.339   2.404  19.250  0.00  0.00    +0.000 OA
ATOM     18  H   UNL     1      26.637   1.477  19.286  0.00  0.00    +0.000 HD
ENDBRANCH   5  17
BRANCH   3  19
ATOM     19  C   UNL     1      25.071   0.432  17.337  0.00  0.00    +0.000 C 
ATOM     20  C   UNL     1      23.852  -0.472  17.535  0.00  0.00    +0.000 C 
BRANCH  20  24
ATOM     21  C   UNL     1      20.404  -0.961  16.511  0.00  0.00    +0.000 C 
ATOM     22  C   UNL     1      21.265  -0.741  17.780  0.00  0.00    +0.000 C 
ATOM     23  C   UNL     1      19.950  -2.295  15.977  0.00  0.00    +0.000 C 
ATOM     24  C   UNL     1      22.703  -1.312  17.720  0.00  0.00    +0.000 C 
ATOM     25  C   UNL     1      19.076  -2.142  14.730  0.00  0.00    +0.000 C 
ATOM     26  C   UNL     1      19.833   0.032  15.664  0.00  0.00    +0.000 C 
ATOM     27  C   UNL     1      19.036  -0.689  14.614  0.00  0.00    +0.000 C 
ATOM     28  C   UNL     1      20.774  -3.385  16.321  0.00  0.00    +0.000 C 
ATOM     29  C   UNL     1      22.911  -2.760  17.759  0.00  0.00    +0.000 C 
ATOM     30  C   UNL     1      21.344   0.811  18.049  0.00  0.00    +0.000 C 
ATOM     31  C   UNL     1      20.503  -1.350  19.006  0.00  0.00    +0.000 C 
ATOM     32  C   UNL     1      22.048  -3.484  17.117  0.00  0.00    +0.000 C 
ATOM     33  C   UNL     1      17.735  -2.839  14.883  0.00  0.00    +0.000 C 
ATOM     34  C   UNL     1      24.228  -3.411  18.096  0.00  0.00    +0.000 C 
BRANCH  25  35
ATOM     35  O   UNL     1      19.713  -2.707  13.611  0.00  0.00    +0.000 OA
ATOM     36  H   UNL     1      19.366  -3.615  13.645  0.00  0.00    +0.000 HD
ENDBRANCH  25  35
ENDBRANCH  20  24
ENDBRANCH   3  19
TORSDOF 4
ENDMDL
MODEL 7
REMARK VINA RESULT:      -5.4     15.820     20.307
REMARK  Name = 44423609_SipholenoneA.pdbqt.pdb
REMARK  4 active torsions:
REMARK  status: ('A' for Active; 'I' for Inactive)
REMARK    1  A    between atoms: C_3  and  C_19
REMARK    2  A    between atoms: C_5  and  O_17
REMARK    3  A    between atoms: C_20  and  C_24
REMARK    4  A    between atoms: C_25  and  O_35
REMARK                            x       y       z     vdW  Elec       q    Type
REMARK                         _______ _______ _______ _____ _____    ______ ____
ROOT
ATOM      1  O   UNL     1      23.469  11.832  27.236  0.00  0.00    +0.000 OA
ATOM      2  O   UNL     1      25.104  10.658  30.341  0.00  0.00    +0.000 OA
ATOM      3  C   UNL     1      25.822  10.663  24.285  0.00  0.00    +0.000 C 
ATOM      4  C   UNL     1      24.849  10.531  25.455  0.00  0.00    +0.000 C 
ATOM      5  C   UNL     1      25.661  11.795  23.283  0.00  0.00    +0.000 C 
ATOM      6  C   UNL     1      24.218  11.855  26.054  0.00  0.00    +0.000 C 
ATOM      7  C   UNL     1      24.781  12.800  23.847  0.00  0.00    +0.000 C 
ATOM      8  C   UNL     1      24.062  12.923  25.148  0.00  0.00    +0.000 C 
ATOM      9  C   UNL     1      25.534   9.988  26.640  0.00  0.00    +0.000 C 
ATOM     10  C   UNL     1      23.681   9.586  25.053  0.00  0.00    +0.000 C 
ATOM     11  C   UNL     1      27.022  12.387  22.902  0.00  0.00    +0.000 C 
ATOM     12  C   UNL     1      25.550  10.130  28.147  0.00  0.00    +0.000 C 
ATOM     13  C   UNL     1      24.107  12.167  28.514  0.00  0.00    +0.000 C 
ATOM     14  C   UNL     1      24.924  10.943  29.164  0.00  0.00    +0.000 C 
ATOM     15  C   UNL     1      22.927  12.581  29.452  0.00  0.00    +0.000 C 
ATOM     16  C   UNL     1      25.076  13.395  28.340  0.00  0.00    +0.000 C 
ENDROOT
BRANCH   5  17
ATOM     17  O   UNL     1      25.111  11.296  22.090  0.00  0.00    +0.000 OA
ATOM     18  H   UNL     1      25.071  12.105  21.548  0.00  0.00    +0.000 HD
ENDBRANCH   5  17
BRANCH   3  19
ATOM     19  C   UNL     1      26.722   9.577  23.990  0.00  0.00    +0.000 C 
ATOM     20  C   UNL     1      27.687   8.430  23.682  0.00  0.00    +0.000 C 
BRANCH  20  24
ATOM     21  C   UNL     1      27.944   5.178  22.091  0.00  0.00    +0.000 C 
ATOM     22  C   UNL     1      28.173   5.873  23.456  0.00  0.00    +0.000 C 
ATOM     23  C   UNL     1      29.000   4.922  21.046  0.00  0.00    +0.000 C 
ATOM     24  C   UNL     1      28.597   7.360  23.387  0.00  0.00    +0.000 C 
ATOM     25  C   UNL     1      28.436   4.174  19.837  0.00  0.00    +0.000 C 
ATOM     26  C   UNL     1      26.738   4.600  21.599  0.00  0.00    +0.000 C 
ATOM     27  C   UNL     1      27.052   3.996  20.259  0.00  0.00    +0.000 C 
ATOM     28  C   UNL     1      30.092   5.814  21.073  0.00  0.00    +0.000 C 
ATOM     29  C   UNL     1      29.938   7.712  22.917  0.00  0.00    +0.000 C 
ATOM     30  C   UNL     1      26.836   5.763  24.285  0.00  0.00    +0.000 C 
ATOM     31  C   UNL     1      29.242   5.054  24.256  0.00  0.00    +0.000 C 
ATOM     32  C   UNL     1      30.412   7.001  21.943  0.00  0.00    +0.000 C 
ATOM     33  C   UNL     1      29.213   2.903  19.538  0.00  0.00    +0.000 C 
ATOM     34  C   UNL     1      30.593   9.046  23.167  0.00  0.00    +0.000 C 
BRANCH  25  35
ATOM     35  O   UNL     1      28.499   4.980  18.686  0.00  0.00    +0.000 OA
ATOM     36  H   UNL     1      28.482   5.867  19.085  0.00  0.00    +0.000 HD
ENDBRANCH  25  35
ENDBRANCH  20  24
ENDBRANCH   3  19
TORSDOF 4
ENDMDL
MODEL 8
REMARK VINA RESULT:      -5.3     17.806     21.314
REMARK  Name = 44423609_SipholenoneA.pdbqt.pdb
REMARK  4 active torsions:
REMARK  status: ('A' for Active; 'I' for Inactive)
REMARK    1  A    between atoms: C_3  and  C_19
REMARK    2  A    between atoms: C_5  and  O_17
REMARK    3  A    between atoms: C_20  and  C_24
REMARK    4  A    between atoms: C_25  and  O_35
REMARK                            x       y       z     vdW  Elec       q    Type
REMARK                         _______ _______ _______ _____ _____    ______ ____
ROOT
ATOM      1  O   UNL     1      13.441  -5.281  19.907  0.00  0.00    +0.000 OA
ATOM      2  O   UNL     1      13.918  -2.491  22.290  0.00  0.00    +0.000 OA
ATOM      3  C   UNL     1      15.470  -4.275  16.668  0.00  0.00    +0.000 C 
ATOM      4  C   UNL     1      15.239  -4.688  18.121  0.00  0.00    +0.000 C 
ATOM      5  C   UNL     1      14.615  -4.869  15.561  0.00  0.00    +0.000 C 
ATOM      6  C   UNL     1      13.766  -5.074  18.561  0.00  0.00    +0.000 C 
ATOM      7  C   UNL     1      13.441  -5.484  16.152  0.00  0.00    +0.000 C 
ATOM      8  C   UNL     1      12.948  -5.621  17.553  0.00  0.00    +0.000 C 
ATOM      9  C   UNL     1      15.516  -3.564  19.031  0.00  0.00    +0.000 C 
ATOM     10  C   UNL     1      16.169  -5.883  18.474  0.00  0.00    +0.000 C 
ATOM     11  C   UNL     1      14.232  -3.800  14.532  0.00  0.00    +0.000 C 
ATOM     12  C   UNL     1      15.005  -2.948  20.315  0.00  0.00    +0.000 C 
ATOM     13  C   UNL     1      12.845  -4.195  20.693  0.00  0.00    +0.000 C 
ATOM     14  C   UNL     1      13.923  -3.141  21.253  0.00  0.00    +0.000 C 
ATOM     15  C   UNL     1      12.129  -4.911  21.883  0.00  0.00    +0.000 C 
ATOM     16  C   UNL     1      11.770  -3.425  19.839  0.00  0.00    +0.000 C 
ENDROOT
BRANCH   5  17
ATOM     17  O   UNL     1      15.354  -5.834  14.857  0.00  0.00    +0.000 OA
ATOM     18  H   UNL     1      15.130  -6.642  15.353  0.00  0.00    +0.000 HD
ENDBRANCH   5  17
BRANCH   3  19
ATOM     19  C   UNL     1      16.655  -3.531  16.329  0.00  0.00    +0.000 C 
ATOM     20  C   UNL     1      17.915  -2.746  15.956  0.00  0.00    +0.000 C 
BRANCH  20  24
ATOM     21  C   UNL     1      21.181  -1.735  17.177  0.00  0.00    +0.000 C 
ATOM     22  C   UNL     1      19.862  -1.137  16.627  0.00  0.00    +0.000 C 
ATOM     23  C   UNL     1      22.419  -2.024  16.368  0.00  0.00    +0.000 C 
ATOM     24  C   UNL     1      19.102  -2.019  15.606  0.00  0.00    +0.000 C 
ATOM     25  C   UNL     1      23.553  -2.569  17.238  0.00  0.00    +0.000 C 
ATOM     26  C   UNL     1      21.495  -2.056  18.529  0.00  0.00    +0.000 C 
ATOM     27  C   UNL     1      22.917  -2.542  18.549  0.00  0.00    +0.000 C 
ATOM     28  C   UNL     1      22.192  -2.269  14.998  0.00  0.00    +0.000 C 
ATOM     29  C   UNL     1      19.647  -2.204  14.260  0.00  0.00    +0.000 C 
ATOM     30  C   UNL     1      18.913  -0.848  17.854  0.00  0.00    +0.000 C 
ATOM     31  C   UNL     1      20.177   0.259  15.991  0.00  0.00    +0.000 C 
ATOM     32  C   UNL     1      20.935  -2.314  14.170  0.00  0.00    +0.000 C 
ATOM     33  C   UNL     1      24.827  -1.753  17.094  0.00  0.00    +0.000 C 
ATOM     34  C   UNL     1      18.839  -2.694  13.086  0.00  0.00    +0.000 C 
BRANCH  25  35
ATOM     35  O   UNL     1      23.863  -3.891  16.870  0.00  0.00    +0.000 OA
ATOM     36  H   UNL     1      24.827  -3.896  17.008  0.00  0.00    +0.000 HD
ENDBRANCH  25  35
ENDBRANCH  20  24
ENDBRANCH   3  19
TORSDOF 4
ENDMDL
MODEL 9
REMARK VINA RESULT:      -5.2     17.776     23.981
REMARK  Name = 44423609_SipholenoneA.pdbqt.pdb
REMARK  4 active torsions:
REMARK  status: ('A' for Active; 'I' for Inactive)
REMARK    1  A    between atoms: C_3  and  C_19
REMARK    2  A    between atoms: C_5  and  O_17
REMARK    3  A    between atoms: C_20  and  C_24
REMARK    4  A    between atoms: C_25  and  O_35
REMARK                            x       y       z     vdW  Elec       q    Type
REMARK                         _______ _______ _______ _____ _____    ______ ____
ROOT
ATOM      1  O   UNL     1      23.485  31.257  30.011  0.00  0.00    +0.000 OA
ATOM      2  O   UNL     1      25.606  29.646  32.581  0.00  0.00    +0.000 OA
ATOM      3  C   UNL     1      24.165  29.267  26.666  0.00  0.00    +0.000 C 
ATOM      4  C   UNL     1      23.666  29.512  28.089  0.00  0.00    +0.000 C 
ATOM      5  C   UNL     1      24.049  30.360  25.617  0.00  0.00    +0.000 C 
ATOM      6  C   UNL     1      23.747  30.988  28.663  0.00  0.00    +0.000 C 
ATOM      7  C   UNL     1      23.795  31.624  26.282  0.00  0.00    +0.000 C 
ATOM      8  C   UNL     1      23.648  32.022  27.712  0.00  0.00    +0.000 C 
ATOM      9  C   UNL     1      24.498  28.788  29.064  0.00  0.00    +0.000 C 
ATOM     10  C   UNL     1      22.191  29.035  28.210  0.00  0.00    +0.000 C 
ATOM     11  C   UNL     1      25.311  30.423  24.750  0.00  0.00    +0.000 C 
ATOM     12  C   UNL     1      25.075  28.948  30.455  0.00  0.00    +0.000 C 
ATOM     13  C   UNL     1      24.594  31.370  30.965  0.00  0.00    +0.000 C 
ATOM     14  C   UNL     1      25.137  29.951  31.492  0.00  0.00    +0.000 C 
ATOM     15  C   UNL     1      24.012  32.197  32.158  0.00  0.00    +0.000 C 
ATOM     16  C   UNL     1      25.789  32.171  30.325  0.00  0.00    +0.000 C 
ENDROOT
BRANCH   5  17
ATOM     17  O   UNL     1      22.993  30.063  24.739  0.00  0.00    +0.000 OA
ATOM     18  H   UNL     1      23.459  30.040  23.884  0.00  0.00    +0.000 HD
ENDBRANCH   5  17
BRANCH   3  19
ATOM     19  C   UNL     1      24.502  27.926  26.261  0.00  0.00    +0.000 C 
ATOM     20  C   UNL     1      24.858  26.497  25.842  0.00  0.00    +0.000 C 
BRANCH  20  24
ATOM     21  C   UNL     1      24.206  23.000  26.561  0.00  0.00    +0.000 C 
ATOM     22  C   UNL     1      25.370  24.019  26.490  0.00  0.00    +0.000 C 
ATOM     23  C   UNL     1      23.791  22.060  25.458  0.00  0.00    +0.000 C 
ATOM     24  C   UNL     1      25.200  25.158  25.456  0.00  0.00    +0.000 C 
ATOM     25  C   UNL     1      22.630  21.159  25.884  0.00  0.00    +0.000 C 
ATOM     26  C   UNL     1      23.366  22.714  27.676  0.00  0.00    +0.000 C 
ATOM     27  C   UNL     1      22.439  21.606  27.258  0.00  0.00    +0.000 C 
ATOM     28  C   UNL     1      24.111  22.494  24.155  0.00  0.00    +0.000 C 
ATOM     29  C   UNL     1      25.296  24.861  24.025  0.00  0.00    +0.000 C 
ATOM     30  C   UNL     1      25.545  24.654  27.923  0.00  0.00    +0.000 C 
ATOM     31  C   UNL     1      26.696  23.236  26.203  0.00  0.00    +0.000 C 
ATOM     32  C   UNL     1      24.782  23.737  23.635  0.00  0.00    +0.000 C 
ATOM     33  C   UNL     1      22.951  19.687  25.696  0.00  0.00    +0.000 C 
ATOM     34  C   UNL     1      25.537  25.904  22.965  0.00  0.00    +0.000 C 
BRANCH  25  35
ATOM     35  O   UNL     1      21.485  21.436  25.114  0.00  0.00    +0.000 OA
ATOM     36  H   UNL     1      21.838  22.100  24.497  0.00  0.00    +0.000 HD
ENDBRANCH  25  35
ENDBRANCH  20  24
ENDBRANCH   3  19
TORSDOF 4
ENDMDL
