MODEL 1
REMARK VINA RESULT:      -5.4      0.000      0.000
REMARK  Name = 445154_Resveratrol.pdbqt.pdb
REMARK  5 active torsions:
REMARK  status: ('A' for Active; 'I' for Inactive)
REMARK    1  A    between atoms: C_1  and  C_11
REMARK    2  A    between atoms: C_4  and  O_7
REMARK    3  A    between atoms: C_5  and  O_9
REMARK    4  A    between atoms: C_12  and  C_13
REMARK    5  A    between atoms: C_18  and  O_19
REMARK                            x       y       z     vdW  Elec       q    Type
REMARK                         _______ _______ _______ _____ _____    ______ ____
ROOT
ATOM      1  C   UNL     1      23.269  14.396  26.706  0.00  0.00    +0.000 A 
ATOM      2  C   UNL     1      24.313  13.968  27.525  0.00  0.00    +0.000 A 
ATOM      3  C   UNL     1      22.269  13.504  26.319  0.00  0.00    +0.000 A 
ATOM      4  C   UNL     1      22.322  12.184  26.758  0.00  0.00    +0.000 A 
ATOM      5  C   UNL     1      24.348  12.644  27.952  0.00  0.00    +0.000 A 
ATOM      6  C   UNL     1      23.357  11.743  27.576  0.00  0.00    +0.000 A 
ENDROOT
BRANCH   4   7
ATOM      7  O   UNL     1      21.357  11.289  26.396  0.00  0.00    +0.000 OA
ATOM      8  H   UNL     1      20.536  11.782  26.223  0.00  0.00    +0.000 HD
ENDBRANCH   4   7
BRANCH   5   9
ATOM      9  O   UNL     1      25.380  12.248  28.753  0.00  0.00    +0.000 OA
ATOM     10  H   UNL     1      25.716  13.033  29.220  0.00  0.00    +0.000 HD
ENDBRANCH   5   9
BRANCH   1  11
ATOM     11  C   UNL     1      23.222  15.750  26.260  0.00  0.00    +0.000 C 
ATOM     12  C   UNL     1      23.182  16.890  25.885  0.00  0.00    +0.000 C 
BRANCH  12  13
ATOM     13  C   UNL     1      23.135  18.244  25.440  0.00  0.00    +0.000 A 
ATOM     14  C   UNL     1      22.621  18.544  24.179  0.00  0.00    +0.000 A 
ATOM     15  C   UNL     1      23.602  19.265  26.267  0.00  0.00    +0.000 A 
ATOM     16  C   UNL     1      22.573  19.865  23.742  0.00  0.00    +0.000 A 
ATOM     17  C   UNL     1      23.557  20.588  25.834  0.00  0.00    +0.000 A 
ATOM     18  C   UNL     1      23.043  20.877  24.575  0.00  0.00    +0.000 A 
BRANCH  18  19
ATOM     19  O   UNL     1      23.009  22.180  24.172  0.00  0.00    +0.000 OA
ATOM     20  H   UNL     1      22.143  22.553  24.417  0.00  0.00    +0.000 HD
ENDBRANCH  18  19
ENDBRANCH  12  13
ENDBRANCH   1  11
TORSDOF 5
ENDMDL
MODEL 2
REMARK VINA RESULT:      -5.3      2.753      3.661
REMARK  Name = 445154_Resveratrol.pdbqt.pdb
REMARK  5 active torsions:
REMARK  status: ('A' for Active; 'I' for Inactive)
REMARK    1  A    between atoms: C_1  and  C_11
REMARK    2  A    between atoms: C_4  and  O_7
REMARK    3  A    between atoms: C_5  and  O_9
REMARK    4  A    between atoms: C_12  and  C_13
REMARK    5  A    between atoms: C_18  and  O_19
REMARK                            x       y       z     vdW  Elec       q    Type
REMARK                         _______ _______ _______ _____ _____    ______ ____
ROOT
ATOM      1  C   UNL     1      23.416  12.417  25.458  0.00  0.00    +0.000 A 
ATOM      2  C   UNL     1      23.999  12.235  24.205  0.00  0.00    +0.000 A 
ATOM      3  C   UNL     1      23.130  11.317  26.266  0.00  0.00    +0.000 A 
ATOM      4  C   UNL     1      23.434  10.036  25.811  0.00  0.00    +0.000 A 
ATOM      5  C   UNL     1      24.294  10.947  23.769  0.00  0.00    +0.000 A 
ATOM      6  C   UNL     1      24.017   9.839  24.564  0.00  0.00    +0.000 A 
ENDROOT
BRANCH   4   7
ATOM      7  O   UNL     1      23.166   8.941  26.581  0.00  0.00    +0.000 OA
ATOM      8  H   UNL     1      23.960   8.377  26.593  0.00  0.00    +0.000 HD
ENDBRANCH   4   7
BRANCH   5   9
ATOM      9  O   UNL     1      24.866  10.793  22.539  0.00  0.00    +0.000 OA
ATOM     10  H   UNL     1      25.136  11.673  22.221  0.00  0.00    +0.000 HD
ENDBRANCH   5   9
BRANCH   1  11
ATOM     11  C   UNL     1      23.107  13.732  25.916  0.00  0.00    +0.000 C 
ATOM     12  C   UNL     1      22.847  14.839  26.303  0.00  0.00    +0.000 C 
BRANCH  12  13
ATOM     13  C   UNL     1      22.539  16.154  26.761  0.00  0.00    +0.000 A 
ATOM     14  C   UNL     1      22.176  16.358  28.093  0.00  0.00    +0.000 A 
ATOM     15  C   UNL     1      22.601  17.231  25.878  0.00  0.00    +0.000 A 
ATOM     16  C   UNL     1      21.876  17.640  28.543  0.00  0.00    +0.000 A 
ATOM     17  C   UNL     1      22.300  18.515  26.325  0.00  0.00    +0.000 A 
ATOM     18  C   UNL     1      21.939  18.709  27.654  0.00  0.00    +0.000 A 
BRANCH  18  19
ATOM     19  O   UNL     1      21.650  19.977  28.069  0.00  0.00    +0.000 OA
ATOM     20  H   UNL     1      21.640  20.558  27.288  0.00  0.00    +0.000 HD
ENDBRANCH  18  19
ENDBRANCH  12  13
ENDBRANCH   1  11
TORSDOF 5
ENDMDL
MODEL 3
REMARK VINA RESULT:      -5.3     14.562     15.058
REMARK  Name = 445154_Resveratrol.pdbqt.pdb
REMARK  5 active torsions:
REMARK  status: ('A' for Active; 'I' for Inactive)
REMARK    1  A    between atoms: C_1  and  C_11
REMARK    2  A    between atoms: C_4  and  O_7
REMARK    3  A    between atoms: C_5  and  O_9
REMARK    4  A    between atoms: C_12  and  C_13
REMARK    5  A    between atoms: C_18  and  O_19
REMARK                            x       y       z     vdW  Elec       q    Type
REMARK                         _______ _______ _______ _____ _____    ______ ____
ROOT
ATOM      1  C   UNL     1      10.685  17.683  29.960  0.00  0.00    +0.000 A 
ATOM      2  C   UNL     1      10.319  16.350  30.143  0.00  0.00    +0.000 A 
ATOM      3  C   UNL     1      12.000  18.011  29.634  0.00  0.00    +0.000 A 
ATOM      4  C   UNL     1      12.944  16.997  29.491  0.00  0.00    +0.000 A 
ATOM      5  C   UNL     1      11.277  15.352  29.997  0.00  0.00    +0.000 A 
ATOM      6  C   UNL     1      12.593  15.663  29.671  0.00  0.00    +0.000 A 
ENDROOT
BRANCH   4   7
ATOM      7  O   UNL     1      14.238  17.289  29.172  0.00  0.00    +0.000 OA
ATOM      8  H   UNL     1      14.391  17.018  28.249  0.00  0.00    +0.000 HD
ENDBRANCH   4   7
BRANCH   5   9
ATOM      9  O   UNL     1      10.895  14.054  30.181  0.00  0.00    +0.000 OA
ATOM     10  H   UNL     1      10.153  14.045  30.810  0.00  0.00    +0.000 HD
ENDBRANCH   5   9
BRANCH   1  11
ATOM     11  C   UNL     1       9.712  18.715  30.108  0.00  0.00    +0.000 C 
ATOM     12  C   UNL     1       8.893  19.585  30.234  0.00  0.00    +0.000 C 
BRANCH  12  13
ATOM     13  C   UNL     1       7.921  20.618  30.382  0.00  0.00    +0.000 A 
ATOM     14  C   UNL     1       6.701  20.342  30.998  0.00  0.00    +0.000 A 
ATOM     15  C   UNL     1       8.193  21.902  29.910  0.00  0.00    +0.000 A 
ATOM     16  C   UNL     1       5.751  21.348  31.145  0.00  0.00    +0.000 A 
ATOM     17  C   UNL     1       7.245  22.912  30.054  0.00  0.00    +0.000 A 
ATOM     18  C   UNL     1       6.031  22.627  30.670  0.00  0.00    +0.000 A 
BRANCH  18  19
ATOM     19  O   UNL     1       5.118  23.632  30.800  0.00  0.00    +0.000 OA
ATOM     20  H   UNL     1       5.129  24.161  29.983  0.00  0.00    +0.000 HD
ENDBRANCH  18  19
ENDBRANCH  12  13
ENDBRANCH   1  11
TORSDOF 5
ENDMDL
MODEL 4
REMARK VINA RESULT:      -5.2     14.124     14.589
REMARK  Name = 445154_Resveratrol.pdbqt.pdb
REMARK  5 active torsions:
REMARK  status: ('A' for Active; 'I' for Inactive)
REMARK    1  A    between atoms: C_1  and  C_11
REMARK    2  A    between atoms: C_4  and  O_7
REMARK    3  A    between atoms: C_5  and  O_9
REMARK    4  A    between atoms: C_12  and  C_13
REMARK    5  A    between atoms: C_18  and  O_19
REMARK                            x       y       z     vdW  Elec       q    Type
REMARK                         _______ _______ _______ _____ _____    ______ ____
ROOT
ATOM      1  C   UNL     1      11.010  16.319  30.311  0.00  0.00    +0.000 A 
ATOM      2  C   UNL     1      11.944  16.355  29.276  0.00  0.00    +0.000 A 
ATOM      3  C   UNL     1      11.012  15.263  31.222  0.00  0.00    +0.000 A 
ATOM      4  C   UNL     1      11.955  14.247  31.090  0.00  0.00    +0.000 A 
ATOM      5  C   UNL     1      12.877  15.329  29.162  0.00  0.00    +0.000 A 
ATOM      6  C   UNL     1      12.893  14.270  30.063  0.00  0.00    +0.000 A 
ENDROOT
BRANCH   4   7
ATOM      7  O   UNL     1      11.981  13.202  31.967  0.00  0.00    +0.000 OA
ATOM      8  H   UNL     1      12.692  12.595  31.696  0.00  0.00    +0.000 HD
ENDBRANCH   4   7
BRANCH   5   9
ATOM      9  O   UNL     1      13.782  15.386  28.141  0.00  0.00    +0.000 OA
ATOM     10  H   UNL     1      13.744  16.279  27.755  0.00  0.00    +0.000 HD
ENDBRANCH   5   9
BRANCH   1  11
ATOM     11  C   UNL     1      10.048  17.364  30.439  0.00  0.00    +0.000 C 
ATOM     12  C   UNL     1       9.237  18.244  30.546  0.00  0.00    +0.000 C 
BRANCH  12  13
ATOM     13  C   UNL     1       8.275  19.288  30.673  0.00  0.00    +0.000 A 
ATOM     14  C   UNL     1       8.553  20.556  30.163  0.00  0.00    +0.000 A 
ATOM     15  C   UNL     1       7.058  19.040  31.308  0.00  0.00    +0.000 A 
ATOM     16  C   UNL     1       7.615  21.577  30.286  0.00  0.00    +0.000 A 
ATOM     17  C   UNL     1       6.117  20.058  31.433  0.00  0.00    +0.000 A 
ATOM     18  C   UNL     1       6.403  21.319  30.921  0.00  0.00    +0.000 A 
BRANCH  18  19
ATOM     19  O   UNL     1       5.465  22.301  31.056  0.00  0.00    +0.000 OA
ATOM     20  H   UNL     1       5.511  22.877  30.272  0.00  0.00    +0.000 HD
ENDBRANCH  18  19
ENDBRANCH  12  13
ENDBRANCH   1  11
TORSDOF 5
ENDMDL
MODEL 5
REMARK VINA RESULT:      -5.2     14.611     16.034
REMARK  Name = 445154_Resveratrol.pdbqt.pdb
REMARK  5 active torsions:
REMARK  status: ('A' for Active; 'I' for Inactive)
REMARK    1  A    between atoms: C_1  and  C_11
REMARK    2  A    between atoms: C_4  and  O_7
REMARK    3  A    between atoms: C_5  and  O_9
REMARK    4  A    between atoms: C_12  and  C_13
REMARK    5  A    between atoms: C_18  and  O_19
REMARK                            x       y       z     vdW  Elec       q    Type
REMARK                         _______ _______ _______ _____ _____    ______ ____
ROOT
ATOM      1  C   UNL     1       8.130  20.262  30.479  0.00  0.00    +0.000 A 
ATOM      2  C   UNL     1       7.033  19.733  31.158  0.00  0.00    +0.000 A 
ATOM      3  C   UNL     1       8.129  21.598  30.078  0.00  0.00    +0.000 A 
ATOM      4  C   UNL     1       7.025  22.398  30.362  0.00  0.00    +0.000 A 
ATOM      5  C   UNL     1       5.940  20.549  31.431  0.00  0.00    +0.000 A 
ATOM      6  C   UNL     1       5.925  21.884  31.039  0.00  0.00    +0.000 A 
ENDROOT
BRANCH   4   7
ATOM      7  O   UNL     1       6.998  23.708  29.982  0.00  0.00    +0.000 OA
ATOM      8  H   UNL     1       7.719  23.855  29.345  0.00  0.00    +0.000 HD
ENDBRANCH   4   7
BRANCH   5   9
ATOM      9  O   UNL     1       4.877  20.009  32.098  0.00  0.00    +0.000 OA
ATOM     10  H   UNL     1       5.018  19.048  32.159  0.00  0.00    +0.000 HD
ENDBRANCH   5   9
BRANCH   1  11
ATOM     11  C   UNL     1       9.256  19.436  30.192  0.00  0.00    +0.000 C 
ATOM     12  C   UNL     1      10.206  18.741  29.950  0.00  0.00    +0.000 C 
BRANCH  12  13
ATOM     13  C   UNL     1      11.333  17.915  29.664  0.00  0.00    +0.000 A 
ATOM     14  C   UNL     1      12.623  18.423  29.817  0.00  0.00    +0.000 A 
ATOM     15  C   UNL     1      11.142  16.603  29.231  0.00  0.00    +0.000 A 
ATOM     16  C   UNL     1      13.724  17.619  29.539  0.00  0.00    +0.000 A 
ATOM     17  C   UNL     1      12.241  15.796  28.951  0.00  0.00    +0.000 A 
ATOM     18  C   UNL     1      13.524  16.311  29.107  0.00  0.00    +0.000 A 
BRANCH  18  19
ATOM     19  O   UNL     1      14.586  15.501  28.827  0.00  0.00    +0.000 OA
ATOM     20  H   UNL     1      15.068  15.332  29.655  0.00  0.00    +0.000 HD
ENDBRANCH  18  19
ENDBRANCH  12  13
ENDBRANCH   1  11
TORSDOF 5
ENDMDL
MODEL 6
REMARK VINA RESULT:      -4.8     10.820     11.173
REMARK  Name = 445154_Resveratrol.pdbqt.pdb
REMARK  5 active torsions:
REMARK  status: ('A' for Active; 'I' for Inactive)
REMARK    1  A    between atoms: C_1  and  C_11
REMARK    2  A    between atoms: C_4  and  O_7
REMARK    3  A    between atoms: C_5  and  O_9
REMARK    4  A    between atoms: C_12  and  C_13
REMARK    5  A    between atoms: C_18  and  O_19
REMARK                            x       y       z     vdW  Elec       q    Type
REMARK                         _______ _______ _______ _____ _____    ______ ____
ROOT
ATOM      1  C   UNL     1      29.203  10.938  18.745  0.00  0.00    +0.000 A 
ATOM      2  C   UNL     1      30.495  10.552  19.100  0.00  0.00    +0.000 A 
ATOM      3  C   UNL     1      28.100  10.277  19.285  0.00  0.00    +0.000 A 
ATOM      4  C   UNL     1      28.300   9.230  20.180  0.00  0.00    +0.000 A 
ATOM      5  C   UNL     1      30.673   9.503  19.996  0.00  0.00    +0.000 A 
ATOM      6  C   UNL     1      29.583   8.834  20.543  0.00  0.00    +0.000 A 
ENDROOT
BRANCH   4   7
ATOM      7  O   UNL     1      27.239   8.565  20.724  0.00  0.00    +0.000 OA
ATOM      8  H   UNL     1      26.465   8.706  20.150  0.00  0.00    +0.000 HD
ENDBRANCH   4   7
BRANCH   5   9
ATOM      9  O   UNL     1      31.947   9.142  20.328  0.00  0.00    +0.000 OA
ATOM     10  H   UNL     1      32.441   8.987  19.503  0.00  0.00    +0.000 HD
ENDBRANCH   5   9
BRANCH   1  11
ATOM     11  C   UNL     1      29.007  12.012  17.827  0.00  0.00    +0.000 C 
ATOM     12  C   UNL     1      28.841  12.917  17.054  0.00  0.00    +0.000 C 
BRANCH  12  13
ATOM     13  C   UNL     1      28.645  13.991  16.137  0.00  0.00    +0.000 A 
ATOM     14  C   UNL     1      29.030  15.284  16.490  0.00  0.00    +0.000 A 
ATOM     15  C   UNL     1      28.070  13.746  14.891  0.00  0.00    +0.000 A 
ATOM     16  C   UNL     1      28.840  16.334  15.596  0.00  0.00    +0.000 A 
ATOM     17  C   UNL     1      27.878  14.793  13.994  0.00  0.00    +0.000 A 
ATOM     18  C   UNL     1      28.265  16.080  14.355  0.00  0.00    +0.000 A 
BRANCH  18  19
ATOM     19  O   UNL     1      28.067  17.090  13.459  0.00  0.00    +0.000 OA
ATOM     20  H   UNL     1      28.932  17.474  13.236  0.00  0.00    +0.000 HD
ENDBRANCH  18  19
ENDBRANCH  12  13
ENDBRANCH   1  11
TORSDOF 5
ENDMDL
MODEL 7
REMARK VINA RESULT:      -4.8     27.522     28.342
REMARK  Name = 445154_Resveratrol.pdbqt.pdb
REMARK  5 active torsions:
REMARK  status: ('A' for Active; 'I' for Inactive)
REMARK    1  A    between atoms: C_1  and  C_11
REMARK    2  A    between atoms: C_4  and  O_7
REMARK    3  A    between atoms: C_5  and  O_9
REMARK    4  A    between atoms: C_12  and  C_13
REMARK    5  A    between atoms: C_18  and  O_19
REMARK                            x       y       z     vdW  Elec       q    Type
REMARK                         _______ _______ _______ _____ _____    ______ ____
ROOT
ATOM      1  C   UNL     1       4.887  14.218   5.201  0.00  0.00    +0.000 A 
ATOM      2  C   UNL     1       5.640  15.152   4.490  0.00  0.00    +0.000 A 
ATOM      3  C   UNL     1       5.113  12.853   5.022  0.00  0.00    +0.000 A 
ATOM      4  C   UNL     1       6.095  12.432   4.130  0.00  0.00    +0.000 A 
ATOM      5  C   UNL     1       6.617  14.711   3.603  0.00  0.00    +0.000 A 
ATOM      6  C   UNL     1       6.854  13.353   3.415  0.00  0.00    +0.000 A 
ENDROOT
BRANCH   4   7
ATOM      7  O   UNL     1       6.338  11.103   3.937  0.00  0.00    +0.000 OA
ATOM      8  H   UNL     1       7.090  10.847   4.499  0.00  0.00    +0.000 HD
ENDBRANCH   4   7
BRANCH   5   9
ATOM      9  O   UNL     1       7.341  15.644   2.919  0.00  0.00    +0.000 OA
ATOM     10  H   UNL     1       7.105  15.576   1.977  0.00  0.00    +0.000 HD
ENDBRANCH   5   9
BRANCH   1  11
ATOM     11  C   UNL     1       3.882  14.657   6.112  0.00  0.00    +0.000 C 
ATOM     12  C   UNL     1       3.035  15.027   6.879  0.00  0.00    +0.000 C 
BRANCH  12  13
ATOM     13  C   UNL     1       2.030  15.465   7.791  0.00  0.00    +0.000 A 
ATOM     14  C   UNL     1       0.726  14.984   7.673  0.00  0.00    +0.000 A 
ATOM     15  C   UNL     1       2.352  16.375   8.798  0.00  0.00    +0.000 A 
ATOM     16  C   UNL     1      -0.256  15.410   8.562  0.00  0.00    +0.000 A 
ATOM     17  C   UNL     1       1.372  16.803   9.689  0.00  0.00    +0.000 A 
ATOM     18  C   UNL     1       0.075  16.318   9.563  0.00  0.00    +0.000 A 
BRANCH  18  19
ATOM     19  O   UNL     1      -0.868  16.753  10.448  0.00  0.00    +0.000 OA
ATOM     20  H   UNL     1      -1.357  15.979  10.779  0.00  0.00    +0.000 HD
ENDBRANCH  18  19
ENDBRANCH  12  13
ENDBRANCH   1  11
TORSDOF 5
ENDMDL
MODEL 8
REMARK VINA RESULT:      -4.7     23.607     24.571
REMARK  Name = 445154_Resveratrol.pdbqt.pdb
REMARK  5 active torsions:
REMARK  status: ('A' for Active; 'I' for Inactive)
REMARK    1  A    between atoms: C_1  and  C_11
REMARK    2  A    between atoms: C_4  and  O_7
REMARK    3  A    between atoms: C_5  and  O_9
REMARK    4  A    between atoms: C_12  and  C_13
REMARK    5  A    between atoms: C_18  and  O_19
REMARK                            x       y       z     vdW  Elec       q    Type
REMARK                         _______ _______ _______ _____ _____    ______ ____
ROOT
ATOM      1  C   UNL     1      21.001  29.910   7.282  0.00  0.00    +0.000 A 
ATOM      2  C   UNL     1      19.637  29.741   7.518  0.00  0.00    +0.000 A 
ATOM      3  C   UNL     1      21.690  30.968   7.875  0.00  0.00    +0.000 A 
ATOM      4  C   UNL     1      21.005  31.852   8.704  0.00  0.00    +0.000 A 
ATOM      5  C   UNL     1      18.971  30.636   8.349  0.00  0.00    +0.000 A 
ATOM      6  C   UNL     1      19.644  31.695   8.949  0.00  0.00    +0.000 A 
ENDROOT
BRANCH   4   7
ATOM      7  O   UNL     1      21.653  32.895   9.299  0.00  0.00    +0.000 OA
ATOM      8  H   UNL     1      21.499  32.841  10.259  0.00  0.00    +0.000 HD
ENDBRANCH   4   7
BRANCH   5   9
ATOM      9  O   UNL     1      17.636  30.450   8.566  0.00  0.00    +0.000 OA
ATOM     10  H   UNL     1      17.421  30.813   9.443  0.00  0.00    +0.000 HD
ENDBRANCH   5   9
BRANCH   1  11
ATOM     11  C   UNL     1      21.695  29.001   6.430  0.00  0.00    +0.000 C 
ATOM     12  C   UNL     1      22.280  28.235   5.713  0.00  0.00    +0.000 C 
BRANCH  12  13
ATOM     13  C   UNL     1      22.975  27.326   4.862  0.00  0.00    +0.000 A 
ATOM     14  C   UNL     1      24.296  26.980   5.145  0.00  0.00    +0.000 A 
ATOM     15  C   UNL     1      22.332  26.784   3.749  0.00  0.00    +0.000 A 
ATOM     16  C   UNL     1      24.976  26.092   4.317  0.00  0.00    +0.000 A 
ATOM     17  C   UNL     1      23.009  25.897   2.918  0.00  0.00    +0.000 A 
ATOM     18  C   UNL     1      24.326  25.558   3.208  0.00  0.00    +0.000 A 
BRANCH  18  19
ATOM     19  O   UNL     1      24.969  24.686   2.379  0.00  0.00    +0.000 OA
ATOM     20  H   UNL     1      25.450  25.201   1.707  0.00  0.00    +0.000 HD
ENDBRANCH  18  19
ENDBRANCH  12  13
ENDBRANCH   1  11
TORSDOF 5
ENDMDL
MODEL 9
REMARK VINA RESULT:      -4.6     11.172     13.468
REMARK  Name = 445154_Resveratrol.pdbqt.pdb
REMARK  5 active torsions:
REMARK  status: ('A' for Active; 'I' for Inactive)
REMARK    1  A    between atoms: C_1  and  C_11
REMARK    2  A    between atoms: C_4  and  O_7
REMARK    3  A    between atoms: C_5  and  O_9
REMARK    4  A    between atoms: C_12  and  C_13
REMARK    5  A    between atoms: C_18  and  O_19
REMARK                            x       y       z     vdW  Elec       q    Type
REMARK                         _______ _______ _______ _____ _____    ______ ____
ROOT
ATOM      1  C   UNL     1      28.596  14.523  15.456  0.00  0.00    +0.000 A 
ATOM      2  C   UNL     1      28.344  14.002  14.187  0.00  0.00    +0.000 A 
ATOM      3  C   UNL     1      28.600  15.902  15.660  0.00  0.00    +0.000 A 
ATOM      4  C   UNL     1      28.349  16.754  14.587  0.00  0.00    +0.000 A 
ATOM      5  C   UNL     1      28.096  14.870  13.129  0.00  0.00    +0.000 A 
ATOM      6  C   UNL     1      28.095  16.249  13.317  0.00  0.00    +0.000 A 
ENDROOT
BRANCH   4   7
ATOM      7  O   UNL     1      28.345  18.108  14.758  0.00  0.00    +0.000 OA
ATOM      8  H   UNL     1      29.118  18.348  15.299  0.00  0.00    +0.000 HD
ENDBRANCH   4   7
BRANCH   5   9
ATOM      9  O   UNL     1      27.851  14.338  11.895  0.00  0.00    +0.000 OA
ATOM     10  H   UNL     1      28.528  14.676  11.282  0.00  0.00    +0.000 HD
ENDBRANCH   5   9
BRANCH   1  11
ATOM     11  C   UNL     1      28.853  13.644  16.548  0.00  0.00    +0.000 C 
ATOM     12  C   UNL     1      29.069  12.903  17.470  0.00  0.00    +0.000 C 
BRANCH  12  13
ATOM     13  C   UNL     1      29.325  12.024  18.563  0.00  0.00    +0.000 A 
ATOM     14  C   UNL     1      30.374  12.293  19.441  0.00  0.00    +0.000 A 
ATOM     15  C   UNL     1      28.525  10.896  18.751  0.00  0.00    +0.000 A 
ATOM     16  C   UNL     1      30.626  11.437  20.508  0.00  0.00    +0.000 A 
ATOM     17  C   UNL     1      28.773  10.037  19.817  0.00  0.00    +0.000 A 
ATOM     18  C   UNL     1      29.823  10.314  20.688  0.00  0.00    +0.000 A 
BRANCH  18  19
ATOM     19  O   UNL     1      30.047   9.457  21.726  0.00  0.00    +0.000 OA
ATOM     20  H   UNL     1      30.065   9.974  22.550  0.00  0.00    +0.000 HD
ENDBRANCH  18  19
ENDBRANCH  12  13
ENDBRANCH   1  11
TORSDOF 5
ENDMDL
