MODEL 1
REMARK VINA RESULT:      -6.2      0.000      0.000
REMARK  Name = 448438_Violaxanthin.pdbqt.pdb
REMARK  16 active torsions:
REMARK  status: ('A' for Active; 'I' for Inactive)
REMARK    1  A    between atoms: C_1  and  C_5
REMARK    2  A    between atoms: C_2  and  C_27
REMARK    3  A    between atoms: C_3  and  C_5
REMARK    4  A    between atoms: C_3  and  C_7
REMARK    5  A    between atoms: C_6  and  C_10
REMARK    6  A    between atoms: C_8  and  C_10
REMARK    7  A    between atoms: C_8  and  C_12
REMARK    8  A    between atoms: C_11  and  C_14
REMARK    9  A    between atoms: C_19  and  O_23
REMARK   10  A    between atoms: C_25  and  C_27
REMARK   11  A    between atoms: C_25  and  C_29
REMARK   12  A    between atoms: C_28  and  C_32
REMARK   13  A    between atoms: C_30  and  C_32
REMARK   14  A    between atoms: C_30  and  C_34
REMARK   15  A    between atoms: C_33  and  C_36
REMARK   16  A    between atoms: C_41  and  O_45
REMARK                            x       y       z     vdW  Elec       q    Type
REMARK                         _______ _______ _______ _____ _____    ______ ____
ROOT
ATOM      1  C   UNL     1       2.715  19.825  29.233  0.00  0.00    +0.000 C 
ATOM      2  C   UNL     1       3.093  20.937  29.479  0.00  0.00    +0.000 C 
ENDROOT
BRANCH   2   3
ATOM      3  C   UNL     1       3.573  22.358  29.792  0.00  0.00    +0.000 C 
BRANCH   3   4
ATOM      4  C   UNL     1       3.976  23.561  30.055  0.00  0.00    +0.000 C 
ATOM      5  C   UNL     1       3.179  24.429  30.982  0.00  0.00    +0.000 C 
BRANCH   4   7
ATOM      6  C   UNL     1       6.107  24.515  28.875  0.00  0.00    +0.000 C 
ATOM      7  C   UNL     1       5.128  24.077  29.417  0.00  0.00    +0.000 C 
BRANCH   6   8
ATOM      8  C   UNL     1       7.356  25.076  28.184  0.00  0.00    +0.000 C 
BRANCH   8   9
ATOM      9  C   UNL     1       8.415  25.548  27.602  0.00  0.00    +0.000 C 
ATOM     10  C   UNL     1       8.376  25.889  26.144  0.00  0.00    +0.000 C 
BRANCH   9  12
ATOM     11  C   UNL     1      10.538  26.108  29.029  0.00  0.00    +0.000 C 
ATOM     12  C   UNL     1       9.565  25.855  28.371  0.00  0.00    +0.000 C 
BRANCH  11  14
ATOM     13  O   UNL     1      12.832  26.730  28.978  0.00  0.00    +0.000 OA
ATOM     14  C   UNL     1      11.710  26.398  29.843  0.00  0.00    +0.000 C 
ATOM     15  C   UNL     1      12.348  27.803  29.784  0.00  0.00    +0.000 C 
ATOM     16  C   UNL     1      12.029  25.498  31.084  0.00  0.00    +0.000 C 
ATOM     17  C   UNL     1      13.258  28.143  30.828  0.00  0.00    +0.000 C 
ATOM     18  C   UNL     1      13.080  26.174  31.858  0.00  0.00    +0.000 C 
ATOM     19  C   UNL     1      13.747  27.413  31.924  0.00  0.00    +0.000 C 
ATOM     20  C   UNL     1      11.754  28.956  28.970  0.00  0.00    +0.000 C 
ATOM     21  C   UNL     1      10.719  25.427  31.906  0.00  0.00    +0.000 C 
ATOM     22  C   UNL     1      12.470  24.126  30.532  0.00  0.00    +0.000 C 
BRANCH  19  23
ATOM     23  O   UNL     1      15.038  27.531  32.342  0.00  0.00    +0.000 OA
ATOM     24  H   UNL     1      15.606  27.976  31.689  0.00  0.00    +0.000 HD
ENDBRANCH  19  23
ENDBRANCH  11  14
ENDBRANCH   9  12
ENDBRANCH   8   9
ENDBRANCH   6   8
ENDBRANCH   4   7
ENDBRANCH   3   4
ENDBRANCH   2   3
BRANCH   1  25
ATOM     25  C   UNL     1       2.234  18.402  28.920  0.00  0.00    +0.000 C 
BRANCH  25  26
ATOM     26  C   UNL     1       1.828  17.201  28.654  0.00  0.00    +0.000 C 
ATOM     27  C   UNL     1       1.890  16.142  29.713  0.00  0.00    +0.000 C 
BRANCH  26  29
ATOM     28  C   UNL     1       0.855  16.636  26.294  0.00  0.00    +0.000 C 
ATOM     29  C   UNL     1       1.303  16.897  27.377  0.00  0.00    +0.000 C 
BRANCH  28  30
ATOM     30  C   UNL     1       0.281  16.296  24.912  0.00  0.00    +0.000 C 
BRANCH  30  31
ATOM     31  C   UNL     1      -0.203  16.004  23.746  0.00  0.00    +0.000 C 
ATOM     32  C   UNL     1      -0.617  17.100  22.813  0.00  0.00    +0.000 C 
BRANCH  31  34
ATOM     33  C   UNL     1      -0.378  13.502  22.986  0.00  0.00    +0.000 C 
ATOM     34  C   UNL     1      -0.295  14.650  23.337  0.00  0.00    +0.000 C 
BRANCH  33  36
ATOM     35  O   UNL     1      -1.694  11.931  21.774  0.00  0.00    +0.000 OA
ATOM     36  C   UNL     1      -0.480  12.116  22.556  0.00  0.00    +0.000 C 
ATOM     37  C   UNL     1      -0.475  11.782  21.049  0.00  0.00    +0.000 C 
ATOM     38  C   UNL     1      -0.123  10.968  23.567  0.00  0.00    +0.000 C 
ATOM     39  C   UNL     1      -0.227  10.425  20.684  0.00  0.00    +0.000 C 
ATOM     40  C   UNL     1      -0.021   9.730  22.792  0.00  0.00    +0.000 C 
ATOM     41  C   UNL     1      -0.007   9.275  21.459  0.00  0.00    +0.000 C 
ATOM     42  C   UNL     1      -0.292  12.831  19.950  0.00  0.00    +0.000 C 
ATOM     43  C   UNL     1      -1.257  10.954  24.617  0.00  0.00    +0.000 C 
ATOM     44  C   UNL     1       1.249  11.359  24.175  0.00  0.00    +0.000 C 
BRANCH  41  45
ATOM     45  O   UNL     1       0.815   8.264  21.064  0.00  0.00    +0.000 OA
ATOM     46  H   UNL     1       1.614   8.196  21.618  0.00  0.00    +0.000 HD
ENDBRANCH  41  45
ENDBRANCH  33  36
ENDBRANCH  31  34
ENDBRANCH  30  31
ENDBRANCH  28  30
ENDBRANCH  26  29
ENDBRANCH  25  26
ENDBRANCH   1  25
TORSDOF 16
ENDMDL
MODEL 2
REMARK VINA RESULT:      -6.2     12.836     22.454
REMARK  Name = 448438_Violaxanthin.pdbqt.pdb
REMARK  16 active torsions:
REMARK  status: ('A' for Active; 'I' for Inactive)
REMARK    1  A    between atoms: C_1  and  C_5
REMARK    2  A    between atoms: C_2  and  C_27
REMARK    3  A    between atoms: C_3  and  C_5
REMARK    4  A    between atoms: C_3  and  C_7
REMARK    5  A    between atoms: C_6  and  C_10
REMARK    6  A    between atoms: C_8  and  C_10
REMARK    7  A    between atoms: C_8  and  C_12
REMARK    8  A    between atoms: C_11  and  C_14
REMARK    9  A    between atoms: C_19  and  O_23
REMARK   10  A    between atoms: C_25  and  C_27
REMARK   11  A    between atoms: C_25  and  C_29
REMARK   12  A    between atoms: C_28  and  C_32
REMARK   13  A    between atoms: C_30  and  C_32
REMARK   14  A    between atoms: C_30  and  C_34
REMARK   15  A    between atoms: C_33  and  C_36
REMARK   16  A    between atoms: C_41  and  O_45
REMARK                            x       y       z     vdW  Elec       q    Type
REMARK                         _______ _______ _______ _____ _____    ______ ____
ROOT
ATOM      1  C   UNL     1       5.199  35.306  16.831  0.00  0.00    +0.000 C 
ATOM      2  C   UNL     1       5.284  34.639  15.838  0.00  0.00    +0.000 C 
ENDROOT
BRANCH   2   3
ATOM      3  C   UNL     1       5.393  33.789  14.567  0.00  0.00    +0.000 C 
BRANCH   3   4
ATOM      4  C   UNL     1       5.483  33.072  13.491  0.00  0.00    +0.000 C 
ATOM      5  C   UNL     1       6.725  33.138  12.653  0.00  0.00    +0.000 C 
BRANCH   4   7
ATOM      6  C   UNL     1       3.456  31.611  12.718  0.00  0.00    +0.000 C 
ATOM      7  C   UNL     1       4.387  32.282  13.073  0.00  0.00    +0.000 C 
BRANCH   6   8
ATOM      8  C   UNL     1       2.266  30.754  12.267  0.00  0.00    +0.000 C 
BRANCH   8   9
ATOM      9  C   UNL     1       1.259  30.033  11.884  0.00  0.00    +0.000 C 
ATOM     10  C   UNL     1       0.933  29.919  10.427  0.00  0.00    +0.000 C 
BRANCH   9  12
ATOM     11  C   UNL     1      -0.059  28.606  13.642  0.00  0.00    +0.000 C 
ATOM     12  C   UNL     1       0.547  29.257  12.833  0.00  0.00    +0.000 C 
BRANCH  11  14
ATOM     13  O   UNL     1      -1.933  27.190  14.004  0.00  0.00    +0.000 OA
ATOM     14  C   UNL     1      -0.793  27.838  14.636  0.00  0.00    +0.000 C 
ATOM     15  C   UNL     1      -0.917  26.307  14.476  0.00  0.00    +0.000 C 
ATOM     16  C   UNL     1      -1.039  28.449  16.056  0.00  0.00    +0.000 C 
ATOM     17  C   UNL     1      -1.335  25.570  15.623  0.00  0.00    +0.000 C 
ATOM     18  C   UNL     1      -1.547  27.372  16.918  0.00  0.00    +0.000 C 
ATOM     19  C   UNL     1      -1.717  25.974  16.913  0.00  0.00    +0.000 C 
ATOM     20  C   UNL     1      -0.221  25.526  13.357  0.00  0.00    +0.000 C 
ATOM     21  C   UNL     1       0.345  28.929  16.558  0.00  0.00    +0.000 C 
ATOM     22  C   UNL     1      -2.047  29.604  15.872  0.00  0.00    +0.000 C 
BRANCH  19  23
ATOM     23  O   UNL     1      -2.726  25.354  17.586  0.00  0.00    +0.000 OA
ATOM     24  H   UNL     1      -3.377  25.981  17.949  0.00  0.00    +0.000 HD
ENDBRANCH  19  23
ENDBRANCH  11  14
ENDBRANCH   9  12
ENDBRANCH   8   9
ENDBRANCH   6   8
ENDBRANCH   4   7
ENDBRANCH   3   4
ENDBRANCH   2   3
BRANCH   1  25
ATOM     25  C   UNL     1       5.089  36.158  18.102  0.00  0.00    +0.000 C 
BRANCH  25  26
ATOM     26  C   UNL     1       4.997  36.878  19.176  0.00  0.00    +0.000 C 
ATOM     27  C   UNL     1       3.678  37.478  19.559  0.00  0.00    +0.000 C 
BRANCH  26  29
ATOM     28  C   UNL     1       7.095  37.244  20.693  0.00  0.00    +0.000 C 
ATOM     29  C   UNL     1       6.131  37.074  19.996  0.00  0.00    +0.000 C 
BRANCH  28  30
ATOM     30  C   UNL     1       8.327  37.468  21.579  0.00  0.00    +0.000 C 
BRANCH  30  31
ATOM     31  C   UNL     1       9.365  37.658  22.332  0.00  0.00    +0.000 C 
ATOM     32  C   UNL     1       9.543  38.964  23.043  0.00  0.00    +0.000 C 
BRANCH  31  34
ATOM     33  C   UNL     1      11.102  35.726  22.674  0.00  0.00    +0.000 C 
ATOM     34  C   UNL     1      10.303  36.612  22.519  0.00  0.00    +0.000 C 
BRANCH  33  36
ATOM     35  O   UNL     1      12.152  33.852  21.647  0.00  0.00    +0.000 OA
ATOM     36  C   UNL     1      12.073  34.658  22.857  0.00  0.00    +0.000 C 
ATOM     37  C   UNL     1      13.325  34.602  21.956  0.00  0.00    +0.000 C 
ATOM     38  C   UNL     1      12.108  33.875  24.218  0.00  0.00    +0.000 C 
ATOM     39  C   UNL     1      14.401  33.770  22.387  0.00  0.00    +0.000 C 
ATOM     40  C   UNL     1      13.347  33.094  24.232  0.00  0.00    +0.000 C 
ATOM     41  C   UNL     1      14.540  32.928  23.503  0.00  0.00    +0.000 C 
ATOM     42  C   UNL     1      13.660  35.662  20.904  0.00  0.00    +0.000 C 
ATOM     43  C   UNL     1      10.826  33.012  24.248  0.00  0.00    +0.000 C 
ATOM     44  C   UNL     1      12.122  34.961  25.324  0.00  0.00    +0.000 C 
BRANCH  41  45
ATOM     45  O   UNL     1      15.732  32.727  24.131  0.00  0.00    +0.000 OA
ATOM     46  H   UNL     1      15.695  32.948  25.079  0.00  0.00    +0.000 HD
ENDBRANCH  41  45
ENDBRANCH  33  36
ENDBRANCH  31  34
ENDBRANCH  30  31
ENDBRANCH  28  30
ENDBRANCH  26  29
ENDBRANCH  25  26
ENDBRANCH   1  25
TORSDOF 16
ENDMDL
MODEL 3
REMARK VINA RESULT:      -5.9     12.840     16.463
REMARK  Name = 448438_Violaxanthin.pdbqt.pdb
REMARK  16 active torsions:
REMARK  status: ('A' for Active; 'I' for Inactive)
REMARK    1  A    between atoms: C_1  and  C_5
REMARK    2  A    between atoms: C_2  and  C_27
REMARK    3  A    between atoms: C_3  and  C_5
REMARK    4  A    between atoms: C_3  and  C_7
REMARK    5  A    between atoms: C_6  and  C_10
REMARK    6  A    between atoms: C_8  and  C_10
REMARK    7  A    between atoms: C_8  and  C_12
REMARK    8  A    between atoms: C_11  and  C_14
REMARK    9  A    between atoms: C_19  and  O_23
REMARK   10  A    between atoms: C_25  and  C_27
REMARK   11  A    between atoms: C_25  and  C_29
REMARK   12  A    between atoms: C_28  and  C_32
REMARK   13  A    between atoms: C_30  and  C_32
REMARK   14  A    between atoms: C_30  and  C_34
REMARK   15  A    between atoms: C_33  and  C_36
REMARK   16  A    between atoms: C_41  and  O_45
REMARK                            x       y       z     vdW  Elec       q    Type
REMARK                         _______ _______ _______ _____ _____    ______ ____
ROOT
ATOM      1  C   UNL     1       4.276  35.312  16.791  0.00  0.00    +0.000 C 
ATOM      2  C   UNL     1       3.915  36.067  17.651  0.00  0.00    +0.000 C 
ENDROOT
BRANCH   2   3
ATOM      3  C   UNL     1       3.455  37.033  18.749  0.00  0.00    +0.000 C 
BRANCH   3   4
ATOM      4  C   UNL     1       3.068  37.848  19.679  0.00  0.00    +0.000 C 
ATOM      5  C   UNL     1       1.905  38.761  19.433  0.00  0.00    +0.000 C 
BRANCH   4   7
ATOM      6  C   UNL     1       4.394  37.989  21.929  0.00  0.00    +0.000 C 
ATOM      7  C   UNL     1       3.785  37.925  20.896  0.00  0.00    +0.000 C 
BRANCH   6   8
ATOM      8  C   UNL     1       5.171  38.070  23.249  0.00  0.00    +0.000 C 
BRANCH   8   9
ATOM      9  C   UNL     1       5.825  38.139  24.367  0.00  0.00    +0.000 C 
ATOM     10  C   UNL     1       6.723  39.307  24.636  0.00  0.00    +0.000 C 
BRANCH   9  12
ATOM     11  C   UNL     1       5.403  36.362  26.244  0.00  0.00    +0.000 C 
ATOM     12  C   UNL     1       5.594  37.175  25.379  0.00  0.00    +0.000 C 
BRANCH  11  14
ATOM     13  O   UNL     1       5.175  34.049  26.744  0.00  0.00    +0.000 OA
ATOM     14  C   UNL     1       5.184  35.392  27.306  0.00  0.00    +0.000 C 
ATOM     15  C   UNL     1       6.271  34.339  27.611  0.00  0.00    +0.000 C 
ATOM     16  C   UNL     1       4.119  35.689  28.415  0.00  0.00    +0.000 C 
ATOM     17  C   UNL     1       6.170  33.647  28.854  0.00  0.00    +0.000 C 
ATOM     18  C   UNL     1       4.305  34.695  29.482  0.00  0.00    +0.000 C 
ATOM     19  C   UNL     1       5.217  33.700  29.885  0.00  0.00    +0.000 C 
ATOM     20  C   UNL     1       7.629  34.313  26.904  0.00  0.00    +0.000 C 
ATOM     21  C   UNL     1       4.440  37.109  28.943  0.00  0.00    +0.000 C 
ATOM     22  C   UNL     1       2.736  35.597  27.736  0.00  0.00    +0.000 C 
BRANCH  19  23
ATOM     23  O   UNL     1       4.832  32.581  30.559  0.00  0.00    +0.000 OA
ATOM     24  H   UNL     1       4.039  32.165  30.177  0.00  0.00    +0.000 HD
ENDBRANCH  19  23
ENDBRANCH  11  14
ENDBRANCH   9  12
ENDBRANCH   8   9
ENDBRANCH   6   8
ENDBRANCH   4   7
ENDBRANCH   3   4
ENDBRANCH   2   3
BRANCH   1  25
ATOM     25  C   UNL     1       4.737  34.346  15.692  0.00  0.00    +0.000 C 
BRANCH  25  26
ATOM     26  C   UNL     1       5.126  33.531  14.763  0.00  0.00    +0.000 C 
ATOM     27  C   UNL     1       6.572  33.486  14.368  0.00  0.00    +0.000 C 
BRANCH  26  29
ATOM     28  C   UNL     1       3.406  31.932  13.614  0.00  0.00    +0.000 C 
ATOM     29  C   UNL     1       4.194  32.667  14.143  0.00  0.00    +0.000 C 
BRANCH  28  30
ATOM     30  C   UNL     1       2.403  30.990  12.935  0.00  0.00    +0.000 C 
BRANCH  30  31
ATOM     31  C   UNL     1       1.558  30.191  12.363  0.00  0.00    +0.000 C 
ATOM     32  C   UNL     1       1.516  30.094  10.868  0.00  0.00    +0.000 C 
BRANCH  31  34
ATOM     33  C   UNL     1      -0.007  28.679  13.821  0.00  0.00    +0.000 C 
ATOM     34  C   UNL     1       0.710  29.376  13.152  0.00  0.00    +0.000 C 
BRANCH  33  36
ATOM     35  O   UNL     1      -1.961  27.317  13.816  0.00  0.00    +0.000 OA
ATOM     36  C   UNL     1      -0.870  27.832  14.632  0.00  0.00    +0.000 C 
ATOM     37  C   UNL     1      -1.028  26.339  14.274  0.00  0.00    +0.000 C 
ATOM     38  C   UNL     1      -1.246  28.285  16.088  0.00  0.00    +0.000 C 
ATOM     39  C   UNL     1      -1.587  25.486  15.271  0.00  0.00    +0.000 C 
ATOM     40  C   UNL     1      -1.850  27.130  16.754  0.00  0.00    +0.000 C 
ATOM     41  C   UNL     1      -2.072  25.753  16.562  0.00  0.00    +0.000 C 
ATOM     42  C   UNL     1      -0.263  25.654  13.139  0.00  0.00    +0.000 C 
ATOM     43  C   UNL     1      -2.206  29.486  15.928  0.00  0.00    +0.000 C 
ATOM     44  C   UNL     1       0.095  28.678  16.761  0.00  0.00    +0.000 C 
BRANCH  41  45
ATOM     45  O   UNL     1      -1.961  24.866  17.590  0.00  0.00    +0.000 OA
ATOM     46  H   UNL     1      -2.654  24.990  18.264  0.00  0.00    +0.000 HD
ENDBRANCH  41  45
ENDBRANCH  33  36
ENDBRANCH  31  34
ENDBRANCH  30  31
ENDBRANCH  28  30
ENDBRANCH  26  29
ENDBRANCH  25  26
ENDBRANCH   1  25
TORSDOF 16
ENDMDL
MODEL 4
REMARK VINA RESULT:      -5.8     23.044     27.935
REMARK  Name = 448438_Violaxanthin.pdbqt.pdb
REMARK  16 active torsions:
REMARK  status: ('A' for Active; 'I' for Inactive)
REMARK    1  A    between atoms: C_1  and  C_5
REMARK    2  A    between atoms: C_2  and  C_27
REMARK    3  A    between atoms: C_3  and  C_5
REMARK    4  A    between atoms: C_3  and  C_7
REMARK    5  A    between atoms: C_6  and  C_10
REMARK    6  A    between atoms: C_8  and  C_10
REMARK    7  A    between atoms: C_8  and  C_12
REMARK    8  A    between atoms: C_11  and  C_14
REMARK    9  A    between atoms: C_19  and  O_23
REMARK   10  A    between atoms: C_25  and  C_27
REMARK   11  A    between atoms: C_25  and  C_29
REMARK   12  A    between atoms: C_28  and  C_32
REMARK   13  A    between atoms: C_30  and  C_32
REMARK   14  A    between atoms: C_30  and  C_34
REMARK   15  A    between atoms: C_33  and  C_36
REMARK   16  A    between atoms: C_41  and  O_45
REMARK                            x       y       z     vdW  Elec       q    Type
REMARK                         _______ _______ _______ _____ _____    ______ ____
ROOT
ATOM      1  C   UNL     1      13.869  -1.610  24.803  0.00  0.00    +0.000 C 
ATOM      2  C   UNL     1      13.619  -2.238  23.812  0.00  0.00    +0.000 C 
ENDROOT
BRANCH   2   3
ATOM      3  C   UNL     1      13.295  -3.041  22.547  0.00  0.00    +0.000 C 
BRANCH   3   4
ATOM      4  C   UNL     1      13.020  -3.721  21.479  0.00  0.00    +0.000 C 
ATOM      5  C   UNL     1      11.806  -4.601  21.447  0.00  0.00    +0.000 C 
BRANCH   4   7
ATOM      6  C   UNL     1      14.647  -3.657  19.431  0.00  0.00    +0.000 C 
ATOM      7  C   UNL     1      13.900  -3.686  20.371  0.00  0.00    +0.000 C 
BRANCH   6   8
ATOM      8  C   UNL     1      15.602  -3.617  18.232  0.00  0.00    +0.000 C 
BRANCH   8   9
ATOM      9  C   UNL     1      16.409  -3.587  17.217  0.00  0.00    +0.000 C 
ATOM     10  C   UNL     1      16.017  -4.249  15.932  0.00  0.00    +0.000 C 
BRANCH   9  12
ATOM     11  C   UNL     1      18.608  -2.169  17.348  0.00  0.00    +0.000 C 
ATOM     12  C   UNL     1      17.601  -2.824  17.287  0.00  0.00    +0.000 C 
BRANCH  11  14
ATOM     13  O   UNL     1      20.739  -1.761  16.379  0.00  0.00    +0.000 OA
ATOM     14  C   UNL     1      19.812  -1.357  17.425  0.00  0.00    +0.000 C 
ATOM     15  C   UNL     1      20.195  -0.449  16.237  0.00  0.00    +0.000 C 
ATOM     16  C   UNL     1      20.439  -1.038  18.825  0.00  0.00    +0.000 C 
ATOM     17  C   UNL     1      21.167   0.565  16.486  0.00  0.00    +0.000 C 
ATOM     18  C   UNL     1      21.456   0.003  18.624  0.00  0.00    +0.000 C 
ATOM     19  C   UNL     1      21.912   0.893  17.631  0.00  0.00    +0.000 C 
ATOM     20  C   UNL     1      19.316  -0.285  14.995  0.00  0.00    +0.000 C 
ATOM     21  C   UNL     1      19.280  -0.494  19.695  0.00  0.00    +0.000 C 
ATOM     22  C   UNL     1      21.024  -2.362  19.359  0.00  0.00    +0.000 C 
BRANCH  19  23
ATOM     23  O   UNL     1      23.209   1.299  17.548  0.00  0.00    +0.000 OA
ATOM     24  H   UNL     1      23.326   2.069  16.962  0.00  0.00    +0.000 HD
ENDBRANCH  19  23
ENDBRANCH  11  14
ENDBRANCH   9  12
ENDBRANCH   8   9
ENDBRANCH   6   8
ENDBRANCH   4   7
ENDBRANCH   3   4
ENDBRANCH   2   3
BRANCH   1  25
ATOM     25  C   UNL     1      14.192  -0.807  26.069  0.00  0.00    +0.000 C 
BRANCH  25  26
ATOM     26  C   UNL     1      14.464  -0.128  27.139  0.00  0.00    +0.000 C 
ATOM     27  C   UNL     1      13.416   0.049  28.196  0.00  0.00    +0.000 C 
BRANCH  26  29
ATOM     28  C   UNL     1      16.849   0.889  27.477  0.00  0.00    +0.000 C 
ATOM     29  C   UNL     1      15.754   0.421  27.320  0.00  0.00    +0.000 C 
BRANCH  28  30
ATOM     30  C   UNL     1      18.245   1.492  27.682  0.00  0.00    +0.000 C 
BRANCH  30  31
ATOM     31  C   UNL     1      19.423   2.004  27.851  0.00  0.00    +0.000 C 
ATOM     32  C   UNL     1      19.774   2.656  29.154  0.00  0.00    +0.000 C 
BRANCH  31  34
ATOM     33  C   UNL     1      21.219   1.823  25.952  0.00  0.00    +0.000 C 
ATOM     34  C   UNL     1      20.392   1.905  26.822  0.00  0.00    +0.000 C 
BRANCH  33  36
ATOM     35  O   UNL     1      22.127   2.874  24.017  0.00  0.00    +0.000 OA
ATOM     36  C   UNL     1      22.224   1.723  24.904  0.00  0.00    +0.000 C 
ATOM     37  C   UNL     1      23.321   2.802  24.793  0.00  0.00    +0.000 C 
ATOM     38  C   UNL     1      22.481   0.335  24.215  0.00  0.00    +0.000 C 
ATOM     39  C   UNL     1      24.464   2.490  23.997  0.00  0.00    +0.000 C 
ATOM     40  C   UNL     1      23.719   0.462  23.443  0.00  0.00    +0.000 C 
ATOM     41  C   UNL     1      24.788   1.355  23.235  0.00  0.00    +0.000 C 
ATOM     42  C   UNL     1      23.472   3.962  25.781  0.00  0.00    +0.000 C 
ATOM     43  C   UNL     1      21.233   0.048  23.350  0.00  0.00    +0.000 C 
ATOM     44  C   UNL     1      22.650  -0.681  25.374  0.00  0.00    +0.000 C 
BRANCH  41  45
ATOM     45  O   UNL     1      26.066   0.909  23.083  0.00  0.00    +0.000 OA
ATOM     46  H   UNL     1      26.509   0.753  23.937  0.00  0.00    +0.000 HD
ENDBRANCH  41  45
ENDBRANCH  33  36
ENDBRANCH  31  34
ENDBRANCH  30  31
ENDBRANCH  28  30
ENDBRANCH  26  29
ENDBRANCH  25  26
ENDBRANCH   1  25
TORSDOF 16
ENDMDL
MODEL 5
REMARK VINA RESULT:      -5.7     13.445     16.700
REMARK  Name = 448438_Violaxanthin.pdbqt.pdb
REMARK  16 active torsions:
REMARK  status: ('A' for Active; 'I' for Inactive)
REMARK    1  A    between atoms: C_1  and  C_5
REMARK    2  A    between atoms: C_2  and  C_27
REMARK    3  A    between atoms: C_3  and  C_5
REMARK    4  A    between atoms: C_3  and  C_7
REMARK    5  A    between atoms: C_6  and  C_10
REMARK    6  A    between atoms: C_8  and  C_10
REMARK    7  A    between atoms: C_8  and  C_12
REMARK    8  A    between atoms: C_11  and  C_14
REMARK    9  A    between atoms: C_19  and  O_23
REMARK   10  A    between atoms: C_25  and  C_27
REMARK   11  A    between atoms: C_25  and  C_29
REMARK   12  A    between atoms: C_28  and  C_32
REMARK   13  A    between atoms: C_30  and  C_32
REMARK   14  A    between atoms: C_30  and  C_34
REMARK   15  A    between atoms: C_33  and  C_36
REMARK   16  A    between atoms: C_41  and  O_45
REMARK                            x       y       z     vdW  Elec       q    Type
REMARK                         _______ _______ _______ _____ _____    ______ ____
ROOT
ATOM      1  C   UNL     1       4.787  34.866  15.650  0.00  0.00    +0.000 C 
ATOM      2  C   UNL     1       4.665  35.411  16.712  0.00  0.00    +0.000 C 
ENDROOT
BRANCH   2   3
ATOM      3  C   UNL     1       4.512  36.110  18.068  0.00  0.00    +0.000 C 
BRANCH   3   4
ATOM      4  C   UNL     1       4.381  36.701  19.214  0.00  0.00    +0.000 C 
ATOM      5  C   UNL     1       3.013  37.042  19.725  0.00  0.00    +0.000 C 
BRANCH   4   7
ATOM      6  C   UNL     1       6.502  37.414  20.569  0.00  0.00    +0.000 C 
ATOM      7  C   UNL     1       5.528  37.086  19.947  0.00  0.00    +0.000 C 
BRANCH   6   8
ATOM      8  C   UNL     1       7.746  37.830  21.363  0.00  0.00    +0.000 C 
BRANCH   8   9
ATOM      9  C   UNL     1       8.799  38.185  22.032  0.00  0.00    +0.000 C 
ATOM     10  C   UNL     1       8.881  39.561  22.619  0.00  0.00    +0.000 C 
BRANCH   9  12
ATOM     11  C   UNL     1      10.673  36.427  22.540  0.00  0.00    +0.000 C 
ATOM     12  C   UNL     1       9.811  37.233  22.311  0.00  0.00    +0.000 C 
BRANCH  11  14
ATOM     13  O   UNL     1      11.295  34.143  22.323  0.00  0.00    +0.000 OA
ATOM     14  C   UNL     1      11.723  35.453  22.793  0.00  0.00    +0.000 C 
ATOM     15  C   UNL     1      12.385  34.721  21.605  0.00  0.00    +0.000 C 
ATOM     16  C   UNL     1      12.494  35.486  24.156  0.00  0.00    +0.000 C 
ATOM     17  C   UNL     1      13.616  34.049  21.865  0.00  0.00    +0.000 C 
ATOM     18  C   UNL     1      13.655  34.592  24.027  0.00  0.00    +0.000 C 
ATOM     19  C   UNL     1      14.361  33.873  23.043  0.00  0.00    +0.000 C 
ATOM     20  C   UNL     1      12.053  35.034  20.143  0.00  0.00    +0.000 C 
ATOM     21  C   UNL     1      12.963  36.949  24.345  0.00  0.00    +0.000 C 
ATOM     22  C   UNL     1      11.495  35.028  25.239  0.00  0.00    +0.000 C 
BRANCH  19  23
ATOM     23  O   UNL     1      15.008  32.705  23.310  0.00  0.00    +0.000 OA
ATOM     24  H   UNL     1      15.756  32.543  22.708  0.00  0.00    +0.000 HD
ENDBRANCH  19  23
ENDBRANCH  11  14
ENDBRANCH   9  12
ENDBRANCH   8   9
ENDBRANCH   6   8
ENDBRANCH   4   7
ENDBRANCH   3   4
ENDBRANCH   2   3
BRANCH   1  25
ATOM     25  C   UNL     1       4.941  34.168  14.294  0.00  0.00    +0.000 C 
BRANCH  25  26
ATOM     26  C   UNL     1       5.071  33.578  13.147  0.00  0.00    +0.000 C 
ATOM     27  C   UNL     1       6.251  33.892  12.276  0.00  0.00    +0.000 C 
BRANCH  26  29
ATOM     28  C   UNL     1       3.303  31.812  12.378  0.00  0.00    +0.000 C 
ATOM     29  C   UNL     1       4.117  32.622  12.730  0.00  0.00    +0.000 C 
BRANCH  28  30
ATOM     30  C   UNL     1       2.259  30.779  11.933  0.00  0.00    +0.000 C 
BRANCH  30  31
ATOM     31  C   UNL     1       1.380  29.906  11.553  0.00  0.00    +0.000 C 
ATOM     32  C   UNL     1       1.224  29.588  10.097  0.00  0.00    +0.000 C 
BRANCH  31  34
ATOM     33  C   UNL     1      -0.061  28.633  13.334  0.00  0.00    +0.000 C 
ATOM     34  C   UNL     1       0.603  29.218  12.518  0.00  0.00    +0.000 C 
BRANCH  33  36
ATOM     35  O   UNL     1      -2.097  27.453  13.695  0.00  0.00    +0.000 OA
ATOM     36  C   UNL     1      -0.866  27.922  14.315  0.00  0.00    +0.000 C 
ATOM     37  C   UNL     1      -1.190  26.429  14.098  0.00  0.00    +0.000 C 
ATOM     38  C   UNL     1      -0.997  28.502  15.769  0.00  0.00    +0.000 C 
ATOM     39  C   UNL     1      -1.670  25.696  15.225  0.00  0.00    +0.000 C 
ATOM     40  C   UNL     1      -1.591  27.451  16.598  0.00  0.00    +0.000 C 
ATOM     41  C   UNL     1      -1.947  26.090  16.544  0.00  0.00    +0.000 C 
ATOM     42  C   UNL     1      -0.649  25.606  12.927  0.00  0.00    +0.000 C 
ATOM     43  C   UNL     1      -1.871  29.770  15.647  0.00  0.00    +0.000 C 
ATOM     44  C   UNL     1       0.452  28.817  16.224  0.00  0.00    +0.000 C 
BRANCH  41  45
ATOM     45  O   UNL     1      -1.764  25.266  17.613  0.00  0.00    +0.000 OA
ATOM     46  H   UNL     1      -0.882  24.849  17.615  0.00  0.00    +0.000 HD
ENDBRANCH  41  45
ENDBRANCH  33  36
ENDBRANCH  31  34
ENDBRANCH  30  31
ENDBRANCH  28  30
ENDBRANCH  26  29
ENDBRANCH  25  26
ENDBRANCH   1  25
TORSDOF 16
ENDMDL
MODEL 6
REMARK VINA RESULT:      -5.7      8.553     16.843
REMARK  Name = 448438_Violaxanthin.pdbqt.pdb
REMARK  16 active torsions:
REMARK  status: ('A' for Active; 'I' for Inactive)
REMARK    1  A    between atoms: C_1  and  C_5
REMARK    2  A    between atoms: C_2  and  C_27
REMARK    3  A    between atoms: C_3  and  C_5
REMARK    4  A    between atoms: C_3  and  C_7
REMARK    5  A    between atoms: C_6  and  C_10
REMARK    6  A    between atoms: C_8  and  C_10
REMARK    7  A    between atoms: C_8  and  C_12
REMARK    8  A    between atoms: C_11  and  C_14
REMARK    9  A    between atoms: C_19  and  O_23
REMARK   10  A    between atoms: C_25  and  C_27
REMARK   11  A    between atoms: C_25  and  C_29
REMARK   12  A    between atoms: C_28  and  C_32
REMARK   13  A    between atoms: C_30  and  C_32
REMARK   14  A    between atoms: C_30  and  C_34
REMARK   15  A    between atoms: C_33  and  C_36
REMARK   16  A    between atoms: C_41  and  O_45
REMARK                            x       y       z     vdW  Elec       q    Type
REMARK                         _______ _______ _______ _____ _____    ______ ____
ROOT
ATOM      1  C   UNL     1       5.888  12.570  30.006  0.00  0.00    +0.000 C 
ATOM      2  C   UNL     1       6.218  11.471  29.655  0.00  0.00    +0.000 C 
ENDROOT
BRANCH   2   3
ATOM      3  C   UNL     1       6.639  10.066  29.209  0.00  0.00    +0.000 C 
BRANCH   3   4
ATOM      4  C   UNL     1       6.998   8.879  28.832  0.00  0.00    +0.000 C 
ATOM      5  C   UNL     1       8.327   8.331  29.259  0.00  0.00    +0.000 C 
BRANCH   4   7
ATOM      6  C   UNL     1       5.464   7.497  27.227  0.00  0.00    +0.000 C 
ATOM      7  C   UNL     1       6.168   8.132  27.964  0.00  0.00    +0.000 C 
BRANCH   6   8
ATOM      8  C   UNL     1       4.562   6.688  26.287  0.00  0.00    +0.000 C 
BRANCH   8   9
ATOM      9  C   UNL     1       3.800   6.000  25.494  0.00  0.00    +0.000 C 
ATOM     10  C   UNL     1       2.522   6.594  24.985  0.00  0.00    +0.000 C 
BRANCH   9  12
ATOM     11  C   UNL     1       4.604   3.674  24.597  0.00  0.00    +0.000 C 
ATOM     12  C   UNL     1       4.237   4.741  25.013  0.00  0.00    +0.000 C 
BRANCH  11  14
ATOM     13  O   UNL     1       3.913   1.466  24.054  0.00  0.00    +0.000 OA
ATOM     14  C   UNL     1       5.038   2.388  24.072  0.00  0.00    +0.000 C 
ATOM     15  C   UNL     1       4.409   1.846  22.771  0.00  0.00    +0.000 C 
ATOM     16  C   UNL     1       6.416   1.797  24.523  0.00  0.00    +0.000 C 
ATOM     17  C   UNL     1       5.092   0.776  22.120  0.00  0.00    +0.000 C 
ATOM     18  C   UNL     1       6.714   0.656  23.645  0.00  0.00    +0.000 C 
ATOM     19  C   UNL     1       6.248   0.054  22.459  0.00  0.00    +0.000 C 
ATOM     20  C   UNL     1       3.399   2.641  21.938  0.00  0.00    +0.000 C 
ATOM     21  C   UNL     1       7.454   2.924  24.308  0.00  0.00    +0.000 C 
ATOM     22  C   UNL     1       6.260   1.395  26.005  0.00  0.00    +0.000 C 
BRANCH  19  23
ATOM     23  O   UNL     1       6.348  -1.284  22.227  0.00  0.00    +0.000 OA
ATOM     24  H   UNL     1       6.653  -1.780  23.008  0.00  0.00    +0.000 HD
ENDBRANCH  19  23
ENDBRANCH  11  14
ENDBRANCH   9  12
ENDBRANCH   8   9
ENDBRANCH   6   8
ENDBRANCH   4   7
ENDBRANCH   3   4
ENDBRANCH   2   3
BRANCH   1  25
ATOM     25  C   UNL     1       5.466  13.975  30.453  0.00  0.00    +0.000 C 
BRANCH  25  26
ATOM     26  C   UNL     1       5.110  15.163  30.830  0.00  0.00    +0.000 C 
ATOM     27  C   UNL     1       5.795  15.812  31.996  0.00  0.00    +0.000 C 
BRANCH  26  29
ATOM     28  C   UNL     1       3.239  16.446  29.530  0.00  0.00    +0.000 C 
ATOM     29  C   UNL     1       4.097  15.855  30.128  0.00  0.00    +0.000 C 
BRANCH  28  30
ATOM     30  C   UNL     1       2.147  17.206  28.766  0.00  0.00    +0.000 C 
BRANCH  30  31
ATOM     31  C   UNL     1       1.223  17.850  28.125  0.00  0.00    +0.000 C 
ATOM     32  C   UNL     1       0.748  19.177  28.633  0.00  0.00    +0.000 C 
BRANCH  31  34
ATOM     33  C   UNL     1       0.245  16.871  25.900  0.00  0.00    +0.000 C 
ATOM     34  C   UNL     1       0.697  17.320  26.921  0.00  0.00    +0.000 C 
BRANCH  33  36
ATOM     35  O   UNL     1      -1.584  16.970  24.378  0.00  0.00    +0.000 OA
ATOM     36  C   UNL     1      -0.306  16.333  24.665  0.00  0.00    +0.000 C 
ATOM     37  C   UNL     1      -0.534  17.269  23.460  0.00  0.00    +0.000 C 
ATOM     38  C   UNL     1      -0.223  14.788  24.395  0.00  0.00    +0.000 C 
ATOM     39  C   UNL     1      -0.738  16.655  22.188  0.00  0.00    +0.000 C 
ATOM     40  C   UNL     1      -0.567  14.580  22.986  0.00  0.00    +0.000 C 
ATOM     41  C   UNL     1      -0.807  15.305  21.804  0.00  0.00    +0.000 C 
ATOM     42  C   UNL     1      -0.142  18.749  23.449  0.00  0.00    +0.000 C 
ATOM     43  C   UNL     1      -1.212  14.127  25.382  0.00  0.00    +0.000 C 
ATOM     44  C   UNL     1       1.250  14.394  24.672  0.00  0.00    +0.000 C 
BRANCH  41  45
ATOM     45  O   UNL     1      -0.365  14.859  20.595  0.00  0.00    +0.000 OA
ATOM     46  H   UNL     1       0.608  14.835  20.542  0.00  0.00    +0.000 HD
ENDBRANCH  41  45
ENDBRANCH  33  36
ENDBRANCH  31  34
ENDBRANCH  30  31
ENDBRANCH  28  30
ENDBRANCH  26  29
ENDBRANCH  25  26
ENDBRANCH   1  25
TORSDOF 16
ENDMDL
MODEL 7
REMARK VINA RESULT:      -5.7      6.608      9.167
REMARK  Name = 448438_Violaxanthin.pdbqt.pdb
REMARK  16 active torsions:
REMARK  status: ('A' for Active; 'I' for Inactive)
REMARK    1  A    between atoms: C_1  and  C_5
REMARK    2  A    between atoms: C_2  and  C_27
REMARK    3  A    between atoms: C_3  and  C_5
REMARK    4  A    between atoms: C_3  and  C_7
REMARK    5  A    between atoms: C_6  and  C_10
REMARK    6  A    between atoms: C_8  and  C_10
REMARK    7  A    between atoms: C_8  and  C_12
REMARK    8  A    between atoms: C_11  and  C_14
REMARK    9  A    between atoms: C_19  and  O_23
REMARK   10  A    between atoms: C_25  and  C_27
REMARK   11  A    between atoms: C_25  and  C_29
REMARK   12  A    between atoms: C_28  and  C_32
REMARK   13  A    between atoms: C_30  and  C_32
REMARK   14  A    between atoms: C_30  and  C_34
REMARK   15  A    between atoms: C_33  and  C_36
REMARK   16  A    between atoms: C_41  and  O_45
REMARK                            x       y       z     vdW  Elec       q    Type
REMARK                         _______ _______ _______ _____ _____    ______ ____
ROOT
ATOM      1  C   UNL     1       1.846  19.319  29.033  0.00  0.00    +0.000 C 
ATOM      2  C   UNL     1       2.668  19.971  29.614  0.00  0.00    +0.000 C 
ENDROOT
BRANCH   2   3
ATOM      3  C   UNL     1       3.717  20.807  30.357  0.00  0.00    +0.000 C 
BRANCH   3   4
ATOM      4  C   UNL     1       4.605  21.512  30.985  0.00  0.00    +0.000 C 
ATOM      5  C   UNL     1       4.184  22.729  31.752  0.00  0.00    +0.000 C 
BRANCH   4   7
ATOM      6  C   UNL     1       7.138  20.884  30.809  0.00  0.00    +0.000 C 
ATOM      7  C   UNL     1       5.975  21.172  30.890  0.00  0.00    +0.000 C 
BRANCH   6   8
ATOM      8  C   UNL     1       8.624  20.518  30.706  0.00  0.00    +0.000 C 
BRANCH   8   9
ATOM      9  C   UNL     1       9.880  20.205  30.619  0.00  0.00    +0.000 C 
ATOM     10  C   UNL     1      10.925  21.272  30.730  0.00  0.00    +0.000 C 
BRANCH   9  12
ATOM     11  C   UNL     1      10.580  17.685  30.477  0.00  0.00    +0.000 C 
ATOM     12  C   UNL     1      10.263  18.843  30.544  0.00  0.00    +0.000 C 
BRANCH  11  14
ATOM     13  O   UNL     1      11.194  15.925  29.003  0.00  0.00    +0.000 OA
ATOM     14  C   UNL     1      10.940  16.278  30.391  0.00  0.00    +0.000 C 
ATOM     15  C   UNL     1      12.333  15.880  29.860  0.00  0.00    +0.000 C 
ATOM     16  C   UNL     1      10.152  15.226  31.244  0.00  0.00    +0.000 C 
ATOM     17  C   UNL     1      12.764  14.543  30.113  0.00  0.00    +0.000 C 
ATOM     18  C   UNL     1      10.892  13.959  31.174  0.00  0.00    +0.000 C 
ATOM     19  C   UNL     1      12.133  13.454  30.736  0.00  0.00    +0.000 C 
ATOM     20  C   UNL     1      13.411  16.905  29.495  0.00  0.00    +0.000 C 
ATOM     21  C   UNL     1      10.153  15.768  32.694  0.00  0.00    +0.000 C 
ATOM     22  C   UNL     1       8.736  15.136  30.636  0.00  0.00    +0.000 C 
BRANCH  19  23
ATOM     23  O   UNL     1      12.287  12.181  30.276  0.00  0.00    +0.000 OA
ATOM     24  H   UNL     1      12.277  12.128  29.304  0.00  0.00    +0.000 HD
ENDBRANCH  19  23
ENDBRANCH  11  14
ENDBRANCH   9  12
ENDBRANCH   8   9
ENDBRANCH   6   8
ENDBRANCH   4   7
ENDBRANCH   3   4
ENDBRANCH   2   3
BRANCH   1  25
ATOM     25  C   UNL     1       0.797  18.484  28.289  0.00  0.00    +0.000 C 
BRANCH  25  26
ATOM     26  C   UNL     1      -0.090  17.778  27.661  0.00  0.00    +0.000 C 
ATOM     27  C   UNL     1      -0.817  16.681  28.380  0.00  0.00    +0.000 C 
BRANCH  26  29
ATOM     28  C   UNL     1      -0.648  18.296  25.159  0.00  0.00    +0.000 C 
ATOM     29  C   UNL     1      -0.390  18.059  26.308  0.00  0.00    +0.000 C 
BRANCH  28  30
ATOM     30  C   UNL     1      -0.983  18.595  23.692  0.00  0.00    +0.000 C 
BRANCH  30  31
ATOM     31  C   UNL     1      -1.266  18.842  22.452  0.00  0.00    +0.000 C 
ATOM     32  C   UNL     1      -0.335  18.389  21.369  0.00  0.00    +0.000 C 
BRANCH  31  34
ATOM     33  C   UNL     1      -3.502  20.059  21.835  0.00  0.00    +0.000 C 
ATOM     34  C   UNL     1      -2.477  19.498  22.120  0.00  0.00    +0.000 C 
BRANCH  33  36
ATOM     35  O   UNL     1      -5.068  20.478  20.090  0.00  0.00    +0.000 OA
ATOM     36  C   UNL     1      -4.740  20.740  21.485  0.00  0.00    +0.000 C 
ATOM     37  C   UNL     1      -5.967  19.915  21.044  0.00  0.00    +0.000 C 
ATOM     38  C   UNL     1      -4.981  22.207  21.991  0.00  0.00    +0.000 C 
ATOM     39  C   UNL     1      -7.232  20.574  21.049  0.00  0.00    +0.000 C 
ATOM     40  C   UNL     1      -6.393  22.516  21.756  0.00  0.00    +0.000 C 
ATOM     41  C   UNL     1      -7.594  21.896  21.360  0.00  0.00    +0.000 C 
ATOM     42  C   UNL     1      -5.994  18.384  21.019  0.00  0.00    +0.000 C 
ATOM     43  C   UNL     1      -4.006  23.102  21.193  0.00  0.00    +0.000 C 
ATOM     44  C   UNL     1      -4.662  22.182  23.508  0.00  0.00    +0.000 C 
BRANCH  41  45
ATOM     45  O   UNL     1      -8.783  22.217  21.940  0.00  0.00    +0.000 OA
ATOM     46  H   UNL     1      -9.468  22.443  21.285  0.00  0.00    +0.000 HD
ENDBRANCH  41  45
ENDBRANCH  33  36
ENDBRANCH  31  34
ENDBRANCH  30  31
ENDBRANCH  28  30
ENDBRANCH  26  29
ENDBRANCH  25  26
ENDBRANCH   1  25
TORSDOF 16
ENDMDL
MODEL 8
REMARK VINA RESULT:      -5.6     19.761     24.448
REMARK  Name = 448438_Violaxanthin.pdbqt.pdb
REMARK  16 active torsions:
REMARK  status: ('A' for Active; 'I' for Inactive)
REMARK    1  A    between atoms: C_1  and  C_5
REMARK    2  A    between atoms: C_2  and  C_27
REMARK    3  A    between atoms: C_3  and  C_5
REMARK    4  A    between atoms: C_3  and  C_7
REMARK    5  A    between atoms: C_6  and  C_10
REMARK    6  A    between atoms: C_8  and  C_10
REMARK    7  A    between atoms: C_8  and  C_12
REMARK    8  A    between atoms: C_11  and  C_14
REMARK    9  A    between atoms: C_19  and  O_23
REMARK   10  A    between atoms: C_25  and  C_27
REMARK   11  A    between atoms: C_25  and  C_29
REMARK   12  A    between atoms: C_28  and  C_32
REMARK   13  A    between atoms: C_30  and  C_32
REMARK   14  A    between atoms: C_30  and  C_34
REMARK   15  A    between atoms: C_33  and  C_36
REMARK   16  A    between atoms: C_41  and  O_45
REMARK                            x       y       z     vdW  Elec       q    Type
REMARK                         _______ _______ _______ _____ _____    ______ ____
ROOT
ATOM      1  C   UNL     1      18.664   8.716  33.917  0.00  0.00    +0.000 C 
ATOM      2  C   UNL     1      18.104   7.657  33.853  0.00  0.00    +0.000 C 
ENDROOT
BRANCH   2   3
ATOM      3  C   UNL     1      17.389   6.303  33.767  0.00  0.00    +0.000 C 
BRANCH   3   4
ATOM      4  C   UNL     1      16.784   5.159  33.693  0.00  0.00    +0.000 C 
ATOM      5  C   UNL     1      15.845   4.740  34.783  0.00  0.00    +0.000 C 
BRANCH   4   7
ATOM      6  C   UNL     1      17.302   3.534  31.710  0.00  0.00    +0.000 C 
ATOM      7  C   UNL     1      17.064   4.280  32.621  0.00  0.00    +0.000 C 
BRANCH   6   8
ATOM      8  C   UNL     1      17.606   2.582  30.546  0.00  0.00    +0.000 C 
BRANCH   8   9
ATOM      9  C   UNL     1      17.860   1.778  29.561  0.00  0.00    +0.000 C 
ATOM     10  C   UNL     1      16.989   0.581  29.330  0.00  0.00    +0.000 C 
BRANCH   9  12
ATOM     11  C   UNL     1      19.745   2.377  27.844  0.00  0.00    +0.000 C 
ATOM     12  C   UNL     1      18.883   2.099  28.634  0.00  0.00    +0.000 C 
BRANCH  11  14
ATOM     13  O   UNL     1      21.334   4.027  27.207  0.00  0.00    +0.000 OA
ATOM     14  C   UNL     1      20.772   2.726  26.874  0.00  0.00    +0.000 C 
ATOM     15  C   UNL     1      22.228   2.924  27.345  0.00  0.00    +0.000 C 
ATOM     16  C   UNL     1      20.525   2.444  25.353  0.00  0.00    +0.000 C 
ATOM     17  C   UNL     1      23.239   2.923  26.339  0.00  0.00    +0.000 C 
ATOM     18  C   UNL     1      21.805   2.633  24.657  0.00  0.00    +0.000 C 
ATOM     19  C   UNL     1      23.173   2.817  24.939  0.00  0.00    +0.000 C 
ATOM     20  C   UNL     1      22.678   2.682  28.789  0.00  0.00    +0.000 C 
ATOM     21  C   UNL     1      20.078   0.964  25.263  0.00  0.00    +0.000 C 
ATOM     22  C   UNL     1      19.432   3.432  24.893  0.00  0.00    +0.000 C 
BRANCH  19  23
ATOM     23  O   UNL     1      24.000   3.533  24.129  0.00  0.00    +0.000 OA
ATOM     24  H   UNL     1      23.875   4.495  24.218  0.00  0.00    +0.000 HD
ENDBRANCH  19  23
ENDBRANCH  11  14
ENDBRANCH   9  12
ENDBRANCH   8   9
ENDBRANCH   6   8
ENDBRANCH   4   7
ENDBRANCH   3   4
ENDBRANCH   2   3
BRANCH   1  25
ATOM     25  C   UNL     1      19.379  10.070  34.001  0.00  0.00    +0.000 C 
BRANCH  25  26
ATOM     26  C   UNL     1      19.983  11.214  34.072  0.00  0.00    +0.000 C 
ATOM     27  C   UNL     1      19.574  12.211  35.115  0.00  0.00    +0.000 C 
BRANCH  26  29
ATOM     28  C   UNL     1      21.944  11.759  32.430  0.00  0.00    +0.000 C 
ATOM     29  C   UNL     1      21.043  11.511  33.185  0.00  0.00    +0.000 C 
BRANCH  28  30
ATOM     30  C   UNL     1      23.094  12.070  31.463  0.00  0.00    +0.000 C 
BRANCH  30  31
ATOM     31  C   UNL     1      24.067  12.336  30.649  0.00  0.00    +0.000 C 
ATOM     32  C   UNL     1      25.323  12.966  31.168  0.00  0.00    +0.000 C 
BRANCH  31  34
ATOM     33  C   UNL     1      23.872  11.697  28.116  0.00  0.00    +0.000 C 
ATOM     34  C   UNL     1      23.959  11.988  29.280  0.00  0.00    +0.000 C 
BRANCH  33  36
ATOM     35  O   UNL     1      22.420  11.606  26.230  0.00  0.00    +0.000 OA
ATOM     36  C   UNL     1      23.772  11.346  26.707  0.00  0.00    +0.000 C 
ATOM     37  C   UNL     1      23.434  12.439  25.671  0.00  0.00    +0.000 C 
ATOM     38  C   UNL     1      24.448  10.026  26.193  0.00  0.00    +0.000 C 
ATOM     39  C   UNL     1      23.686  12.137  24.300  0.00  0.00    +0.000 C 
ATOM     40  C   UNL     1      24.451  10.087  24.729  0.00  0.00    +0.000 C 
ATOM     41  C   UNL     1      24.173  10.977  23.674  0.00  0.00    +0.000 C 
ATOM     42  C   UNL     1      23.264  13.919  26.025  0.00  0.00    +0.000 C 
ATOM     43  C   UNL     1      23.609   8.862  26.767  0.00  0.00    +0.000 C 
ATOM     44  C   UNL     1      25.894  10.052  26.753  0.00  0.00    +0.000 C 
BRANCH  41  45
ATOM     45  O   UNL     1      24.947  11.013  22.554  0.00  0.00    +0.000 OA
ATOM     46  H   UNL     1      24.891  11.868  22.091  0.00  0.00    +0.000 HD
ENDBRANCH  41  45
ENDBRANCH  33  36
ENDBRANCH  31  34
ENDBRANCH  30  31
ENDBRANCH  28  30
ENDBRANCH  26  29
ENDBRANCH  25  26
ENDBRANCH   1  25
TORSDOF 16
ENDMDL
MODEL 9
REMARK VINA RESULT:      -5.6      7.608     19.611
REMARK  Name = 448438_Violaxanthin.pdbqt.pdb
REMARK  16 active torsions:
REMARK  status: ('A' for Active; 'I' for Inactive)
REMARK    1  A    between atoms: C_1  and  C_5
REMARK    2  A    between atoms: C_2  and  C_27
REMARK    3  A    between atoms: C_3  and  C_5
REMARK    4  A    between atoms: C_3  and  C_7
REMARK    5  A    between atoms: C_6  and  C_10
REMARK    6  A    between atoms: C_8  and  C_10
REMARK    7  A    between atoms: C_8  and  C_12
REMARK    8  A    between atoms: C_11  and  C_14
REMARK    9  A    between atoms: C_19  and  O_23
REMARK   10  A    between atoms: C_25  and  C_27
REMARK   11  A    between atoms: C_25  and  C_29
REMARK   12  A    between atoms: C_28  and  C_32
REMARK   13  A    between atoms: C_30  and  C_32
REMARK   14  A    between atoms: C_30  and  C_34
REMARK   15  A    between atoms: C_33  and  C_36
REMARK   16  A    between atoms: C_41  and  O_45
REMARK                            x       y       z     vdW  Elec       q    Type
REMARK                         _______ _______ _______ _____ _____    ______ ____
ROOT
ATOM      1  C   UNL     1       5.102  11.792  29.560  0.00  0.00    +0.000 C 
ATOM      2  C   UNL     1       5.570  10.800  29.074  0.00  0.00    +0.000 C 
ENDROOT
BRANCH   2   3
ATOM      3  C   UNL     1       6.168   9.531  28.455  0.00  0.00    +0.000 C 
BRANCH   3   4
ATOM      4  C   UNL     1       6.675   8.460  27.931  0.00  0.00    +0.000 C 
ATOM      5  C   UNL     1       8.156   8.363  27.719  0.00  0.00    +0.000 C 
BRANCH   4   7
ATOM      6  C   UNL     1       5.105   6.528  27.128  0.00  0.00    +0.000 C 
ATOM      7  C   UNL     1       5.826   7.415  27.497  0.00  0.00    +0.000 C 
BRANCH   6   8
ATOM      8  C   UNL     1       4.184   5.395  26.659  0.00  0.00    +0.000 C 
BRANCH   8   9
ATOM      9  C   UNL     1       3.405   4.435  26.265  0.00  0.00    +0.000 C 
ATOM     10  C   UNL     1       1.941   4.486  26.576  0.00  0.00    +0.000 C 
BRANCH   9  12
ATOM     11  C   UNL     1       4.362   2.537  24.735  0.00  0.00    +0.000 C 
ATOM     12  C   UNL     1       3.918   3.406  25.437  0.00  0.00    +0.000 C 
BRANCH  11  14
ATOM     13  O   UNL     1       3.881   0.535  23.547  0.00  0.00    +0.000 OA
ATOM     14  C   UNL     1       4.919   1.498  23.882  0.00  0.00    +0.000 C 
ATOM     15  C   UNL     1       4.367   1.310  22.452  0.00  0.00    +0.000 C 
ATOM     16  C   UNL     1       6.335   0.912  24.205  0.00  0.00    +0.000 C 
ATOM     17  C   UNL     1       5.155   0.533  21.552  0.00  0.00    +0.000 C 
ATOM     18  C   UNL     1       6.751   0.104  23.049  0.00  0.00    +0.000 C 
ATOM     19  C   UNL     1       6.364  -0.162  21.721  0.00  0.00    +0.000 C 
ATOM     20  C   UNL     1       3.307   2.230  21.840  0.00  0.00    +0.000 C 
ATOM     21  C   UNL     1       7.273   2.132  24.371  0.00  0.00    +0.000 C 
ATOM     22  C   UNL     1       6.186   0.086  25.500  0.00  0.00    +0.000 C 
BRANCH  19  23
ATOM     23  O   UNL     1       6.588  -1.362  21.117  0.00  0.00    +0.000 OA
ATOM     24  H   UNL     1       6.013  -2.070  21.462  0.00  0.00    +0.000 HD
ENDBRANCH  19  23
ENDBRANCH  11  14
ENDBRANCH   9  12
ENDBRANCH   8   9
ENDBRANCH   6   8
ENDBRANCH   4   7
ENDBRANCH   3   4
ENDBRANCH   2   3
BRANCH   1  25
ATOM     25  C   UNL     1       4.505  13.061  30.180  0.00  0.00    +0.000 C 
BRANCH  25  26
ATOM     26  C   UNL     1       4.000  14.134  30.704  0.00  0.00    +0.000 C 
ATOM     27  C   UNL     1       2.544  14.175  31.060  0.00  0.00    +0.000 C 
BRANCH  26  29
ATOM     28  C   UNL     1       5.524  16.204  31.183  0.00  0.00    +0.000 C 
ATOM     29  C   UNL     1       4.825  15.252  30.962  0.00  0.00    +0.000 C 
BRANCH  28  30
ATOM     30  C   UNL     1       6.410  17.424  31.464  0.00  0.00    +0.000 C 
BRANCH  30  31
ATOM     31  C   UNL     1       7.156  18.458  31.700  0.00  0.00    +0.000 C 
ATOM     32  C   UNL     1       6.548  19.702  32.272  0.00  0.00    +0.000 C 
BRANCH  31  34
ATOM     33  C   UNL     1       9.736  18.335  31.263  0.00  0.00    +0.000 C 
ATOM     34  C   UNL     1       8.551  18.393  31.461  0.00  0.00    +0.000 C 
BRANCH  33  36
ATOM     35  O   UNL     1      11.632  19.491  30.405  0.00  0.00    +0.000 OA
ATOM     36  C   UNL     1      11.170  18.258  31.026  0.00  0.00    +0.000 C 
ATOM     37  C   UNL     1      12.113  19.258  31.727  0.00  0.00    +0.000 C 
ATOM     38  C   UNL     1      11.788  16.926  30.471  0.00  0.00    +0.000 C 
ATOM     39  C   UNL     1      13.504  18.938  31.747  0.00  0.00    +0.000 C 
ATOM     40  C   UNL     1      13.241  17.032  30.620  0.00  0.00    +0.000 C 
ATOM     41  C   UNL     1      14.220  17.859  31.204  0.00  0.00    +0.000 C 
ATOM     42  C   UNL     1      11.639  20.306  32.737  0.00  0.00    +0.000 C 
ATOM     43  C   UNL     1      11.318  16.814  29.003  0.00  0.00    +0.000 C 
ATOM     44  C   UNL     1      11.218  15.796  31.367  0.00  0.00    +0.000 C 
BRANCH  41  45
ATOM     45  O   UNL     1      15.328  17.335  31.798  0.00  0.00    +0.000 OA
ATOM     46  H   UNL     1      16.154  17.649  31.387  0.00  0.00    +0.000 HD
ENDBRANCH  41  45
ENDBRANCH  33  36
ENDBRANCH  31  34
ENDBRANCH  30  31
ENDBRANCH  28  30
ENDBRANCH  26  29
ENDBRANCH  25  26
ENDBRANCH   1  25
TORSDOF 16
ENDMDL
