MODEL 1
REMARK VINA RESULT:      -7.5      0.000      0.000
REMARK  Name = 490561_Nocardiopsis.pdbqt.pdb
REMARK  3 active torsions:
REMARK  status: ('A' for Active; 'I' for Inactive)
REMARK    1  A    between atoms: C_7  and  O_32
REMARK    2  A    between atoms: C_7  and  C_35
REMARK    3  A    between atoms: C_35  and  O_36
REMARK                            x       y       z     vdW  Elec       q    Type
REMARK                         _______ _______ _______ _____ _____    ______ ____
ROOT
ATOM      1  O   UNL     1      11.026  17.877  28.982  0.00  0.00    +0.000 OA
ATOM      2  O   UNL     1      11.647  24.874  31.698  0.00  0.00    +0.000 OA
ATOM      3  N   UNL     1      12.891  18.390  30.342  0.00  0.00    +0.000 N 
ATOM      4  N   UNL     1      10.193  19.696  30.181  0.00  0.00    +0.000 N 
ATOM      5  N   UNL     1      13.817  24.079  31.923  0.00  0.00    +0.000 N 
ATOM      6  C   UNL     1      12.038  17.281  29.868  0.00  0.00    +0.000 C 
ATOM      7  C   UNL     1      11.185  16.606  31.027  0.00  0.00    +0.000 C 
ATOM      8  C   UNL     1      10.039  18.359  29.859  0.00  0.00    +0.000 C 
ATOM      9  C   UNL     1       9.993  17.444  30.939  0.00  0.00    +0.000 C 
ATOM     10  C   UNL     1      12.609  19.718  30.541  0.00  0.00    +0.000 A 
ATOM     11  C   UNL     1      11.362  20.338  30.454  0.00  0.00    +0.000 A 
ATOM     12  C   UNL     1      13.630  20.575  30.962  0.00  0.00    +0.000 A 
ATOM     13  C   UNL     1      11.337  21.693  30.801  0.00  0.00    +0.000 A 
ATOM     14  C   UNL     1      12.827  16.271  28.971  0.00  0.00    +0.000 C 
ATOM     15  C   UNL     1      14.245  18.369  30.759  0.00  0.00    +0.000 A 
ATOM     16  C   UNL     1       9.274  20.734  30.421  0.00  0.00    +0.000 A 
ATOM     17  C   UNL     1      14.714  19.691  31.107  0.00  0.00    +0.000 A 
ATOM     18  C   UNL     1      13.634  21.937  31.291  0.00  0.00    +0.000 A 
ATOM     19  C   UNL     1      12.360  22.574  31.207  0.00  0.00    +0.000 A 
ATOM     20  C   UNL     1       9.950  21.962  30.772  0.00  0.00    +0.000 A 
ATOM     21  C   UNL     1      14.580  22.975  31.775  0.00  0.00    +0.000 C 
ATOM     22  C   UNL     1      15.112  17.268  30.868  0.00  0.00    +0.000 A 
ATOM     23  C   UNL     1      12.454  23.961  31.611  0.00  0.00    +0.000 C 
ATOM     24  C   UNL     1       7.874  20.681  30.338  0.00  0.00    +0.000 A 
ATOM     25  C   UNL     1      16.049  19.840  31.534  0.00  0.00    +0.000 A 
ATOM     26  C   UNL     1       9.158  23.097  31.037  0.00  0.00    +0.000 A 
ATOM     27  C   UNL     1      16.425  17.468  31.294  0.00  0.00    +0.000 A 
ATOM     28  C   UNL     1      16.891  18.732  31.617  0.00  0.00    +0.000 A 
ATOM     29  C   UNL     1       7.142  21.837  30.605  0.00  0.00    +0.000 A 
ATOM     30  C   UNL     1       7.769  23.026  30.948  0.00  0.00    +0.000 A 
ATOM     31  H   UNL     1      14.191  24.959  32.244  0.00  0.00    +0.000 HD
ENDROOT
BRANCH   7  32
ATOM     32  O   UNL     1      11.746  16.733  32.342  0.00  0.00    +0.000 OA
ATOM     33  H   UNL     1      11.826  15.828  32.714  0.00  0.00    +0.000 HD
ENDBRANCH   7  32
BRANCH   7  35
ATOM     34  O   UNL     1      10.073  14.849  29.827  0.00  0.00    +0.000 OA
ATOM     35  C   UNL     1      10.869  15.143  30.721  0.00  0.00    +0.000 C 
BRANCH  35  36
ATOM     36  O   UNL     1      11.601  14.293  31.503  0.00  0.00    +0.000 OA
ATOM     37  C   UNL     1      12.169  13.169  30.887  0.00  0.00    +0.000 C 
ENDBRANCH  35  36
ENDBRANCH   7  35
TORSDOF 3
ENDMDL
MODEL 2
REMARK VINA RESULT:      -7.4     28.367     29.322
REMARK  Name = 490561_Nocardiopsis.pdbqt.pdb
REMARK  3 active torsions:
REMARK  status: ('A' for Active; 'I' for Inactive)
REMARK    1  A    between atoms: C_7  and  O_32
REMARK    2  A    between atoms: C_7  and  C_35
REMARK    3  A    between atoms: C_35  and  O_36
REMARK                            x       y       z     vdW  Elec       q    Type
REMARK                         _______ _______ _______ _____ _____    ______ ____
ROOT
ATOM      1  O   UNL     1      17.456  14.443   1.191  0.00  0.00    +0.000 OA
ATOM      2  O   UNL     1      10.160  15.557   2.690  0.00  0.00    +0.000 OA
ATOM      3  N   UNL     1      16.773  16.591   1.905  0.00  0.00    +0.000 N 
ATOM      4  N   UNL     1      15.488  13.912   2.325  0.00  0.00    +0.000 N 
ATOM      5  N   UNL     1      10.928  17.730   2.410  0.00  0.00    +0.000 N 
ATOM      6  C   UNL     1      17.932  15.678   1.835  0.00  0.00    +0.000 C 
ATOM      7  C   UNL     1      18.441  15.197   3.262  0.00  0.00    +0.000 C 
ATOM      8  C   UNL     1      16.855  13.718   2.235  0.00  0.00    +0.000 C 
ATOM      9  C   UNL     1      17.616  13.999   3.396  0.00  0.00    +0.000 C 
ATOM     10  C   UNL     1      15.429  16.332   1.999  0.00  0.00    +0.000 A 
ATOM     11  C   UNL     1      14.821  15.090   2.178  0.00  0.00    +0.000 A 
ATOM     12  C   UNL     1      14.528  17.401   2.005  0.00  0.00    +0.000 A 
ATOM     13  C   UNL     1      13.431  15.116   2.337  0.00  0.00    +0.000 A 
ATOM     14  C   UNL     1      19.057  16.223   0.895  0.00  0.00    +0.000 C 
ATOM     15  C   UNL     1      16.745  18.008   1.931  0.00  0.00    +0.000 A 
ATOM     16  C   UNL     1      14.423  13.060   2.670  0.00  0.00    +0.000 A 
ATOM     17  C   UNL     1      15.391  18.511   1.960  0.00  0.00    +0.000 A 
ATOM     18  C   UNL     1      13.135  17.450   2.140  0.00  0.00    +0.000 A 
ATOM     19  C   UNL     1      12.508  16.182   2.327  0.00  0.00    +0.000 A 
ATOM     20  C   UNL     1      13.161  13.767   2.657  0.00  0.00    +0.000 A 
ATOM     21  C   UNL     1      12.046  18.459   2.204  0.00  0.00    +0.000 C 
ATOM     22  C   UNL     1      17.825  18.907   1.941  0.00  0.00    +0.000 A 
ATOM     23  C   UNL     1      11.081  16.339   2.504  0.00  0.00    +0.000 C 
ATOM     24  C   UNL     1      14.479  11.694   2.985  0.00  0.00    +0.000 A 
ATOM     25  C   UNL     1      15.192  19.907   1.980  0.00  0.00    +0.000 A 
ATOM     26  C   UNL     1      11.997  13.042   2.980  0.00  0.00    +0.000 A 
ATOM     27  C   UNL     1      17.577  20.279   1.959  0.00  0.00    +0.000 A 
ATOM     28  C   UNL     1      16.283  20.775   1.972  0.00  0.00    +0.000 A 
ATOM     29  C   UNL     1      13.293  11.025   3.289  0.00  0.00    +0.000 A 
ATOM     30  C   UNL     1      12.073  11.684   3.287  0.00  0.00    +0.000 A 
ATOM     31  H   UNL     1      10.015  18.149   2.497  0.00  0.00    +0.000 HD
ENDROOT
BRANCH   7  32
ATOM     32  O   UNL     1      18.140  16.092   4.342  0.00  0.00    +0.000 OA
ATOM     33  H   UNL     1      18.292  17.006   4.015  0.00  0.00    +0.000 HD
ENDBRANCH   7  32
BRANCH   7  35
ATOM     34  O   UNL     1      20.327  13.811   2.731  0.00  0.00    +0.000 OA
ATOM     35  C   UNL     1      19.930  14.856   3.249  0.00  0.00    +0.000 C 
BRANCH  35  36
ATOM     36  O   UNL     1      20.681  15.851   3.811  0.00  0.00    +0.000 OA
ATOM     37  C   UNL     1      22.020  15.960   3.413  0.00  0.00    +0.000 C 
ENDBRANCH  35  36
ENDBRANCH   7  35
TORSDOF 3
ENDMDL
MODEL 3
REMARK VINA RESULT:      -7.2     21.731     24.576
REMARK  Name = 490561_Nocardiopsis.pdbqt.pdb
REMARK  3 active torsions:
REMARK  status: ('A' for Active; 'I' for Inactive)
REMARK    1  A    between atoms: C_7  and  O_32
REMARK    2  A    between atoms: C_7  and  C_35
REMARK    3  A    between atoms: C_35  and  O_36
REMARK                            x       y       z     vdW  Elec       q    Type
REMARK                         _______ _______ _______ _____ _____    ______ ____
ROOT
ATOM      1  O   UNL     1      -1.642  28.157  14.015  0.00  0.00    +0.000 OA
ATOM      2  O   UNL     1       2.583  31.830   8.977  0.00  0.00    +0.000 OA
ATOM      3  N   UNL     1      -1.396  27.217  11.860  0.00  0.00    +0.000 N 
ATOM      4  N   UNL     1       0.363  29.142  13.345  0.00  0.00    +0.000 N 
ATOM      5  N   UNL     1       1.331  30.424   7.618  0.00  0.00    +0.000 N 
ATOM      6  C   UNL     1      -1.700  26.891  13.268  0.00  0.00    +0.000 C 
ATOM      7  C   UNL     1      -0.590  25.986  13.957  0.00  0.00    +0.000 C 
ATOM      8  C   UNL     1      -0.273  28.342  14.277  0.00  0.00    +0.000 C 
ATOM      9  C   UNL     1       0.266  27.048  14.479  0.00  0.00    +0.000 C 
ATOM     10  C   UNL     1      -0.628  28.214  11.314  0.00  0.00    +0.000 A 
ATOM     11  C   UNL     1       0.181  29.124  11.995  0.00  0.00    +0.000 A 
ATOM     12  C   UNL     1      -0.541  28.324   9.923  0.00  0.00    +0.000 A 
ATOM     13  C   UNL     1       0.938  29.980  11.188  0.00  0.00    +0.000 A 
ATOM     14  C   UNL     1      -3.165  26.373  13.451  0.00  0.00    +0.000 C 
ATOM     15  C   UNL     1      -1.797  26.550  10.675  0.00  0.00    +0.000 A 
ATOM     16  C   UNL     1       1.398  30.090  13.446  0.00  0.00    +0.000 A 
ATOM     17  C   UNL     1      -1.313  27.228   9.494  0.00  0.00    +0.000 A 
ATOM     18  C   UNL     1       0.189  29.186   9.095  0.00  0.00    +0.000 A 
ATOM     19  C   UNL     1       1.020  30.116   9.787  0.00  0.00    +0.000 A 
ATOM     20  C   UNL     1       1.743  30.631  12.150  0.00  0.00    +0.000 A 
ATOM     21  C   UNL     1       0.427  29.422   7.648  0.00  0.00    +0.000 C 
ATOM     22  C   UNL     1      -2.557  25.375  10.544  0.00  0.00    +0.000 A 
ATOM     23  C   UNL     1       1.768  30.928   8.852  0.00  0.00    +0.000 C 
ATOM     24  C   UNL     1       2.056  30.527  14.606  0.00  0.00    +0.000 A 
ATOM     25  C   UNL     1      -1.635  26.693   8.231  0.00  0.00    +0.000 A 
ATOM     26  C   UNL     1       2.765  31.599  12.091  0.00  0.00    +0.000 A 
ATOM     27  C   UNL     1      -2.851  24.885   9.272  0.00  0.00    +0.000 A 
ATOM     28  C   UNL     1      -2.405  25.534   8.132  0.00  0.00    +0.000 A 
ATOM     29  C   UNL     1       3.054  31.493  14.489  0.00  0.00    +0.000 A 
ATOM     30  C   UNL     1       3.405  32.023  13.255  0.00  0.00    +0.000 A 
ATOM     31  H   UNL     1       1.690  30.807   6.756  0.00  0.00    +0.000 HD
ENDROOT
BRANCH   7  32
ATOM     32  O   UNL     1       0.175  25.176  13.052  0.00  0.00    +0.000 OA
ATOM     33  H   UNL     1       0.659  25.785  12.454  0.00  0.00    +0.000 HD
ENDBRANCH   7  32
BRANCH   7  35
ATOM     34  O   UNL     1      -1.412  23.934  14.894  0.00  0.00    +0.000 OA
ATOM     35  C   UNL     1      -1.172  25.129  15.080  0.00  0.00    +0.000 C 
BRANCH  35  36
ATOM     36  O   UNL     1      -1.313  25.841  16.238  0.00  0.00    +0.000 OA
ATOM     37  C   UNL     1      -2.455  25.602  17.015  0.00  0.00    +0.000 C 
ENDBRANCH  35  36
ENDBRANCH   7  35
TORSDOF 3
ENDMDL
MODEL 4
REMARK VINA RESULT:      -7.2      4.993      8.974
REMARK  Name = 490561_Nocardiopsis.pdbqt.pdb
REMARK  3 active torsions:
REMARK  status: ('A' for Active; 'I' for Inactive)
REMARK    1  A    between atoms: C_7  and  O_32
REMARK    2  A    between atoms: C_7  and  C_35
REMARK    3  A    between atoms: C_35  and  O_36
REMARK                            x       y       z     vdW  Elec       q    Type
REMARK                         _______ _______ _______ _____ _____    ______ ____
ROOT
ATOM      1  O   UNL     1       6.536  24.731  31.117  0.00  0.00    +0.000 OA
ATOM      2  O   UNL     1       1.139  19.477  31.117  0.00  0.00    +0.000 OA
ATOM      3  N   UNL     1       7.150  22.493  30.668  0.00  0.00    +0.000 N 
ATOM      4  N   UNL     1       4.504  23.874  30.356  0.00  0.00    +0.000 N 
ATOM      5  N   UNL     1       3.058  18.193  31.364  0.00  0.00    +0.000 N 
ATOM      6  C   UNL     1       7.557  23.898  30.463  0.00  0.00    +0.000 C 
ATOM      7  C   UNL     1       7.506  24.351  28.940  0.00  0.00    +0.000 C 
ATOM      8  C   UNL     1       5.500  24.816  30.170  0.00  0.00    +0.000 C 
ATOM      9  C   UNL     1       6.129  24.835  28.901  0.00  0.00    +0.000 C 
ATOM     10  C   UNL     1       5.908  21.930  30.821  0.00  0.00    +0.000 A 
ATOM     11  C   UNL     1       4.673  22.566  30.694  0.00  0.00    +0.000 A 
ATOM     12  C   UNL     1       5.807  20.554  31.048  0.00  0.00    +0.000 A 
ATOM     13  C   UNL     1       3.553  21.735  30.808  0.00  0.00    +0.000 A 
ATOM     14  C   UNL     1       8.896  24.238  31.197  0.00  0.00    +0.000 C 
ATOM     15  C   UNL     1       7.950  21.324  30.726  0.00  0.00    +0.000 A 
ATOM     16  C   UNL     1       3.109  23.909  30.176  0.00  0.00    +0.000 A 
ATOM     17  C   UNL     1       7.153  20.148  30.987  0.00  0.00    +0.000 A 
ATOM     18  C   UNL     1       4.700  19.707  31.187  0.00  0.00    +0.000 A 
ATOM     19  C   UNL     1       3.435  20.352  31.054  0.00  0.00    +0.000 A 
ATOM     20  C   UNL     1       2.510  22.626  30.472  0.00  0.00    +0.000 A 
ATOM     21  C   UNL     1       4.406  18.265  31.391  0.00  0.00    +0.000 C 
ATOM     22  C   UNL     1       9.340  21.203  30.559  0.00  0.00    +0.000 A 
ATOM     23  C   UNL     1       2.358  19.392  31.165  0.00  0.00    +0.000 C 
ATOM     24  C   UNL     1       2.318  24.999  29.782  0.00  0.00    +0.000 A 
ATOM     25  C   UNL     1       7.804  18.901  31.084  0.00  0.00    +0.000 A 
ATOM     26  C   UNL     1       1.112  22.507  30.340  0.00  0.00    +0.000 A 
ATOM     27  C   UNL     1       9.938  19.948  30.665  0.00  0.00    +0.000 A 
ATOM     28  C   UNL     1       9.187  18.814  30.929  0.00  0.00    +0.000 A 
ATOM     29  C   UNL     1       0.939  24.824  29.676  0.00  0.00    +0.000 A 
ATOM     30  C   UNL     1       0.343  23.602  29.949  0.00  0.00    +0.000 A 
ATOM     31  H   UNL     1       2.558  17.324  31.478  0.00  0.00    +0.000 HD
ENDROOT
BRANCH   7  32
ATOM     32  O   UNL     1       7.651  23.286  27.989  0.00  0.00    +0.000 OA
ATOM     33  H   UNL     1       6.863  23.308  27.404  0.00  0.00    +0.000 HD
ENDBRANCH   7  32
BRANCH   7  35
ATOM     34  O   UNL     1       9.505  25.249  27.961  0.00  0.00    +0.000 OA
ATOM     35  C   UNL     1       8.505  25.469  28.646  0.00  0.00    +0.000 C 
BRANCH  35  36
ATOM     36  O   UNL     1       8.100  26.661  29.179  0.00  0.00    +0.000 OA
ATOM     37  C   UNL     1       9.083  27.630  29.428  0.00  0.00    +0.000 C 
ENDBRANCH  35  36
ENDBRANCH   7  35
TORSDOF 3
ENDMDL
MODEL 5
REMARK VINA RESULT:      -7.2      2.906      6.140
REMARK  Name = 490561_Nocardiopsis.pdbqt.pdb
REMARK  3 active torsions:
REMARK  status: ('A' for Active; 'I' for Inactive)
REMARK    1  A    between atoms: C_7  and  O_32
REMARK    2  A    between atoms: C_7  and  C_35
REMARK    3  A    between atoms: C_35  and  O_36
REMARK                            x       y       z     vdW  Elec       q    Type
REMARK                         _______ _______ _______ _____ _____    ______ ____
ROOT
ATOM      1  O   UNL     1      11.563  17.502  31.551  0.00  0.00    +0.000 OA
ATOM      2  O   UNL     1       4.431  19.922  31.629  0.00  0.00    +0.000 OA
ATOM      3  N   UNL     1       9.862  15.999  30.888  0.00  0.00    +0.000 N 
ATOM      4  N   UNL     1       9.896  19.000  30.907  0.00  0.00    +0.000 N 
ATOM      5  N   UNL     1       4.154  17.616  31.615  0.00  0.00    +0.000 N 
ATOM      6  C   UNL     1      11.303  16.294  30.753  0.00  0.00    +0.000 C 
ATOM      7  C   UNL     1      11.723  16.709  29.277  0.00  0.00    +0.000 C 
ATOM      8  C   UNL     1      11.192  18.562  30.705  0.00  0.00    +0.000 C 
ATOM      9  C   UNL     1      11.529  18.152  29.392  0.00  0.00    +0.000 C 
ATOM     10  C   UNL     1       8.792  16.830  31.106  0.00  0.00    +0.000 A 
ATOM     11  C   UNL     1       8.799  18.225  31.132  0.00  0.00    +0.000 A 
ATOM     12  C   UNL     1       7.515  16.276  31.238  0.00  0.00    +0.000 A 
ATOM     13  C   UNL     1       7.547  18.832  31.280  0.00  0.00    +0.000 A 
ATOM     14  C   UNL     1      12.196  15.179  31.393  0.00  0.00    +0.000 C 
ATOM     15  C   UNL     1       9.184  14.758  30.792  0.00  0.00    +0.000 A 
ATOM     16  C   UNL     1       9.297  20.273  30.850  0.00  0.00    +0.000 A 
ATOM     17  C   UNL     1       7.767  14.908  31.033  0.00  0.00    +0.000 A 
ATOM     18  C   UNL     1       6.253  16.861  31.410  0.00  0.00    +0.000 A 
ATOM     19  C   UNL     1       6.255  18.287  31.434  0.00  0.00    +0.000 A 
ATOM     20  C   UNL     1       7.875  20.194  31.101  0.00  0.00    +0.000 A 
ATOM     21  C   UNL     1       4.831  16.451  31.531  0.00  0.00    +0.000 C 
ATOM     22  C   UNL     1       9.713  13.490  30.497  0.00  0.00    +0.000 A 
ATOM     23  C   UNL     1       4.908  18.798  31.566  0.00  0.00    +0.000 C 
ATOM     24  C   UNL     1       9.918  21.507  30.606  0.00  0.00    +0.000 A 
ATOM     25  C   UNL     1       6.951  13.759  30.982  0.00  0.00    +0.000 A 
ATOM     26  C   UNL     1       7.136  21.394  31.081  0.00  0.00    +0.000 A 
ATOM     27  C   UNL     1       8.865  12.384  30.459  0.00  0.00    +0.000 A 
ATOM     28  C   UNL     1       7.507  12.511  30.703  0.00  0.00    +0.000 A 
ATOM     29  C   UNL     1       9.138  22.663  30.606  0.00  0.00    +0.000 A 
ATOM     30  C   UNL     1       7.771  22.611  30.840  0.00  0.00    +0.000 A 
ATOM     31  H   UNL     1       3.150  17.656  31.707  0.00  0.00    +0.000 HD
ENDROOT
BRANCH   7  32
ATOM     32  O   UNL     1      10.867  16.206  28.242  0.00  0.00    +0.000 OA
ATOM     33  H   UNL     1      11.332  16.340  27.387  0.00  0.00    +0.000 HD
ENDBRANCH   7  32
BRANCH   7  35
ATOM     34  O   UNL     1      13.461  15.356  28.322  0.00  0.00    +0.000 OA
ATOM     35  C   UNL     1      13.181  16.359  28.982  0.00  0.00    +0.000 C 
BRANCH  35  36
ATOM     36  O   UNL     1      14.038  17.299  29.482  0.00  0.00    +0.000 OA
ATOM     37  C   UNL     1      15.186  16.846  30.146  0.00  0.00    +0.000 C 
ENDBRANCH  35  36
ENDBRANCH   7  35
TORSDOF 3
ENDMDL
MODEL 6
REMARK VINA RESULT:      -7.1     28.386     29.957
REMARK  Name = 490561_Nocardiopsis.pdbqt.pdb
REMARK  3 active torsions:
REMARK  status: ('A' for Active; 'I' for Inactive)
REMARK    1  A    between atoms: C_7  and  O_32
REMARK    2  A    between atoms: C_7  and  C_35
REMARK    3  A    between atoms: C_35  and  O_36
REMARK                            x       y       z     vdW  Elec       q    Type
REMARK                         _______ _______ _______ _____ _____    ______ ____
ROOT
ATOM      1  O   UNL     1      22.271  30.354   5.196  0.00  0.00    +0.000 OA
ATOM      2  O   UNL     1      25.304  23.742   3.244  0.00  0.00    +0.000 OA
ATOM      3  N   UNL     1      20.864  28.716   4.233  0.00  0.00    +0.000 N 
ATOM      4  N   UNL     1      23.466  28.415   5.698  0.00  0.00    +0.000 N 
ATOM      5  N   UNL     1      23.337  23.750   2.010  0.00  0.00    +0.000 N 
ATOM      6  C   UNL     1      20.871  29.912   5.101  0.00  0.00    +0.000 C 
ATOM      7  C   UNL     1      20.462  29.599   6.605  0.00  0.00    +0.000 C 
ATOM      8  C   UNL     1      22.825  29.535   6.196  0.00  0.00    +0.000 C 
ATOM      9  C   UNL     1      21.791  29.312   7.138  0.00  0.00    +0.000 C 
ATOM     10  C   UNL     1      21.824  27.761   4.012  0.00  0.00    +0.000 A 
ATOM     11  C   UNL     1      23.043  27.621   4.676  0.00  0.00    +0.000 A 
ATOM     12  C   UNL     1      21.570  26.740   3.091  0.00  0.00    +0.000 A 
ATOM     13  C   UNL     1      23.798  26.498   4.320  0.00  0.00    +0.000 A 
ATOM     14  C   UNL     1      20.104  31.113   4.456  0.00  0.00    +0.000 C 
ATOM     15  C   UNL     1      19.829  28.209   3.408  0.00  0.00    +0.000 A 
ATOM     16  C   UNL     1      24.615  27.711   6.104  0.00  0.00    +0.000 A 
ATOM     17  C   UNL     1      20.254  27.031   2.687  0.00  0.00    +0.000 A 
ATOM     18  C   UNL     1      22.319  25.622   2.702  0.00  0.00    +0.000 A 
ATOM     19  C   UNL     1      23.564  25.472   3.381  0.00  0.00    +0.000 A 
ATOM     20  C   UNL     1      24.849  26.559   5.262  0.00  0.00    +0.000 A 
ATOM     21  C   UNL     1      22.202  24.450   1.797  0.00  0.00    +0.000 C 
ATOM     22  C   UNL     1      18.522  28.697   3.241  0.00  0.00    +0.000 A 
ATOM     23  C   UNL     1      24.241  24.268   2.949  0.00  0.00    +0.000 C 
ATOM     24  C   UNL     1      25.487  28.020   7.159  0.00  0.00    +0.000 A 
ATOM     25  C   UNL     1      19.338  26.410   1.814  0.00  0.00    +0.000 A 
ATOM     26  C   UNL     1      25.971  25.755   5.545  0.00  0.00    +0.000 A 
ATOM     27  C   UNL     1      17.653  28.048   2.364  0.00  0.00    +0.000 A 
ATOM     28  C   UNL     1      18.053  26.926   1.656  0.00  0.00    +0.000 A 
ATOM     29  C   UNL     1      26.586  27.193   7.387  0.00  0.00    +0.000 A 
ATOM     30  C   UNL     1      26.827  26.079   6.596  0.00  0.00    +0.000 A 
ATOM     31  H   UNL     1      23.543  22.888   1.527  0.00  0.00    +0.000 HD
ENDROOT
BRANCH   7  32
ATOM     32  O   UNL     1      19.633  28.440   6.775  0.00  0.00    +0.000 OA
ATOM     33  H   UNL     1      20.045  27.709   6.265  0.00  0.00    +0.000 HD
ENDBRANCH   7  32
BRANCH   7  35
ATOM     34  O   UNL     1      20.533  31.758   7.651  0.00  0.00    +0.000 OA
ATOM     35  C   UNL     1      19.832  30.812   7.286  0.00  0.00    +0.000 C 
BRANCH  35  36
ATOM     36  O   UNL     1      18.472  30.699   7.361  0.00  0.00    +0.000 OA
ATOM     37  C   UNL     1      17.873  30.862   8.619  0.00  0.00    +0.000 C 
ENDBRANCH  35  36
ENDBRANCH   7  35
TORSDOF 3
ENDMDL
MODEL 7
REMARK VINA RESULT:      -7.1     16.489     20.588
REMARK  Name = 490561_Nocardiopsis.pdbqt.pdb
REMARK  3 active torsions:
REMARK  status: ('A' for Active; 'I' for Inactive)
REMARK    1  A    between atoms: C_7  and  O_32
REMARK    2  A    between atoms: C_7  and  C_35
REMARK    3  A    between atoms: C_35  and  O_36
REMARK                            x       y       z     vdW  Elec       q    Type
REMARK                         _______ _______ _______ _____ _____    ______ ____
ROOT
ATOM      1  O   UNL     1      25.980   8.849  25.773  0.00  0.00    +0.000 OA
ATOM      2  O   UNL     1      26.914   3.013  21.104  0.00  0.00    +0.000 OA
ATOM      3  N   UNL     1      26.334   9.294  23.478  0.00  0.00    +0.000 N 
ATOM      4  N   UNL     1      25.267   6.837  24.832  0.00  0.00    +0.000 N 
ATOM      5  N   UNL     1      27.795   4.766  19.862  0.00  0.00    +0.000 N 
ATOM      6  C   UNL     1      25.757   9.850  24.720  0.00  0.00    +0.000 C 
ATOM      7  C   UNL     1      24.176  10.004  24.663  0.00  0.00    +0.000 C 
ATOM      8  C   UNL     1      24.927   7.932  25.608  0.00  0.00    +0.000 C 
ATOM      9  C   UNL     1      23.809   8.690  25.185  0.00  0.00    +0.000 C 
ATOM     10  C   UNL     1      26.492   7.996  23.064  0.00  0.00    +0.000 A 
ATOM     11  C   UNL     1      26.014   6.846  23.693  0.00  0.00    +0.000 A 
ATOM     12  C   UNL     1      27.120   7.742  21.841  0.00  0.00    +0.000 A 
ATOM     13  C   UNL     1      26.233   5.647  23.006  0.00  0.00    +0.000 A 
ATOM     14  C   UNL     1      26.516  11.130  25.202  0.00  0.00    +0.000 C 
ATOM     15  C   UNL     1      26.857   9.970  22.348  0.00  0.00    +0.000 A 
ATOM     16  C   UNL     1      24.905   5.478  24.885  0.00  0.00    +0.000 A 
ATOM     17  C   UNL     1      27.364   9.043  21.363  0.00  0.00    +0.000 A 
ATOM     18  C   UNL     1      27.371   6.552  21.146  0.00  0.00    +0.000 A 
ATOM     19  C   UNL     1      26.881   5.374  21.784  0.00  0.00    +0.000 A 
ATOM     20  C   UNL     1      25.504   4.734  23.799  0.00  0.00    +0.000 A 
ATOM     21  C   UNL     1      27.973   6.104  19.864  0.00  0.00    +0.000 C 
ATOM     22  C   UNL     1      26.917  11.353  22.102  0.00  0.00    +0.000 A 
ATOM     23  C   UNL     1      27.144   4.206  20.971  0.00  0.00    +0.000 C 
ATOM     24  C   UNL     1      24.092   4.840  25.833  0.00  0.00    +0.000 A 
ATOM     25  C   UNL     1      27.928   9.560  20.179  0.00  0.00    +0.000 A 
ATOM     26  C   UNL     1      25.236   3.353  23.722  0.00  0.00    +0.000 A 
ATOM     27  C   UNL     1      27.485  11.816  20.916  0.00  0.00    +0.000 A 
ATOM     28  C   UNL     1      27.989  10.937  19.970  0.00  0.00    +0.000 A 
ATOM     29  C   UNL     1      23.866   3.469  25.711  0.00  0.00    +0.000 A 
ATOM     30  C   UNL     1      24.427   2.735  24.675  0.00  0.00    +0.000 A 
ATOM     31  H   UNL     1      28.107   4.177  19.104  0.00  0.00    +0.000 HD
ENDROOT
BRANCH   7  32
ATOM     32  O   UNL     1      23.631  10.148  23.343  0.00  0.00    +0.000 OA
ATOM     33  H   UNL     1      24.262  10.693  22.825  0.00  0.00    +0.000 HD
ENDBRANCH   7  32
BRANCH   7  35
ATOM     34  O   UNL     1      23.645  10.974  26.793  0.00  0.00    +0.000 OA
ATOM     35  C   UNL     1      23.681  11.128  25.570  0.00  0.00    +0.000 C 
BRANCH  35  36
ATOM     36  O   UNL     1      23.369  12.253  24.858  0.00  0.00    +0.000 OA
ATOM     37  C   UNL     1      23.545  13.492  25.489  0.00  0.00    +0.000 C 
ENDBRANCH  35  36
ENDBRANCH   7  35
TORSDOF 3
ENDMDL
MODEL 8
REMARK VINA RESULT:      -7.1      1.376      5.209
REMARK  Name = 490561_Nocardiopsis.pdbqt.pdb
REMARK  3 active torsions:
REMARK  status: ('A' for Active; 'I' for Inactive)
REMARK    1  A    between atoms: C_7  and  O_32
REMARK    2  A    between atoms: C_7  and  C_35
REMARK    3  A    between atoms: C_35  and  O_36
REMARK                            x       y       z     vdW  Elec       q    Type
REMARK                         _______ _______ _______ _____ _____    ______ ____
ROOT
ATOM      1  O   UNL     1      12.611  17.714  32.157  0.00  0.00    +0.000 OA
ATOM      2  O   UNL     1      15.798  24.538  32.089  0.00  0.00    +0.000 OA
ATOM      3  N   UNL     1      11.403  19.506  31.198  0.00  0.00    +0.000 N 
ATOM      4  N   UNL     1      14.356  19.160  31.606  0.00  0.00    +0.000 N 
ATOM      5  N   UNL     1      13.557  25.052  31.760  0.00  0.00    +0.000 N 
ATOM      6  C   UNL     1      11.546  18.036  31.195  0.00  0.00    +0.000 C 
ATOM      7  C   UNL     1      12.086  17.461  29.815  0.00  0.00    +0.000 C 
ATOM      8  C   UNL     1      13.800  17.904  31.433  0.00  0.00    +0.000 C 
ATOM      9  C   UNL     1      13.517  17.511  30.102  0.00  0.00    +0.000 C 
ATOM     10  C   UNL     1      12.317  20.497  31.452  0.00  0.00    +0.000 A 
ATOM     11  C   UNL     1      13.688  20.346  31.658  0.00  0.00    +0.000 A 
ATOM     12  C   UNL     1      11.900  21.831  31.430  0.00  0.00    +0.000 A 
ATOM     13  C   UNL     1      14.411  21.535  31.802  0.00  0.00    +0.000 A 
ATOM     14  C   UNL     1      10.268  17.317  31.741  0.00  0.00    +0.000 C 
ATOM     15  C   UNL     1      10.267  20.300  30.899  0.00  0.00    +0.000 A 
ATOM     16  C   UNL     1      15.685  19.616  31.675  0.00  0.00    +0.000 A 
ATOM     17  C   UNL     1      10.546  21.709  31.067  0.00  0.00    +0.000 A 
ATOM     18  C   UNL     1      12.599  23.034  31.594  0.00  0.00    +0.000 A 
ATOM     19  C   UNL     1      14.003  22.885  31.802  0.00  0.00    +0.000 A 
ATOM     20  C   UNL     1      15.739  21.054  31.822  0.00  0.00    +0.000 A 
ATOM     21  C   UNL     1      12.342  24.497  31.571  0.00  0.00    +0.000 C 
ATOM     22  C   UNL     1       8.993  19.886  30.478  0.00  0.00    +0.000 A 
ATOM     23  C   UNL     1      14.643  24.177  31.912  0.00  0.00    +0.000 C 
ATOM     24  C   UNL     1      16.862  18.852  31.632  0.00  0.00    +0.000 A 
ATOM     25  C   UNL     1       9.513  22.633  30.816  0.00  0.00    +0.000 A 
ATOM     26  C   UNL     1      17.009  21.659  31.910  0.00  0.00    +0.000 A 
ATOM     27  C   UNL     1       8.002  20.839  30.244  0.00  0.00    +0.000 A 
ATOM     28  C   UNL     1       8.253  22.191  30.415  0.00  0.00    +0.000 A 
ATOM     29  C   UNL     1      18.090  19.505  31.731  0.00  0.00    +0.000 A 
ATOM     30  C   UNL     1      18.166  20.883  31.868  0.00  0.00    +0.000 A 
ATOM     31  H   UNL     1      13.700  26.051  31.792  0.00  0.00    +0.000 HD
ENDROOT
BRANCH   7  32
ATOM     32  O   UNL     1      11.812  18.282  28.670  0.00  0.00    +0.000 OA
ATOM     33  H   UNL     1      12.571  18.898  28.565  0.00  0.00    +0.000 HD
ENDBRANCH   7  32
BRANCH   7  35
ATOM     34  O   UNL     1      10.616  15.811  28.877  0.00  0.00    +0.000 OA
ATOM     35  C   UNL     1      11.611  16.030  29.571  0.00  0.00    +0.000 C 
BRANCH  35  36
ATOM     36  O   UNL     1      12.442  15.114  30.154  0.00  0.00    +0.000 OA
ATOM     37  C   UNL     1      11.853  14.021  30.804  0.00  0.00    +0.000 C 
ENDBRANCH  35  36
ENDBRANCH   7  35
TORSDOF 3
ENDMDL
MODEL 9
REMARK VINA RESULT:      -7.0     11.140     14.174
REMARK  Name = 490561_Nocardiopsis.pdbqt.pdb
REMARK  3 active torsions:
REMARK  status: ('A' for Active; 'I' for Inactive)
REMARK    1  A    between atoms: C_7  and  O_32
REMARK    2  A    between atoms: C_7  and  C_35
REMARK    3  A    between atoms: C_35  and  O_36
REMARK                            x       y       z     vdW  Elec       q    Type
REMARK                         _______ _______ _______ _____ _____    ______ ____
ROOT
ATOM      1  O   UNL     1      25.339  13.151  25.985  0.00  0.00    +0.000 OA
ATOM      2  O   UNL     1      22.094  16.683  31.792  0.00  0.00    +0.000 OA
ATOM      3  N   UNL     1      24.682  11.863  27.855  0.00  0.00    +0.000 N 
ATOM      4  N   UNL     1      23.683  14.523  26.889  0.00  0.00    +0.000 N 
ATOM      5  N   UNL     1      22.775  14.687  32.765  0.00  0.00    +0.000 N 
ATOM      6  C   UNL     1      24.965  11.792  26.407  0.00  0.00    +0.000 C 
ATOM      7  C   UNL     1      23.682  11.456  25.532  0.00  0.00    +0.000 C 
ATOM      8  C   UNL     1      24.109  13.802  25.787  0.00  0.00    +0.000 C 
ATOM      9  C   UNL     1      23.220  12.819  25.286  0.00  0.00    +0.000 C 
ATOM     10  C   UNL     1      24.215  12.894  28.630  0.00  0.00    +0.000 A 
ATOM     11  C   UNL     1      23.763  14.139  28.193  0.00  0.00    +0.000 A 
ATOM     12  C   UNL     1      24.075  12.702  30.008  0.00  0.00    +0.000 A 
ATOM     13  C   UNL     1      23.248  14.977  29.188  0.00  0.00    +0.000 A 
ATOM     14  C   UNL     1      26.215  10.906  26.093  0.00  0.00    +0.000 C 
ATOM     15  C   UNL     1      24.786  10.851  28.843  0.00  0.00    +0.000 A 
ATOM     16  C   UNL     1      22.989  15.739  27.026  0.00  0.00    +0.000 A 
ATOM     17  C   UNL     1      24.452  11.355  30.156  0.00  0.00    +0.000 A 
ATOM     18  C   UNL     1      23.585  13.532  31.025  0.00  0.00    +0.000 A 
ATOM     19  C   UNL     1      23.119  14.806  30.582  0.00  0.00    +0.000 A 
ATOM     20  C   UNL     1      22.739  16.046  28.417  0.00  0.00    +0.000 A 
ATOM     21  C   UNL     1      23.336  13.491  32.488  0.00  0.00    +0.000 C 
ATOM     22  C   UNL     1      25.148   9.503  28.683  0.00  0.00    +0.000 A 
ATOM     23  C   UNL     1      22.590  15.570  31.690  0.00  0.00    +0.000 C 
ATOM     24  C   UNL     1      22.570  16.611  26.010  0.00  0.00    +0.000 A 
ATOM     25  C   UNL     1      24.516  10.471  31.252  0.00  0.00    +0.000 A 
ATOM     26  C   UNL     1      22.054  17.241  28.714  0.00  0.00    +0.000 A 
ATOM     27  C   UNL     1      25.198   8.668  29.799  0.00  0.00    +0.000 A 
ATOM     28  C   UNL     1      24.894   9.142  31.065  0.00  0.00    +0.000 A 
ATOM     29  C   UNL     1      21.902  17.783  26.364  0.00  0.00    +0.000 A 
ATOM     30  C   UNL     1      21.648  18.096  27.691  0.00  0.00    +0.000 A 
ATOM     31  H   UNL     1      22.492  14.953  33.696  0.00  0.00    +0.000 HD
ENDROOT
BRANCH   7  32
ATOM     32  O   UNL     1      22.652  10.734  26.224  0.00  0.00    +0.000 OA
ATOM     33  H   UNL     1      22.350  10.013  25.629  0.00  0.00    +0.000 HD
ENDBRANCH   7  32
BRANCH   7  35
ATOM     34  O   UNL     1      24.078   9.512  24.180  0.00  0.00    +0.000 OA
ATOM     35  C   UNL     1      24.051  10.743  24.232  0.00  0.00    +0.000 C 
BRANCH  35  36
ATOM     36  O   UNL     1      24.268  11.630  23.214  0.00  0.00    +0.000 OA
ATOM     37  C   UNL     1      25.524  11.611  22.592  0.00  0.00    +0.000 C 
ENDBRANCH  35  36
ENDBRANCH   7  35
TORSDOF 3
ENDMDL
