MODEL 1
REMARK VINA RESULT:      -6.8      0.000      0.000
REMARK  Name = 50922675_Encorafenib.pdbqt.pdb
REMARK  8 active torsions:
REMARK  status: ('A' for Active; 'I' for Inactive)
REMARK    1  A    between atoms: N_1  and  C_37
REMARK    2  A    between atoms: C_3  and  C_23
REMARK    3  A    between atoms: C_4  and  C_8
REMARK    4  A    between atoms: C_11  and  N_14
REMARK    5  A    between atoms: N_14  and  S_16
REMARK    6  A    between atoms: N_20  and  C_28
REMARK    7  A    between atoms: C_28  and  C_29
REMARK    8  A    between atoms: C_33  and  O_35
REMARK                            x       y       z     vdW  Elec       q    Type
REMARK                         _______ _______ _______ _____ _____    ______ ____
ROOT
ATOM      1  N   UNL     1       7.473  23.358  30.591  0.00  0.00    +0.000 N 
ATOM      2  N   UNL     1       7.608  24.471  29.787  0.00  0.00    +0.000 NA
ATOM      3  C   UNL     1       9.685  23.780  30.432  0.00  0.00    +0.000 A 
ATOM      4  C   UNL     1       8.924  24.707  29.668  0.00  0.00    +0.000 A 
ATOM      5  C   UNL     1       8.740  22.955  30.993  0.00  0.00    +0.000 A 
ENDROOT
BRANCH   4   8
ATOM      6 CL   UNL     1       9.399  26.829  24.999  0.00  0.00    +0.000 Cl
ATOM      7  F   UNL     1      10.210  27.013  30.766  0.00  0.00    +0.000 F 
ATOM      8  C   UNL     1       9.368  25.839  28.865  0.00  0.00    +0.000 A 
ATOM      9  C   UNL     1      10.013  26.941  29.439  0.00  0.00    +0.000 A 
ATOM     10  C   UNL     1       9.202  25.805  27.479  0.00  0.00    +0.000 A 
ATOM     11  C   UNL     1      10.464  28.004  28.648  0.00  0.00    +0.000 A 
ATOM     12  C   UNL     1       9.652  26.860  26.693  0.00  0.00    +0.000 A 
ATOM     13  C   UNL     1      10.297  27.949  27.267  0.00  0.00    +0.000 A 
BRANCH  11  14
ATOM     14  N   UNL     1      11.211  29.073  29.248  0.00  0.00    +0.000 N 
ATOM     15  H   UNL     1      10.971  29.994  28.869  0.00  0.00    +0.000 HD
BRANCH  14  16
ATOM     16  S   UNL     1      12.882  28.948  29.267  0.00  0.00    +0.000 S 
ATOM     17  O   UNL     1      13.307  27.574  29.289  0.00  0.00    +0.000 OA
ATOM     18  O   UNL     1      13.567  30.034  28.602  0.00  0.00    +0.000 OA
ATOM     19  C   UNL     1      13.359  29.358  30.919  0.00  0.00    +0.000 C 
ENDBRANCH  14  16
ENDBRANCH  11  14
ENDBRANCH   4   8
BRANCH   3  23
ATOM     20  N   UNL     1      13.538  21.034  29.970  0.00  0.00    +0.000 N 
ATOM     21  N   UNL     1      11.633  22.428  30.217  0.00  0.00    +0.000 NA
ATOM     22  N   UNL     1      13.763  23.124  30.959  0.00  0.00    +0.000 NA
ATOM     23  C   UNL     1      11.114  23.597  30.635  0.00  0.00    +0.000 A 
ATOM     24  C   UNL     1      12.950  22.227  30.392  0.00  0.00    +0.000 A 
ATOM     25  C   UNL     1      11.868  24.580  31.234  0.00  0.00    +0.000 A 
ATOM     26  C   UNL     1      13.200  24.277  31.365  0.00  0.00    +0.000 A 
ATOM     27  H   UNL     1      14.458  20.965  30.390  0.00  0.00    +0.000 HD
BRANCH  20  28
ATOM     28  C   UNL     1      12.688  19.850  29.953  0.00  0.00    +0.000 C 
BRANCH  28  29
ATOM     29  C   UNL     1      11.841  18.721  29.810  0.00  0.00    +0.000 C 
ATOM     30  C   UNL     1      10.361  18.958  29.769  0.00  0.00    +0.000 C 
ATOM     31  O   UNL     1      14.527  17.695  29.756  0.00  0.00    +0.000 OA
ATOM     32  N   UNL     1      12.256  17.472  29.497  0.00  0.00    +0.000 N 
ATOM     33  C   UNL     1      13.550  17.022  29.443  0.00  0.00    +0.000 C 
ATOM     34  H   UNL     1      11.516  16.824  29.244  0.00  0.00    +0.000 HD
BRANCH  33  35
ATOM     35  O   UNL     1      13.570  15.719  29.004  0.00  0.00    +0.000 OA
ATOM     36  C   UNL     1      13.146  14.712  29.888  0.00  0.00    +0.000 C 
ENDBRANCH  33  35
ENDBRANCH  28  29
ENDBRANCH  20  28
ENDBRANCH   3  23
BRANCH   1  37
ATOM     37  C   UNL     1       6.279  22.703  30.982  0.00  0.00    +0.000 C 
ATOM     38  C   UNL     1       6.201  21.193  31.134  0.00  0.00    +0.000 C 
ATOM     39  C   UNL     1       5.006  23.462  31.293  0.00  0.00    +0.000 C 
ENDBRANCH   1  37
TORSDOF 8
ENDMDL
MODEL 2
REMARK VINA RESULT:      -6.6     12.407     16.464
REMARK  Name = 50922675_Encorafenib.pdbqt.pdb
REMARK  8 active torsions:
REMARK  status: ('A' for Active; 'I' for Inactive)
REMARK    1  A    between atoms: N_1  and  C_37
REMARK    2  A    between atoms: C_3  and  C_23
REMARK    3  A    between atoms: C_4  and  C_8
REMARK    4  A    between atoms: C_11  and  N_14
REMARK    5  A    between atoms: N_14  and  S_16
REMARK    6  A    between atoms: N_20  and  C_28
REMARK    7  A    between atoms: C_28  and  C_29
REMARK    8  A    between atoms: C_33  and  O_35
REMARK                            x       y       z     vdW  Elec       q    Type
REMARK                         _______ _______ _______ _____ _____    ______ ____
ROOT
ATOM      1  N   UNL     1      21.432  17.225  29.012  0.00  0.00    +0.000 N 
ATOM      2  N   UNL     1      22.193  16.181  28.526  0.00  0.00    +0.000 NA
ATOM      3  C   UNL     1      22.159  17.848  26.967  0.00  0.00    +0.000 A 
ATOM      4  C   UNL     1      22.650  16.561  27.323  0.00  0.00    +0.000 A 
ATOM      5  C   UNL     1      21.402  18.226  28.050  0.00  0.00    +0.000 A 
ENDROOT
BRANCH   4   8
ATOM      6 CL   UNL     1      27.105  15.737  24.874  0.00  0.00    +0.000 Cl
ATOM      7  F   UNL     1      21.850  13.911  26.606  0.00  0.00    +0.000 F 
ATOM      8  C   UNL     1      23.492  15.644  26.566  0.00  0.00    +0.000 A 
ATOM      9  C   UNL     1      23.055  14.360  26.217  0.00  0.00    +0.000 A 
ATOM     10  C   UNL     1      24.746  16.069  26.124  0.00  0.00    +0.000 A 
ATOM     11  C   UNL     1      23.864  13.505  25.461  0.00  0.00    +0.000 A 
ATOM     12  C   UNL     1      25.549  15.221  25.369  0.00  0.00    +0.000 A 
ATOM     13  C   UNL     1      25.109  13.949  25.021  0.00  0.00    +0.000 A 
BRANCH  11  14
ATOM     14  N   UNL     1      23.353  12.234  25.030  0.00  0.00    +0.000 N 
ATOM     15  H   UNL     1      22.795  11.761  25.747  0.00  0.00    +0.000 HD
BRANCH  14  16
ATOM     16  S   UNL     1      24.441  11.121  24.410  0.00  0.00    +0.000 S 
ATOM     17  O   UNL     1      24.438  11.126  22.971  0.00  0.00    +0.000 OA
ATOM     18  O   UNL     1      25.592  10.883  25.252  0.00  0.00    +0.000 OA
ATOM     19  C   UNL     1      23.670   9.546  24.632  0.00  0.00    +0.000 C 
ENDBRANCH  14  16
ENDBRANCH  11  14
ENDBRANCH   4   8
BRANCH   3  23
ATOM     20  N   UNL     1      23.331  22.098  25.191  0.00  0.00    +0.000 N 
ATOM     21  N   UNL     1      22.739  19.965  26.046  0.00  0.00    +0.000 NA
ATOM     22  N   UNL     1      22.748  20.393  23.725  0.00  0.00    +0.000 NA
ATOM     23  C   UNL     1      22.354  18.699  25.804  0.00  0.00    +0.000 A 
ATOM     24  C   UNL     1      22.926  20.778  24.992  0.00  0.00    +0.000 A 
ATOM     25  C   UNL     1      22.141  18.211  24.535  0.00  0.00    +0.000 A 
ATOM     26  C   UNL     1      22.360  19.119  23.530  0.00  0.00    +0.000 A 
ATOM     27  H   UNL     1      23.189  22.609  24.326  0.00  0.00    +0.000 HD
BRANCH  20  28
ATOM     28  C   UNL     1      22.938  22.728  26.446  0.00  0.00    +0.000 C 
BRANCH  28  29
ATOM     29  C   UNL     1      22.455  23.390  27.603  0.00  0.00    +0.000 C 
ATOM     30  C   UNL     1      21.984  22.546  28.747  0.00  0.00    +0.000 C 
ATOM     31  O   UNL     1      23.275  25.471  25.794  0.00  0.00    +0.000 OA
ATOM     32  N   UNL     1      22.578  24.716  27.847  0.00  0.00    +0.000 N 
ATOM     33  C   UNL     1      23.009  25.680  26.973  0.00  0.00    +0.000 C 
ATOM     34  H   UNL     1      22.355  24.999  28.798  0.00  0.00    +0.000 HD
BRANCH  33  35
ATOM     35  O   UNL     1      23.078  26.893  27.618  0.00  0.00    +0.000 OA
ATOM     36  C   UNL     1      23.352  28.039  26.851  0.00  0.00    +0.000 C 
ENDBRANCH  33  35
ENDBRANCH  28  29
ENDBRANCH  20  28
ENDBRANCH   3  23
BRANCH   1  37
ATOM     37  C   UNL     1      20.764  17.312  30.258  0.00  0.00    +0.000 C 
ATOM     38  C   UNL     1      21.465  17.009  31.571  0.00  0.00    +0.000 C 
ATOM     39  C   UNL     1      19.312  17.731  30.369  0.00  0.00    +0.000 C 
ENDBRANCH   1  37
TORSDOF 8
ENDMDL
MODEL 3
REMARK VINA RESULT:      -6.4      2.927      3.809
REMARK  Name = 50922675_Encorafenib.pdbqt.pdb
REMARK  8 active torsions:
REMARK  status: ('A' for Active; 'I' for Inactive)
REMARK    1  A    between atoms: N_1  and  C_37
REMARK    2  A    between atoms: C_3  and  C_23
REMARK    3  A    between atoms: C_4  and  C_8
REMARK    4  A    between atoms: C_11  and  N_14
REMARK    5  A    between atoms: N_14  and  S_16
REMARK    6  A    between atoms: N_20  and  C_28
REMARK    7  A    between atoms: C_28  and  C_29
REMARK    8  A    between atoms: C_33  and  O_35
REMARK                            x       y       z     vdW  Elec       q    Type
REMARK                         _______ _______ _______ _____ _____    ______ ____
ROOT
ATOM      1  N   UNL     1       5.003  24.026  29.527  0.00  0.00    +0.000 N 
ATOM      2  N   UNL     1       5.704  25.067  28.952  0.00  0.00    +0.000 NA
ATOM      3  C   UNL     1       7.195  23.524  29.729  0.00  0.00    +0.000 A 
ATOM      4  C   UNL     1       7.006  24.757  29.046  0.00  0.00    +0.000 A 
ATOM      5  C   UNL     1       5.918  23.102  30.013  0.00  0.00    +0.000 A 
ENDROOT
BRANCH   4   8
ATOM      6 CL   UNL     1       9.372  26.727  24.917  0.00  0.00    +0.000 Cl
ATOM      7  F   UNL     1       8.636  26.435  30.689  0.00  0.00    +0.000 F 
ATOM      8  C   UNL     1       7.993  25.688  28.515  0.00  0.00    +0.000 A 
ATOM      9  C   UNL     1       8.787  26.478  29.355  0.00  0.00    +0.000 A 
ATOM     10  C   UNL     1       8.199  25.758  27.136  0.00  0.00    +0.000 A 
ATOM     11  C   UNL     1       9.754  27.342  28.829  0.00  0.00    +0.000 A 
ATOM     12  C   UNL     1       9.162  26.614  26.613  0.00  0.00    +0.000 A 
ATOM     13  C   UNL     1       9.951  27.393  27.452  0.00  0.00    +0.000 A 
BRANCH  11  14
ATOM     14  N   UNL     1      10.623  28.065  29.714  0.00  0.00    +0.000 N 
ATOM     15  H   UNL     1      10.786  29.032  29.418  0.00  0.00    +0.000 HD
BRANCH  14  16
ATOM     16  S   UNL     1      12.109  27.385  30.083  0.00  0.00    +0.000 S 
ATOM     17  O   UNL     1      11.961  26.189  30.868  0.00  0.00    +0.000 OA
ATOM     18  O   UNL     1      13.134  27.623  29.090  0.00  0.00    +0.000 OA
ATOM     19  C   UNL     1      12.786  28.409  31.355  0.00  0.00    +0.000 C 
ENDBRANCH  14  16
ENDBRANCH  11  14
ENDBRANCH   4   8
BRANCH   3  23
ATOM     20  N   UNL     1       9.145  19.314  30.761  0.00  0.00    +0.000 N 
ATOM     21  N   UNL     1       8.201  21.431  30.252  0.00  0.00    +0.000 NA
ATOM     22  N   UNL     1      10.499  21.201  30.741  0.00  0.00    +0.000 NA
ATOM     23  C   UNL     1       8.378  22.754  30.080  0.00  0.00    +0.000 A 
ATOM     24  C   UNL     1       9.275  20.691  30.578  0.00  0.00    +0.000 A 
ATOM     25  C   UNL     1       9.598  23.372  30.230  0.00  0.00    +0.000 A 
ATOM     26  C   UNL     1      10.628  22.529  30.563  0.00  0.00    +0.000 A 
ATOM     27  H   UNL     1       9.980  18.973  31.225  0.00  0.00    +0.000 HD
BRANCH  20  28
ATOM     28  C   UNL     1       7.847  18.827  31.215  0.00  0.00    +0.000 C 
BRANCH  28  29
ATOM     29  C   UNL     1       6.615  18.241  31.602  0.00  0.00    +0.000 C 
ATOM     30  C   UNL     1       5.454  19.154  31.851  0.00  0.00    +0.000 C 
ATOM     31  O   UNL     1       8.432  16.048  31.195  0.00  0.00    +0.000 OA
ATOM     32  N   UNL     1       6.338  16.917  31.561  0.00  0.00    +0.000 N 
ATOM     33  C   UNL     1       7.222  15.896  31.327  0.00  0.00    +0.000 C 
ATOM     34  H   UNL     1       5.358  16.679  31.684  0.00  0.00    +0.000 HD
BRANCH  33  35
ATOM     35  O   UNL     1       6.546  14.698  31.279  0.00  0.00    +0.000 OA
ATOM     36  C   UNL     1       5.176  14.695  31.590  0.00  0.00    +0.000 C 
ENDBRANCH  33  35
ENDBRANCH  28  29
ENDBRANCH  20  28
ENDBRANCH   3  23
BRANCH   1  37
ATOM     37  C   UNL     1       3.599  23.877  29.642  0.00  0.00    +0.000 C 
ATOM     38  C   UNL     1       2.904  22.554  29.367  0.00  0.00    +0.000 C 
ATOM     39  C   UNL     1       2.697  25.019  30.063  0.00  0.00    +0.000 C 
ENDBRANCH   1  37
TORSDOF 8
ENDMDL
MODEL 4
REMARK VINA RESULT:      -6.2      4.977     10.030
REMARK  Name = 50922675_Encorafenib.pdbqt.pdb
REMARK  8 active torsions:
REMARK  status: ('A' for Active; 'I' for Inactive)
REMARK    1  A    between atoms: N_1  and  C_37
REMARK    2  A    between atoms: C_3  and  C_23
REMARK    3  A    between atoms: C_4  and  C_8
REMARK    4  A    between atoms: C_11  and  N_14
REMARK    5  A    between atoms: N_14  and  S_16
REMARK    6  A    between atoms: N_20  and  C_28
REMARK    7  A    between atoms: C_28  and  C_29
REMARK    8  A    between atoms: C_33  and  O_35
REMARK                            x       y       z     vdW  Elec       q    Type
REMARK                         _______ _______ _______ _____ _____    ______ ____
ROOT
ATOM      1  N   UNL     1       8.425  31.303  30.291  0.00  0.00    +0.000 N 
ATOM      2  N   UNL     1       8.180  30.046  29.775  0.00  0.00    +0.000 NA
ATOM      3  C   UNL     1      10.324  30.640  29.265  0.00  0.00    +0.000 A 
ATOM      4  C   UNL     1       9.317  29.639  29.190  0.00  0.00    +0.000 A 
ATOM      5  C   UNL     1       9.725  31.663  29.961  0.00  0.00    +0.000 A 
ENDROOT
BRANCH   4   8
ATOM      6 CL   UNL     1       9.608  26.917  24.828  0.00  0.00    +0.000 Cl
ATOM      7  F   UNL     1       9.124  27.175  30.628  0.00  0.00    +0.000 F 
ATOM      8  C   UNL     1       9.351  28.330  28.550  0.00  0.00    +0.000 A 
ATOM      9  C   UNL     1       9.232  27.146  29.289  0.00  0.00    +0.000 A 
ATOM     10  C   UNL     1       9.446  28.247  27.160  0.00  0.00    +0.000 A 
ATOM     11  C   UNL     1       9.233  25.899  28.656  0.00  0.00    +0.000 A 
ATOM     12  C   UNL     1       9.442  27.007  26.530  0.00  0.00    +0.000 A 
ATOM     13  C   UNL     1       9.320  25.835  27.267  0.00  0.00    +0.000 A 
BRANCH  11  14
ATOM     14  N   UNL     1       9.008  24.707  29.424  0.00  0.00    +0.000 N 
ATOM     15  H   UNL     1       9.487  23.886  29.042  0.00  0.00    +0.000 HD
BRANCH  14  16
ATOM     16  S   UNL     1       7.424  24.271  29.752  0.00  0.00    +0.000 S 
ATOM     17  O   UNL     1       7.038  24.652  31.084  0.00  0.00    +0.000 OA
ATOM     18  O   UNL     1       6.560  24.258  28.592  0.00  0.00    +0.000 OA
ATOM     19  C   UNL     1       7.469  22.525  30.020  0.00  0.00    +0.000 C 
ENDBRANCH  14  16
ENDBRANCH  11  14
ENDBRANCH   4   8
BRANCH   3  23
ATOM     20  N   UNL     1      13.501  32.303  26.145  0.00  0.00    +0.000 N 
ATOM     21  N   UNL     1      11.939  31.454  27.718  0.00  0.00    +0.000 NA
ATOM     22  N   UNL     1      14.228  30.892  27.842  0.00  0.00    +0.000 NA
ATOM     23  C   UNL     1      11.703  30.699  28.806  0.00  0.00    +0.000 A 
ATOM     24  C   UNL     1      13.203  31.528  27.267  0.00  0.00    +0.000 A 
ATOM     25  C   UNL     1      12.692  30.004  29.464  0.00  0.00    +0.000 A 
ATOM     26  C   UNL     1      13.945  30.147  28.925  0.00  0.00    +0.000 A 
ATOM     27  H   UNL     1      14.428  32.052  25.821  0.00  0.00    +0.000 HD
BRANCH  20  28
ATOM     28  C   UNL     1      12.439  32.474  25.160  0.00  0.00    +0.000 C 
BRANCH  28  29
ATOM     29  C   UNL     1      11.500  32.666  24.116  0.00  0.00    +0.000 C 
ATOM     30  C   UNL     1      10.099  33.041  24.495  0.00  0.00    +0.000 C 
ATOM     31  O   UNL     1      13.992  32.047  22.821  0.00  0.00    +0.000 OA
ATOM     32  N   UNL     1      11.806  32.748  22.800  0.00  0.00    +0.000 N 
ATOM     33  C   UNL     1      13.017  32.482  22.217  0.00  0.00    +0.000 C 
ATOM     34  H   UNL     1      11.052  33.079  22.204  0.00  0.00    +0.000 HD
BRANCH  33  35
ATOM     35  O   UNL     1      12.957  32.763  20.871  0.00  0.00    +0.000 OA
ATOM     36  C   UNL     1      13.989  32.287  20.045  0.00  0.00    +0.000 C 
ENDBRANCH  33  35
ENDBRANCH  28  29
ENDBRANCH  20  28
ENDBRANCH   3  23
BRANCH   1  37
ATOM     37  C   UNL     1       7.542  32.133  31.026  0.00  0.00    +0.000 C 
ATOM     38  C   UNL     1       7.068  31.767  32.422  0.00  0.00    +0.000 C 
ATOM     39  C   UNL     1       7.025  33.447  30.478  0.00  0.00    +0.000 C 
ENDBRANCH   1  37
TORSDOF 8
ENDMDL
MODEL 5
REMARK VINA RESULT:      -6.0      4.235      6.158
REMARK  Name = 50922675_Encorafenib.pdbqt.pdb
REMARK  8 active torsions:
REMARK  status: ('A' for Active; 'I' for Inactive)
REMARK    1  A    between atoms: N_1  and  C_37
REMARK    2  A    between atoms: C_3  and  C_23
REMARK    3  A    between atoms: C_4  and  C_8
REMARK    4  A    between atoms: C_11  and  N_14
REMARK    5  A    between atoms: N_14  and  S_16
REMARK    6  A    between atoms: N_20  and  C_28
REMARK    7  A    between atoms: C_28  and  C_29
REMARK    8  A    between atoms: C_33  and  O_35
REMARK                            x       y       z     vdW  Elec       q    Type
REMARK                         _______ _______ _______ _____ _____    ______ ____
ROOT
ATOM      1  N   UNL     1       9.678  26.232  28.559  0.00  0.00    +0.000 N 
ATOM      2  N   UNL     1       8.536  25.799  29.202  0.00  0.00    +0.000 NA
ATOM      3  C   UNL     1      10.343  24.782  30.156  0.00  0.00    +0.000 A 
ATOM      4  C   UNL     1       8.932  24.958  30.170  0.00  0.00    +0.000 A 
ATOM      5  C   UNL     1      10.770  25.595  29.134  0.00  0.00    +0.000 A 
ENDROOT
BRANCH   4   8
ATOM      6 CL   UNL     1       6.915  24.435  34.880  0.00  0.00    +0.000 Cl
ATOM      7  F   UNL     1       7.006  23.072  29.217  0.00  0.00    +0.000 F 
ATOM      8  C   UNL     1       7.924  24.338  31.021  0.00  0.00    +0.000 A 
ATOM      9  C   UNL     1       7.011  23.402  30.519  0.00  0.00    +0.000 A 
ATOM     10  C   UNL     1       7.898  24.635  32.384  0.00  0.00    +0.000 A 
ATOM     11  C   UNL     1       6.073  22.790  31.357  0.00  0.00    +0.000 A 
ATOM     12  C   UNL     1       6.968  24.025  33.218  0.00  0.00    +0.000 A 
ATOM     13  C   UNL     1       6.067  23.093  32.717  0.00  0.00    +0.000 A 
BRANCH  11  14
ATOM     14  N   UNL     1       5.216  21.760  30.839  0.00  0.00    +0.000 N 
ATOM     15  H   UNL     1       5.651  21.216  30.089  0.00  0.00    +0.000 HD
BRANCH  14  16
ATOM     16  S   UNL     1       3.680  22.198  30.333  0.00  0.00    +0.000 S 
ATOM     17  O   UNL     1       2.773  22.314  31.443  0.00  0.00    +0.000 OA
ATOM     18  O   UNL     1       3.659  23.008  29.135  0.00  0.00    +0.000 OA
ATOM     19  C   UNL     1       2.989  20.732  29.627  0.00  0.00    +0.000 C 
ENDBRANCH  14  16
ENDBRANCH  11  14
ENDBRANCH   4   8
BRANCH   3  23
ATOM     20  N   UNL     1      12.118  20.538  31.352  0.00  0.00    +0.000 N 
ATOM     21  N   UNL     1      11.250  22.671  30.780  0.00  0.00    +0.000 NA
ATOM     22  N   UNL     1      12.903  22.430  32.447  0.00  0.00    +0.000 NA
ATOM     23  C   UNL     1      11.255  24.002  30.978  0.00  0.00    +0.000 A 
ATOM     24  C   UNL     1      12.081  21.922  31.525  0.00  0.00    +0.000 A 
ATOM     25  C   UNL     1      12.062  24.618  31.907  0.00  0.00    +0.000 A 
ATOM     26  C   UNL     1      12.872  23.765  32.614  0.00  0.00    +0.000 A 
ATOM     27  H   UNL     1      12.608  20.131  32.141  0.00  0.00    +0.000 HD
BRANCH  20  28
ATOM     28  C   UNL     1      10.894  19.898  30.885  0.00  0.00    +0.000 C 
BRANCH  28  29
ATOM     29  C   UNL     1       9.763  19.162  30.449  0.00  0.00    +0.000 C 
ATOM     30  C   UNL     1       8.469  19.900  30.284  0.00  0.00    +0.000 C 
ATOM     31  O   UNL     1      11.940  17.284  30.515  0.00  0.00    +0.000 OA
ATOM     32  N   UNL     1       9.797  17.898  29.966  0.00  0.00    +0.000 N 
ATOM     33  C   UNL     1      10.865  17.039  29.978  0.00  0.00    +0.000 C 
ATOM     34  H   UNL     1       8.940  17.586  29.519  0.00  0.00    +0.000 HD
BRANCH  33  35
ATOM     35  O   UNL     1      10.535  15.878  29.318  0.00  0.00    +0.000 OA
ATOM     36  C   UNL     1       9.905  14.854  30.046  0.00  0.00    +0.000 C 
ENDBRANCH  33  35
ENDBRANCH  28  29
ENDBRANCH  20  28
ENDBRANCH   3  23
BRANCH   1  37
ATOM     37  C   UNL     1       9.780  27.154  27.488  0.00  0.00    +0.000 C 
ATOM     38  C   UNL     1      10.638  28.404  27.580  0.00  0.00    +0.000 C 
ATOM     39  C   UNL     1       9.057  26.948  26.173  0.00  0.00    +0.000 C 
ENDBRANCH   1  37
TORSDOF 8
ENDMDL
MODEL 6
REMARK VINA RESULT:      -5.9      6.635     10.377
REMARK  Name = 50922675_Encorafenib.pdbqt.pdb
REMARK  8 active torsions:
REMARK  status: ('A' for Active; 'I' for Inactive)
REMARK    1  A    between atoms: N_1  and  C_37
REMARK    2  A    between atoms: C_3  and  C_23
REMARK    3  A    between atoms: C_4  and  C_8
REMARK    4  A    between atoms: C_11  and  N_14
REMARK    5  A    between atoms: N_14  and  S_16
REMARK    6  A    between atoms: N_20  and  C_28
REMARK    7  A    between atoms: C_28  and  C_29
REMARK    8  A    between atoms: C_33  and  O_35
REMARK                            x       y       z     vdW  Elec       q    Type
REMARK                         _______ _______ _______ _____ _____    ______ ____
ROOT
ATOM      1  N   UNL     1       8.539  18.767  30.657  0.00  0.00    +0.000 N 
ATOM      2  N   UNL     1       8.090  17.501  30.975  0.00  0.00    +0.000 NA
ATOM      3  C   UNL     1      10.265  17.356  30.297  0.00  0.00    +0.000 A 
ATOM      4  C   UNL     1       9.123  16.665  30.788  0.00  0.00    +0.000 A 
ATOM      5  C   UNL     1       9.856  18.667  30.229  0.00  0.00    +0.000 A 
ENDROOT
BRANCH   4   8
ATOM      6 CL   UNL     1       6.407  12.383  29.890  0.00  0.00    +0.000 Cl
ATOM      7  F   UNL     1      10.762  15.160  32.584  0.00  0.00    +0.000 F 
ATOM      8  C   UNL     1       8.936  15.243  31.048  0.00  0.00    +0.000 A 
ATOM      9  C   UNL     1       9.748  14.547  31.952  0.00  0.00    +0.000 A 
ATOM     10  C   UNL     1       7.886  14.564  30.429  0.00  0.00    +0.000 A 
ATOM     11  C   UNL     1       9.532  13.190  32.215  0.00  0.00    +0.000 A 
ATOM     12  C   UNL     1       7.669  13.216  30.693  0.00  0.00    +0.000 A 
ATOM     13  C   UNL     1       8.474  12.530  31.594  0.00  0.00    +0.000 A 
BRANCH  11  14
ATOM     14  N   UNL     1      10.313  12.524  33.220  0.00  0.00    +0.000 N 
ATOM     15  H   UNL     1      10.498  13.110  34.039  0.00  0.00    +0.000 HD
BRANCH  14  16
ATOM     16  S   UNL     1      11.760  11.822  32.753  0.00  0.00    +0.000 S 
ATOM     17  O   UNL     1      11.903  11.813  31.321  0.00  0.00    +0.000 OA
ATOM     18  O   UNL     1      12.834  11.983  33.708  0.00  0.00    +0.000 OA
ATOM     19  C   UNL     1      11.525  10.084  32.968  0.00  0.00    +0.000 C 
ENDBRANCH  14  16
ENDBRANCH  11  14
ENDBRANCH   4   8
BRANCH   3  23
ATOM     20  N   UNL     1      14.947  17.633  31.066  0.00  0.00    +0.000 N 
ATOM     21  N   UNL     1      12.615  17.474  30.656  0.00  0.00    +0.000 NA
ATOM     22  N   UNL     1      14.167  16.225  29.391  0.00  0.00    +0.000 NA
ATOM     23  C   UNL     1      11.610  16.930  29.946  0.00  0.00    +0.000 A 
ATOM     24  C   UNL     1      13.871  17.101  30.355  0.00  0.00    +0.000 A 
ATOM     25  C   UNL     1      11.815  16.022  28.932  0.00  0.00    +0.000 A 
ATOM     26  C   UNL     1      13.132  15.708  28.705  0.00  0.00    +0.000 A 
ATOM     27  H   UNL     1      15.799  17.429  30.556  0.00  0.00    +0.000 HD
BRANCH  20  28
ATOM     28  C   UNL     1      14.773  18.967  31.628  0.00  0.00    +0.000 C 
BRANCH  28  29
ATOM     29  C   UNL     1      14.515  20.213  32.254  0.00  0.00    +0.000 C 
ATOM     30  C   UNL     1      14.981  21.456  31.557  0.00  0.00    +0.000 C 
ATOM     31  O   UNL     1      13.356  18.221  33.973  0.00  0.00    +0.000 OA
ATOM     32  N   UNL     1      13.701  20.394  33.320  0.00  0.00    +0.000 N 
ATOM     33  C   UNL     1      13.133  19.420  34.098  0.00  0.00    +0.000 C 
ATOM     34  H   UNL     1      13.472  21.363  33.526  0.00  0.00    +0.000 HD
BRANCH  33  35
ATOM     35  O   UNL     1      12.302  19.997  35.031  0.00  0.00    +0.000 OA
ATOM     36  C   UNL     1      11.932  19.236  36.153  0.00  0.00    +0.000 C 
ENDBRANCH  33  35
ENDBRANCH  28  29
ENDBRANCH  20  28
ENDBRANCH   3  23
BRANCH   1  37
ATOM     37  C   UNL     1       7.825  19.989  30.725  0.00  0.00    +0.000 C 
ATOM     38  C   UNL     1       6.437  20.078  31.338  0.00  0.00    +0.000 C 
ATOM     39  C   UNL     1       8.401  21.291  30.208  0.00  0.00    +0.000 C 
ENDBRANCH   1  37
TORSDOF 8
ENDMDL
MODEL 7
REMARK VINA RESULT:      -5.9      3.593      5.531
REMARK  Name = 50922675_Encorafenib.pdbqt.pdb
REMARK  8 active torsions:
REMARK  status: ('A' for Active; 'I' for Inactive)
REMARK    1  A    between atoms: N_1  and  C_37
REMARK    2  A    between atoms: C_3  and  C_23
REMARK    3  A    between atoms: C_4  and  C_8
REMARK    4  A    between atoms: C_11  and  N_14
REMARK    5  A    between atoms: N_14  and  S_16
REMARK    6  A    between atoms: N_20  and  C_28
REMARK    7  A    between atoms: C_28  and  C_29
REMARK    8  A    between atoms: C_33  and  O_35
REMARK                            x       y       z     vdW  Elec       q    Type
REMARK                         _______ _______ _______ _____ _____    ______ ____
ROOT
ATOM      1  N   UNL     1       6.474  18.500  31.794  0.00  0.00    +0.000 N 
ATOM      2  N   UNL     1       6.637  19.859  31.616  0.00  0.00    +0.000 NA
ATOM      3  C   UNL     1       8.512  18.794  30.868  0.00  0.00    +0.000 A 
ATOM      4  C   UNL     1       7.836  20.034  31.040  0.00  0.00    +0.000 A 
ATOM      5  C   UNL     1       7.625  17.862  31.353  0.00  0.00    +0.000 A 
ENDROOT
BRANCH   4   8
ATOM      6 CL   UNL     1       7.306  24.247  28.125  0.00  0.00    +0.000 Cl
ATOM      7  F   UNL     1       9.985  21.337  32.403  0.00  0.00    +0.000 F 
ATOM      8  C   UNL     1       8.280  21.387  30.732  0.00  0.00    +0.000 A 
ATOM      9  C   UNL     1       9.352  21.983  31.410  0.00  0.00    +0.000 A 
ATOM     10  C   UNL     1       7.665  22.093  29.697  0.00  0.00    +0.000 A 
ATOM     11  C   UNL     1       9.787  23.270  31.078  0.00  0.00    +0.000 A 
ATOM     12  C   UNL     1       8.100  23.372  29.365  0.00  0.00    +0.000 A 
ATOM     13  C   UNL     1       9.167  23.957  30.037  0.00  0.00    +0.000 A 
BRANCH  11  14
ATOM     14  N   UNL     1      10.950  23.818  31.717  0.00  0.00    +0.000 N 
ATOM     15  H   UNL     1      10.884  24.827  31.876  0.00  0.00    +0.000 HD
BRANCH  14  16
ATOM     16  S   UNL     1      12.445  23.504  31.029  0.00  0.00    +0.000 S 
ATOM     17  O   UNL     1      12.315  22.772  29.797  0.00  0.00    +0.000 OA
ATOM     18  O   UNL     1      13.453  24.500  31.318  0.00  0.00    +0.000 OA
ATOM     19  C   UNL     1      13.137  22.196  31.997  0.00  0.00    +0.000 C 
ENDBRANCH  14  16
ENDBRANCH  11  14
ENDBRANCH   4   8
BRANCH   3  23
ATOM     20  N   UNL     1      11.410  15.436  29.159  0.00  0.00    +0.000 N 
ATOM     21  N   UNL     1       9.987  17.136  30.009  0.00  0.00    +0.000 NA
ATOM     22  N   UNL     1      12.164  17.632  29.242  0.00  0.00    +0.000 NA
ATOM     23  C   UNL     1       9.802  18.436  30.300  0.00  0.00    +0.000 A 
ATOM     24  C   UNL     1      11.171  16.772  29.484  0.00  0.00    +0.000 A 
ATOM     25  C   UNL     1      10.766  19.396  30.091  0.00  0.00    +0.000 A 
ATOM     26  C   UNL     1      11.936  18.921  29.552  0.00  0.00    +0.000 A 
ATOM     27  H   UNL     1      12.405  15.318  29.009  0.00  0.00    +0.000 HD
BRANCH  20  28
ATOM     28  C   UNL     1      10.696  14.430  29.936  0.00  0.00    +0.000 C 
BRANCH  28  29
ATOM     29  C   UNL     1       9.895  13.519  30.671  0.00  0.00    +0.000 C 
ATOM     30  C   UNL     1       8.437  13.832  30.818  0.00  0.00    +0.000 C 
ATOM     31  O   UNL     1      12.541  12.393  30.653  0.00  0.00    +0.000 OA
ATOM     32  N   UNL     1      10.286  12.286  31.070  0.00  0.00    +0.000 N 
ATOM     33  C   UNL     1      11.552  11.764  31.014  0.00  0.00    +0.000 C 
ATOM     34  H   UNL     1       9.539  11.689  31.413  0.00  0.00    +0.000 HD
BRANCH  33  35
ATOM     35  O   UNL     1      11.533  10.454  31.432  0.00  0.00    +0.000 OA
ATOM     36  C   UNL     1      10.318   9.921  31.894  0.00  0.00    +0.000 C 
ENDBRANCH  33  35
ENDBRANCH  28  29
ENDBRANCH  20  28
ENDBRANCH   3  23
BRANCH   1  37
ATOM     37  C   UNL     1       5.356  17.819  32.336  0.00  0.00    +0.000 C 
ATOM     38  C   UNL     1       4.263  17.236  31.456  0.00  0.00    +0.000 C 
ATOM     39  C   UNL     1       5.183  17.609  33.827  0.00  0.00    +0.000 C 
ENDBRANCH   1  37
TORSDOF 8
ENDMDL
MODEL 8
REMARK VINA RESULT:      -5.8     15.899     19.589
REMARK  Name = 50922675_Encorafenib.pdbqt.pdb
REMARK  8 active torsions:
REMARK  status: ('A' for Active; 'I' for Inactive)
REMARK    1  A    between atoms: N_1  and  C_37
REMARK    2  A    between atoms: C_3  and  C_23
REMARK    3  A    between atoms: C_4  and  C_8
REMARK    4  A    between atoms: C_11  and  N_14
REMARK    5  A    between atoms: N_14  and  S_16
REMARK    6  A    between atoms: N_20  and  C_28
REMARK    7  A    between atoms: C_28  and  C_29
REMARK    8  A    between atoms: C_33  and  O_35
REMARK                            x       y       z     vdW  Elec       q    Type
REMARK                         _______ _______ _______ _____ _____    ______ ____
ROOT
ATOM      1  N   UNL     1      -3.521   8.736  23.033  0.00  0.00    +0.000 N 
ATOM      2  N   UNL     1      -2.358   8.883  23.760  0.00  0.00    +0.000 NA
ATOM      3  C   UNL     1      -2.200  10.147  21.866  0.00  0.00    +0.000 A 
ATOM      4  C   UNL     1      -1.583   9.743  23.082  0.00  0.00    +0.000 A 
ATOM      5  C   UNL     1      -3.409   9.493  21.874  0.00  0.00    +0.000 A 
ENDROOT
BRANCH   4   8
ATOM      6 CL   UNL     1       1.401  13.252  25.387  0.00  0.00    +0.000 Cl
ATOM      7  F   UNL     1       0.670   7.984  23.008  0.00  0.00    +0.000 F 
ATOM      8  C   UNL     1      -0.274  10.089  23.622  0.00  0.00    +0.000 A 
ATOM      9  C   UNL     1       0.811   9.206  23.547  0.00  0.00    +0.000 A 
ATOM     10  C   UNL     1      -0.073  11.354  24.177  0.00  0.00    +0.000 A 
ATOM     11  C   UNL     1       2.069   9.569  24.040  0.00  0.00    +0.000 A 
ATOM     12  C   UNL     1       1.179  11.715  24.664  0.00  0.00    +0.000 A 
ATOM     13  C   UNL     1       2.254  10.838  24.583  0.00  0.00    +0.000 A 
BRANCH  11  14
ATOM     14  N   UNL     1       3.188   8.686  23.860  0.00  0.00    +0.000 N 
ATOM     15  H   UNL     1       3.256   8.312  22.909  0.00  0.00    +0.000 HD
BRANCH  14  16
ATOM     16  S   UNL     1       3.358   7.407  24.928  0.00  0.00    +0.000 S 
ATOM     17  O   UNL     1       2.270   7.358  25.868  0.00  0.00    +0.000 OA
ATOM     18  O   UNL     1       4.053   6.264  24.379  0.00  0.00    +0.000 OA
ATOM     19  C   UNL     1       4.615   7.913  26.062  0.00  0.00    +0.000 C 
ENDBRANCH  14  16
ENDBRANCH  11  14
ENDBRANCH   4   8
BRANCH   3  23
ATOM     20  N   UNL     1      -0.365  14.332  20.558  0.00  0.00    +0.000 N 
ATOM     21  N   UNL     1      -1.287  12.235  21.179  0.00  0.00    +0.000 NA
ATOM     22  N   UNL     1      -1.009  12.826  18.911  0.00  0.00    +0.000 NA
ATOM     23  C   UNL     1      -1.797  11.049  20.799  0.00  0.00    +0.000 A 
ATOM     24  C   UNL     1      -0.906  13.092  20.216  0.00  0.00    +0.000 A 
ATOM     25  C   UNL     1      -1.947  10.686  19.480  0.00  0.00    +0.000 A 
ATOM     26  C   UNL     1      -1.528  11.631  18.577  0.00  0.00    +0.000 A 
ATOM     27  H   UNL     1      -0.363  14.919  19.731  0.00  0.00    +0.000 HD
BRANCH  20  28
ATOM     28  C   UNL     1      -0.795  14.913  21.825  0.00  0.00    +0.000 C 
BRANCH  28  29
ATOM     29  C   UNL     1      -1.138  15.579  23.029  0.00  0.00    +0.000 C 
ATOM     30  C   UNL     1      -1.926  14.817  24.050  0.00  0.00    +0.000 C 
ATOM     31  O   UNL     1       0.406  17.466  21.503  0.00  0.00    +0.000 OA
ATOM     32  N   UNL     1      -0.636  16.772  23.427  0.00  0.00    +0.000 N 
ATOM     33  C   UNL     1       0.130  17.633  22.686  0.00  0.00    +0.000 C 
ATOM     34  H   UNL     1      -0.831  17.018  24.393  0.00  0.00    +0.000 HD
BRANCH  33  35
ATOM     35  O   UNL     1       0.517  18.698  23.466  0.00  0.00    +0.000 OA
ATOM     36  C   UNL     1       0.137  18.705  24.819  0.00  0.00    +0.000 C 
ENDBRANCH  33  35
ENDBRANCH  28  29
ENDBRANCH  20  28
ENDBRANCH   3  23
BRANCH   1  37
ATOM     37  C   UNL     1      -4.659   7.954  23.354  0.00  0.00    +0.000 C 
ATOM     38  C   UNL     1      -5.602   7.428  22.285  0.00  0.00    +0.000 C 
ATOM     39  C   UNL     1      -5.002   7.575  24.780  0.00  0.00    +0.000 C 
ENDBRANCH   1  37
TORSDOF 8
ENDMDL
MODEL 9
REMARK VINA RESULT:      -5.7      4.410      6.062
REMARK  Name = 50922675_Encorafenib.pdbqt.pdb
REMARK  8 active torsions:
REMARK  status: ('A' for Active; 'I' for Inactive)
REMARK    1  A    between atoms: N_1  and  C_37
REMARK    2  A    between atoms: C_3  and  C_23
REMARK    3  A    between atoms: C_4  and  C_8
REMARK    4  A    between atoms: C_11  and  N_14
REMARK    5  A    between atoms: N_14  and  S_16
REMARK    6  A    between atoms: N_20  and  C_28
REMARK    7  A    between atoms: C_28  and  C_29
REMARK    8  A    between atoms: C_33  and  O_35
REMARK                            x       y       z     vdW  Elec       q    Type
REMARK                         _______ _______ _______ _____ _____    ______ ____
ROOT
ATOM      1  N   UNL     1      10.864  20.460  35.303  0.00  0.00    +0.000 N 
ATOM      2  N   UNL     1       9.624  20.478  34.695  0.00  0.00    +0.000 NA
ATOM      3  C   UNL     1      11.199  21.098  33.163  0.00  0.00    +0.000 A 
ATOM      4  C   UNL     1       9.825  20.830  33.416  0.00  0.00    +0.000 A 
ATOM      5  C   UNL     1      11.812  20.855  34.369  0.00  0.00    +0.000 A 
ENDROOT
BRANCH   4   8
ATOM      6 CL   UNL     1       5.681  18.570  31.355  0.00  0.00    +0.000 Cl
ATOM      7  F   UNL     1       9.232  23.161  31.870  0.00  0.00    +0.000 F 
ATOM      8  C   UNL     1       8.676  20.933  32.525  0.00  0.00    +0.000 A 
ATOM      9  C   UNL     1       8.433  22.086  31.768  0.00  0.00    +0.000 A 
ATOM     10  C   UNL     1       7.825  19.837  32.372  0.00  0.00    +0.000 A 
ATOM     11  C   UNL     1       7.344  22.155  30.892  0.00  0.00    +0.000 A 
ATOM     12  C   UNL     1       6.746  19.904  31.498  0.00  0.00    +0.000 A 
ATOM     13  C   UNL     1       6.510  21.049  30.745  0.00  0.00    +0.000 A 
BRANCH  11  14
ATOM     14  N   UNL     1       7.174  23.308  30.053  0.00  0.00    +0.000 N 
ATOM     15  H   UNL     1       8.060  23.760  29.806  0.00  0.00    +0.000 HD
BRANCH  14  16
ATOM     16  S   UNL     1       6.115  24.501  30.564  0.00  0.00    +0.000 S 
ATOM     17  O   UNL     1       5.584  24.210  31.869  0.00  0.00    +0.000 OA
ATOM     18  O   UNL     1       6.410  25.818  30.046  0.00  0.00    +0.000 OA
ATOM     19  C   UNL     1       4.628  24.226  29.649  0.00  0.00    +0.000 C 
ENDBRANCH  14  16
ENDBRANCH  11  14
ENDBRANCH   4   8
BRANCH   3  23
ATOM     20  N   UNL     1      13.145  19.900  28.996  0.00  0.00    +0.000 N 
ATOM     21  N   UNL     1      12.185  20.530  31.073  0.00  0.00    +0.000 NA
ATOM     22  N   UNL     1      13.289  22.107  29.707  0.00  0.00    +0.000 NA
ATOM     23  C   UNL     1      11.930  21.498  31.971  0.00  0.00    +0.000 A 
ATOM     24  C   UNL     1      12.861  20.867  29.960  0.00  0.00    +0.000 A 
ATOM     25  C   UNL     1      12.333  22.803  31.801  0.00  0.00    +0.000 A 
ATOM     26  C   UNL     1      13.014  23.042  30.634  0.00  0.00    +0.000 A 
ATOM     27  H   UNL     1      13.847  20.273  28.366  0.00  0.00    +0.000 HD
BRANCH  20  28
ATOM     28  C   UNL     1      13.286  18.525  29.460  0.00  0.00    +0.000 C 
BRANCH  28  29
ATOM     29  C   UNL     1      13.411  17.151  29.788  0.00  0.00    +0.000 C 
ATOM     30  C   UNL     1      14.680  16.703  30.447  0.00  0.00    +0.000 C 
ATOM     31  O   UNL     1      10.793  17.443  28.634  0.00  0.00    +0.000 OA
ATOM     32  N   UNL     1      12.404  16.247  29.751  0.00  0.00    +0.000 N 
ATOM     33  C   UNL     1      11.151  16.430  29.226  0.00  0.00    +0.000 C 
ATOM     34  H   UNL     1      12.609  15.358  30.197  0.00  0.00    +0.000 HD
BRANCH  33  35
ATOM     35  O   UNL     1      10.385  15.311  29.454  0.00  0.00    +0.000 OA
ATOM     36  C   UNL     1       9.530  15.306  30.569  0.00  0.00    +0.000 C 
ENDBRANCH  33  35
ENDBRANCH  28  29
ENDBRANCH  20  28
ENDBRANCH   3  23
BRANCH   1  37
ATOM     37  C   UNL     1      11.175  20.118  36.642  0.00  0.00    +0.000 C 
ATOM     38  C   UNL     1      12.163  19.016  36.984  0.00  0.00    +0.000 C 
ATOM     39  C   UNL     1      10.557  20.838  37.823  0.00  0.00    +0.000 C 
ENDBRANCH   1  37
TORSDOF 8
ENDMDL
