MODEL 1
REMARK VINA RESULT:      -7.0      0.000      0.000
REMARK  Name = 5109870_Ethoxyphenyl.pdbqt.pdb
REMARK  6 active torsions:
REMARK  status: ('A' for Active; 'I' for Inactive)
REMARK    1  A    between atoms: N_2  and  C_22
REMARK    2  A    between atoms: C_3  and  O_11
REMARK    3  A    between atoms: C_3  and  C_13
REMARK    4  A    between atoms: C_16  and  N_19
REMARK    5  A    between atoms: C_25  and  O_28
REMARK    6  A    between atoms: O_28  and  C_29
REMARK                            x       y       z     vdW  Elec       q    Type
REMARK                         _______ _______ _______ _____ _____    ______ ____
ROOT
ATOM      1  N   UNL     1      10.319  16.387  30.663  0.00  0.00    +0.000 N 
ATOM      2  N   UNL     1       9.235  18.527  30.739  0.00  0.00    +0.000 N 
ATOM      3  C   UNL     1      11.131  17.247  29.770  0.00  0.00    +0.000 C 
ATOM      4  C   UNL     1       9.115  17.187  31.054  0.00  0.00    +0.000 C 
ATOM      5  C   UNL     1      10.465  18.533  29.991  0.00  0.00    +0.000 C 
ATOM      6  C   UNL     1       9.969  15.044  30.201  0.00  0.00    +0.000 C 
ATOM      7  C   UNL     1       7.856  16.552  31.261  0.00  0.00    +0.000 C 
ATOM      8  C   UNL     1       8.945  13.906  30.045  0.00  0.00    +0.000 C 
ATOM      9  C   UNL     1       6.995  15.291  31.084  0.00  0.00    +0.000 C 
ATOM     10  C   UNL     1       7.484  13.979  30.477  0.00  0.00    +0.000 C 
ENDROOT
BRANCH   3  11
ATOM     11  C   UNL     1      12.593  17.217  30.147  0.00  0.00    +0.000 A 
ATOM     12  C   UNL     1      13.499  16.364  29.501  0.00  0.00    +0.000 A 
ATOM     13  C   UNL     1      14.853  16.374  29.825  0.00  0.00    +0.000 A 
ATOM     14  C   UNL     1      15.306  17.258  30.800  0.00  0.00    +0.000 A 
ATOM     15  C   UNL     1      14.438  18.129  31.450  0.00  0.00    +0.000 A 
ATOM     16  C   UNL     1      13.087  18.107  31.114  0.00  0.00    +0.000 A 
BRANCH  14  17
ATOM     17  N   UNL     1      16.714  17.272  31.144  0.00  0.00    +0.000 N 
ATOM     18  O   UNL     1      17.011  17.323  32.346  0.00  0.00    +0.000 OA
ATOM     19  O   UNL     1      17.534  17.233  30.216  0.00  0.00    +0.000 OA
ENDBRANCH  14  17
ENDBRANCH   3  11
BRANCH   2  20
ATOM     20  C   UNL     1       8.301  19.574  30.711  0.00  0.00    +0.000 A 
ATOM     21  C   UNL     1       7.007  19.428  31.220  0.00  0.00    +0.000 A 
ATOM     22  C   UNL     1       6.094  20.482  31.209  0.00  0.00    +0.000 A 
ATOM     23  C   UNL     1       6.463  21.721  30.691  0.00  0.00    +0.000 A 
ATOM     24  C   UNL     1       7.749  21.894  30.189  0.00  0.00    +0.000 A 
ATOM     25  C   UNL     1       8.654  20.833  30.205  0.00  0.00    +0.000 A 
BRANCH  23  26
ATOM     26  O   UNL     1       5.643  22.819  30.634  0.00  0.00    +0.000 OA
BRANCH  26  27
ATOM     27  C   UNL     1       5.977  23.720  29.712  0.00  0.00    +0.000 C 
ATOM     28  C   UNL     1       6.367  24.768  28.663  0.00  0.00    +0.000 C 
ENDBRANCH  26  27
ENDBRANCH  23  26
ENDBRANCH   2  20
BRANCH   3  29
ATOM     29  O   UNL     1      10.989  16.916  28.394  0.00  0.00    +0.000 OA
ATOM     30  H   UNL     1      10.043  17.025  28.204  0.00  0.00    +0.000 HD
ENDBRANCH   3  29
TORSDOF 6
ENDMDL
MODEL 2
REMARK VINA RESULT:      -6.8      6.012      8.803
REMARK  Name = 5109870_Ethoxyphenyl.pdbqt.pdb
REMARK  6 active torsions:
REMARK  status: ('A' for Active; 'I' for Inactive)
REMARK    1  A    between atoms: N_2  and  C_22
REMARK    2  A    between atoms: C_3  and  O_11
REMARK    3  A    between atoms: C_3  and  C_13
REMARK    4  A    between atoms: C_16  and  N_19
REMARK    5  A    between atoms: C_25  and  O_28
REMARK    6  A    between atoms: O_28  and  C_29
REMARK                            x       y       z     vdW  Elec       q    Type
REMARK                         _______ _______ _______ _____ _____    ______ ____
ROOT
ATOM      1  N   UNL     1       7.522  23.636  29.853  0.00  0.00    +0.000 N 
ATOM      2  N   UNL     1       5.161  24.059  29.765  0.00  0.00    +0.000 N 
ATOM      3  C   UNL     1       7.331  24.427  28.613  0.00  0.00    +0.000 C 
ATOM      4  C   UNL     1       6.155  23.320  30.376  0.00  0.00    +0.000 C 
ATOM      5  C   UNL     1       5.902  24.729  28.729  0.00  0.00    +0.000 C 
ATOM      6  C   UNL     1       8.384  22.457  29.797  0.00  0.00    +0.000 C 
ATOM      7  C   UNL     1       5.901  22.086  31.044  0.00  0.00    +0.000 C 
ATOM      8  C   UNL     1       8.675  20.992  30.166  0.00  0.00    +0.000 C 
ATOM      9  C   UNL     1       6.388  20.667  31.376  0.00  0.00    +0.000 C 
ATOM     10  C   UNL     1       7.733  20.085  30.951  0.00  0.00    +0.000 C 
ENDROOT
BRANCH   3  11
ATOM     11  C   UNL     1       8.234  25.637  28.580  0.00  0.00    +0.000 A 
ATOM     12  C   UNL     1       8.871  26.043  27.399  0.00  0.00    +0.000 A 
ATOM     13  C   UNL     1       9.668  27.185  27.366  0.00  0.00    +0.000 A 
ATOM     14  C   UNL     1       9.818  27.934  28.530  0.00  0.00    +0.000 A 
ATOM     15  C   UNL     1       9.188  27.569  29.715  0.00  0.00    +0.000 A 
ATOM     16  C   UNL     1       8.395  26.425  29.730  0.00  0.00    +0.000 A 
BRANCH  14  17
ATOM     17  N   UNL     1      10.647  29.123  28.504  0.00  0.00    +0.000 N 
ATOM     18  O   UNL     1      10.128  30.193  28.853  0.00  0.00    +0.000 OA
ATOM     19  O   UNL     1      11.824  28.997  28.137  0.00  0.00    +0.000 OA
ENDBRANCH  14  17
ENDBRANCH   3  11
BRANCH   2  20
ATOM     20  C   UNL     1       3.762  23.940  29.770  0.00  0.00    +0.000 A 
ATOM     21  C   UNL     1       3.112  22.804  29.277  0.00  0.00    +0.000 A 
ATOM     22  C   UNL     1       1.723  22.686  29.308  0.00  0.00    +0.000 A 
ATOM     23  C   UNL     1       0.946  23.710  29.845  0.00  0.00    +0.000 A 
ATOM     24  C   UNL     1       1.571  24.846  30.351  0.00  0.00    +0.000 A 
ATOM     25  C   UNL     1       2.961  24.953  30.315  0.00  0.00    +0.000 A 
BRANCH  23  26
ATOM     26  O   UNL     1      -0.423  23.693  29.923  0.00  0.00    +0.000 OA
BRANCH  26  27
ATOM     27  C   UNL     1      -0.992  24.890  30.051  0.00  0.00    +0.000 C 
ATOM     28  C   UNL     1      -1.655  26.263  30.213  0.00  0.00    +0.000 C 
ENDBRANCH  26  27
ENDBRANCH  23  26
ENDBRANCH   2  20
BRANCH   3  29
ATOM     29  O   UNL     1       7.517  23.663  27.428  0.00  0.00    +0.000 OA
ATOM     30  H   UNL     1       7.158  22.784  27.635  0.00  0.00    +0.000 HD
ENDBRANCH   3  29
TORSDOF 6
ENDMDL
MODEL 3
REMARK VINA RESULT:      -6.6     20.436     22.811
REMARK  Name = 5109870_Ethoxyphenyl.pdbqt.pdb
REMARK  6 active torsions:
REMARK  status: ('A' for Active; 'I' for Inactive)
REMARK    1  A    between atoms: N_2  and  C_22
REMARK    2  A    between atoms: C_3  and  O_11
REMARK    3  A    between atoms: C_3  and  C_13
REMARK    4  A    between atoms: C_16  and  N_19
REMARK    5  A    between atoms: C_25  and  O_28
REMARK    6  A    between atoms: O_28  and  C_29
REMARK                            x       y       z     vdW  Elec       q    Type
REMARK                         _______ _______ _______ _____ _____    ______ ____
ROOT
ATOM      1  N   UNL     1      -2.125  27.569  16.035  0.00  0.00    +0.000 N 
ATOM      2  N   UNL     1      -0.613  29.109  14.987  0.00  0.00    +0.000 N 
ATOM      3  C   UNL     1      -1.799  28.551  17.096  0.00  0.00    +0.000 C 
ATOM      4  C   UNL     1      -1.238  27.883  14.870  0.00  0.00    +0.000 C 
ATOM      5  C   UNL     1      -0.989  29.493  16.322  0.00  0.00    +0.000 C 
ATOM      6  C   UNL     1      -2.113  26.147  16.377  0.00  0.00    +0.000 C 
ATOM      7  C   UNL     1      -0.746  26.842  14.029  0.00  0.00    +0.000 C 
ATOM      8  C   UNL     1      -1.749  24.691  16.038  0.00  0.00    +0.000 C 
ATOM      9  C   UNL     1      -0.528  25.334  13.825  0.00  0.00    +0.000 C 
ATOM     10  C   UNL     1      -0.989  24.248  14.793  0.00  0.00    +0.000 C 
ENDROOT
BRANCH   3  11
ATOM     11  C   UNL     1      -3.047  29.141  17.710  0.00  0.00    +0.000 A 
ATOM     12  C   UNL     1      -3.621  28.598  18.868  0.00  0.00    +0.000 A 
ATOM     13  C   UNL     1      -4.746  29.175  19.452  0.00  0.00    +0.000 A 
ATOM     14  C   UNL     1      -5.293  30.317  18.875  0.00  0.00    +0.000 A 
ATOM     15  C   UNL     1      -4.740  30.892  17.735  0.00  0.00    +0.000 A 
ATOM     16  C   UNL     1      -3.615  30.303  17.164  0.00  0.00    +0.000 A 
BRANCH  14  17
ATOM     17  N   UNL     1      -6.465  30.923  19.476  0.00  0.00    +0.000 N 
ATOM     18  O   UNL     1      -7.287  31.459  18.719  0.00  0.00    +0.000 OA
ATOM     19  O   UNL     1      -6.575  30.866  20.709  0.00  0.00    +0.000 OA
ENDBRANCH  14  17
ENDBRANCH   3  11
BRANCH   2  20
ATOM     20  C   UNL     1       0.444  29.698  14.275  0.00  0.00    +0.000 A 
ATOM     21  C   UNL     1       0.370  29.938  12.899  0.00  0.00    +0.000 A 
ATOM     22  C   UNL     1       1.417  30.545  12.206  0.00  0.00    +0.000 A 
ATOM     23  C   UNL     1       2.570  30.936  12.882  0.00  0.00    +0.000 A 
ATOM     24  C   UNL     1       2.663  30.717  14.253  0.00  0.00    +0.000 A 
ATOM     25  C   UNL     1       1.610  30.110  14.937  0.00  0.00    +0.000 A 
BRANCH  23  26
ATOM     26  O   UNL     1       3.653  31.539  12.296  0.00  0.00    +0.000 OA
BRANCH  26  27
ATOM     27  C   UNL     1       4.251  32.464  13.042  0.00  0.00    +0.000 C 
ATOM     28  C   UNL     1       4.954  33.529  13.892  0.00  0.00    +0.000 C 
ENDBRANCH  26  27
ENDBRANCH  23  26
ENDBRANCH   2  20
BRANCH   3  29
ATOM     29  O   UNL     1      -0.975  28.011  18.122  0.00  0.00    +0.000 OA
ATOM     30  H   UNL     1      -0.465  27.306  17.692  0.00  0.00    +0.000 HD
ENDBRANCH   3  29
TORSDOF 6
ENDMDL
MODEL 4
REMARK VINA RESULT:      -6.3     20.700     22.051
REMARK  Name = 5109870_Ethoxyphenyl.pdbqt.pdb
REMARK  6 active torsions:
REMARK  status: ('A' for Active; 'I' for Inactive)
REMARK    1  A    between atoms: N_2  and  C_22
REMARK    2  A    between atoms: C_3  and  O_11
REMARK    3  A    between atoms: C_3  and  C_13
REMARK    4  A    between atoms: C_16  and  N_19
REMARK    5  A    between atoms: C_25  and  O_28
REMARK    6  A    between atoms: O_28  and  C_29
REMARK                            x       y       z     vdW  Elec       q    Type
REMARK                         _______ _______ _______ _____ _____    ______ ____
ROOT
ATOM      1  N   UNL     1      -0.089  28.083  14.746  0.00  0.00    +0.000 N 
ATOM      2  N   UNL     1      -1.643  29.027  16.312  0.00  0.00    +0.000 N 
ATOM      3  C   UNL     1      -0.486  29.378  14.143  0.00  0.00    +0.000 C 
ATOM      4  C   UNL     1      -0.960  27.883  15.948  0.00  0.00    +0.000 C 
ATOM      5  C   UNL     1      -1.319  29.910  15.223  0.00  0.00    +0.000 C 
ATOM      6  C   UNL     1      -0.046  26.902  13.886  0.00  0.00    +0.000 C 
ATOM      7  C   UNL     1      -1.383  26.576  16.329  0.00  0.00    +0.000 C 
ATOM      8  C   UNL     1      -0.334  25.410  13.645  0.00  0.00    +0.000 C 
ATOM      9  C   UNL     1      -1.527  25.095  15.943  0.00  0.00    +0.000 C 
ATOM     10  C   UNL     1      -1.042  24.486  14.630  0.00  0.00    +0.000 C 
ENDROOT
BRANCH   3  11
ATOM     11  C   UNL     1       0.717  30.222  13.794  0.00  0.00    +0.000 A 
ATOM     12  C   UNL     1       1.741  30.455  14.723  0.00  0.00    +0.000 A 
ATOM     13  C   UNL     1       2.868  31.198  14.380  0.00  0.00    +0.000 A 
ATOM     14  C   UNL     1       2.975  31.702  13.087  0.00  0.00    +0.000 A 
ATOM     15  C   UNL     1       1.985  31.477  12.136  0.00  0.00    +0.000 A 
ATOM     16  C   UNL     1       0.865  30.732  12.495  0.00  0.00    +0.000 A 
BRANCH  14  17
ATOM     17  N   UNL     1       4.144  32.478  12.723  0.00  0.00    +0.000 N 
ATOM     18  O   UNL     1       5.170  32.323  13.401  0.00  0.00    +0.000 OA
ATOM     19  O   UNL     1       4.047  33.247  11.757  0.00  0.00    +0.000 OA
ENDBRANCH  14  17
ENDBRANCH   3  11
BRANCH   2  20
ATOM     20  C   UNL     1      -2.708  29.244  17.201  0.00  0.00    +0.000 A 
ATOM     21  C   UNL     1      -2.901  28.450  18.336  0.00  0.00    +0.000 A 
ATOM     22  C   UNL     1      -3.949  28.689  19.225  0.00  0.00    +0.000 A 
ATOM     23  C   UNL     1      -4.830  29.743  19.001  0.00  0.00    +0.000 A 
ATOM     24  C   UNL     1      -4.652  30.554  17.884  0.00  0.00    +0.000 A 
ATOM     25  C   UNL     1      -3.601  30.307  17.001  0.00  0.00    +0.000 A 
BRANCH  23  26
ATOM     26  O   UNL     1      -5.889  30.063  19.811  0.00  0.00    +0.000 OA
BRANCH  26  27
ATOM     27  C   UNL     1      -5.813  29.579  21.049  0.00  0.00    +0.000 C 
ATOM     28  C   UNL     1      -5.719  29.007  22.469  0.00  0.00    +0.000 C 
ENDBRANCH  26  27
ENDBRANCH  23  26
ENDBRANCH   2  20
BRANCH   3  29
ATOM     29  O   UNL     1      -1.310  29.229  12.993  0.00  0.00    +0.000 OA
ATOM     30  H   UNL     1      -2.203  29.070  13.341  0.00  0.00    +0.000 HD
ENDBRANCH   3  29
TORSDOF 6
ENDMDL
MODEL 5
REMARK VINA RESULT:      -6.3     12.978     14.913
REMARK  Name = 5109870_Ethoxyphenyl.pdbqt.pdb
REMARK  6 active torsions:
REMARK  status: ('A' for Active; 'I' for Inactive)
REMARK    1  A    between atoms: N_2  and  C_22
REMARK    2  A    between atoms: C_3  and  O_11
REMARK    3  A    between atoms: C_3  and  C_13
REMARK    4  A    between atoms: C_16  and  N_19
REMARK    5  A    between atoms: C_25  and  O_28
REMARK    6  A    between atoms: O_28  and  C_29
REMARK                            x       y       z     vdW  Elec       q    Type
REMARK                         _______ _______ _______ _____ _____    ______ ____
ROOT
ATOM      1  N   UNL     1      23.437  13.222  27.967  0.00  0.00    +0.000 N 
ATOM      2  N   UNL     1      23.204  15.267  26.733  0.00  0.00    +0.000 N 
ATOM      3  C   UNL     1      22.663  12.843  26.761  0.00  0.00    +0.000 C 
ATOM      4  C   UNL     1      23.562  14.714  27.947  0.00  0.00    +0.000 C 
ATOM      5  C   UNL     1      22.692  14.115  26.038  0.00  0.00    +0.000 C 
ATOM      6  C   UNL     1      22.991  12.717  29.265  0.00  0.00    +0.000 C 
ATOM      7  C   UNL     1      23.570  15.458  29.163  0.00  0.00    +0.000 C 
ATOM      8  C   UNL     1      22.711  12.934  30.762  0.00  0.00    +0.000 C 
ATOM      9  C   UNL     1      23.306  15.472  30.677  0.00  0.00    +0.000 C 
ATOM     10  C   UNL     1      22.867  14.261  31.497  0.00  0.00    +0.000 C 
ENDROOT
BRANCH   3  11
ATOM     11  C   UNL     1      23.301  11.683  26.032  0.00  0.00    +0.000 A 
ATOM     12  C   UNL     1      23.960  11.862  24.808  0.00  0.00    +0.000 A 
ATOM     13  C   UNL     1      24.583  10.796  24.163  0.00  0.00    +0.000 A 
ATOM     14  C   UNL     1      24.555   9.539  24.760  0.00  0.00    +0.000 A 
ATOM     15  C   UNL     1      23.923   9.330  25.982  0.00  0.00    +0.000 A 
ATOM     16  C   UNL     1      23.306  10.406  26.613  0.00  0.00    +0.000 A 
BRANCH  14  17
ATOM     17  N   UNL     1      25.200   8.424  24.095  0.00  0.00    +0.000 N 
ATOM     18  O   UNL     1      25.832   8.664  23.056  0.00  0.00    +0.000 OA
ATOM     19  O   UNL     1      25.080   7.302  24.605  0.00  0.00    +0.000 OA
ENDBRANCH  14  17
ENDBRANCH   3  11
BRANCH   2  20
ATOM     20  C   UNL     1      22.953  16.590  26.340  0.00  0.00    +0.000 A 
ATOM     21  C   UNL     1      23.661  17.202  25.300  0.00  0.00    +0.000 A 
ATOM     22  C   UNL     1      23.387  18.511  24.901  0.00  0.00    +0.000 A 
ATOM     23  C   UNL     1      22.384  19.240  25.534  0.00  0.00    +0.000 A 
ATOM     24  C   UNL     1      21.659  18.648  26.564  0.00  0.00    +0.000 A 
ATOM     25  C   UNL     1      21.940  17.339  26.955  0.00  0.00    +0.000 A 
BRANCH  23  26
ATOM     26  O   UNL     1      22.037  20.528  25.219  0.00  0.00    +0.000 OA
BRANCH  26  27
ATOM     27  C   UNL     1      23.026  21.414  25.316  0.00  0.00    +0.000 C 
ATOM     28  C   UNL     1      24.156  22.443  25.440  0.00  0.00    +0.000 C 
ENDBRANCH  26  27
ENDBRANCH  23  26
ENDBRANCH   2  20
BRANCH   3  29
ATOM     29  O   UNL     1      21.304  12.535  27.044  0.00  0.00    +0.000 OA
ATOM     30  H   UNL     1      21.335  11.906  27.783  0.00  0.00    +0.000 HD
ENDBRANCH   3  29
TORSDOF 6
ENDMDL
MODEL 6
REMARK VINA RESULT:      -6.0     13.666     17.869
REMARK  Name = 5109870_Ethoxyphenyl.pdbqt.pdb
REMARK  6 active torsions:
REMARK  status: ('A' for Active; 'I' for Inactive)
REMARK    1  A    between atoms: N_2  and  C_22
REMARK    2  A    between atoms: C_3  and  O_11
REMARK    3  A    between atoms: C_3  and  C_13
REMARK    4  A    between atoms: C_16  and  N_19
REMARK    5  A    between atoms: C_25  and  O_28
REMARK    6  A    between atoms: O_28  and  C_29
REMARK                            x       y       z     vdW  Elec       q    Type
REMARK                         _______ _______ _______ _____ _____    ______ ____
ROOT
ATOM      1  N   UNL     1      25.829  10.189  24.775  0.00  0.00    +0.000 N 
ATOM      2  N   UNL     1      24.984  12.409  25.118  0.00  0.00    +0.000 N 
ATOM      3  C   UNL     1      25.385  10.630  23.431  0.00  0.00    +0.000 C 
ATOM      4  C   UNL     1      25.390  11.245  25.742  0.00  0.00    +0.000 C 
ATOM      5  C   UNL     1      25.016  12.014  23.734  0.00  0.00    +0.000 C 
ATOM      6  C   UNL     1      25.466   8.843  25.218  0.00  0.00    +0.000 C 
ATOM      7  C   UNL     1      24.989  10.898  27.065  0.00  0.00    +0.000 C 
ATOM      8  C   UNL     1      24.967   7.882  26.310  0.00  0.00    +0.000 C 
ATOM      9  C   UNL     1      24.578   9.789  28.047  0.00  0.00    +0.000 C 
ATOM     10  C   UNL     1      24.537   8.300  27.713  0.00  0.00    +0.000 C 
ENDROOT
BRANCH   3  11
ATOM     11  C   UNL     1      26.483  10.477  22.405  0.00  0.00    +0.000 A 
ATOM     12  C   UNL     1      26.902  11.555  21.614  0.00  0.00    +0.000 A 
ATOM     13  C   UNL     1      27.944  11.417  20.701  0.00  0.00    +0.000 A 
ATOM     14  C   UNL     1      28.583  10.185  20.590  0.00  0.00    +0.000 A 
ATOM     15  C   UNL     1      28.204   9.098  21.371  0.00  0.00    +0.000 A 
ATOM     16  C   UNL     1      27.160   9.254  22.279  0.00  0.00    +0.000 A 
BRANCH  14  17
ATOM     17  N   UNL     1      29.667  10.032  19.640  0.00  0.00    +0.000 N 
ATOM     18  O   UNL     1      29.736  10.848  18.711  0.00  0.00    +0.000 OA
ATOM     19  O   UNL     1      30.460   9.096  19.817  0.00  0.00    +0.000 OA
ENDBRANCH  14  17
ENDBRANCH   3  11
BRANCH   2  20
ATOM     20  C   UNL     1      24.301  13.541  25.590  0.00  0.00    +0.000 A 
ATOM     21  C   UNL     1      23.107  13.440  26.311  0.00  0.00    +0.000 A 
ATOM     22  C   UNL     1      22.449  14.570  26.795  0.00  0.00    +0.000 A 
ATOM     23  C   UNL     1      22.981  15.838  26.574  0.00  0.00    +0.000 A 
ATOM     24  C   UNL     1      24.173  15.963  25.869  0.00  0.00    +0.000 A 
ATOM     25  C   UNL     1      24.824  14.826  25.389  0.00  0.00    +0.000 A 
BRANCH  23  26
ATOM     26  O   UNL     1      22.414  17.009  27.007  0.00  0.00    +0.000 OA
BRANCH  26  27
ATOM     27  C   UNL     1      22.119  17.879  26.044  0.00  0.00    +0.000 C 
ATOM     28  C   UNL     1      21.768  18.869  24.926  0.00  0.00    +0.000 C 
ENDBRANCH  26  27
ENDBRANCH  23  26
ENDBRANCH   2  20
BRANCH   3  29
ATOM     29  O   UNL     1      24.217   9.958  22.980  0.00  0.00    +0.000 OA
ATOM     30  H   UNL     1      24.203   9.118  23.468  0.00  0.00    +0.000 HD
ENDBRANCH   3  29
TORSDOF 6
ENDMDL
MODEL 7
REMARK VINA RESULT:      -6.0     14.921     16.988
REMARK  Name = 5109870_Ethoxyphenyl.pdbqt.pdb
REMARK  6 active torsions:
REMARK  status: ('A' for Active; 'I' for Inactive)
REMARK    1  A    between atoms: N_2  and  C_22
REMARK    2  A    between atoms: C_3  and  O_11
REMARK    3  A    between atoms: C_3  and  C_13
REMARK    4  A    between atoms: C_16  and  N_19
REMARK    5  A    between atoms: C_25  and  O_28
REMARK    6  A    between atoms: O_28  and  C_29
REMARK                            x       y       z     vdW  Elec       q    Type
REMARK                         _______ _______ _______ _____ _____    ______ ____
ROOT
ATOM      1  N   UNL     1      12.285  33.024  25.532  0.00  0.00    +0.000 N 
ATOM      2  N   UNL     1      10.157  34.101  25.796  0.00  0.00    +0.000 N 
ATOM      3  C   UNL     1      11.472  32.524  24.398  0.00  0.00    +0.000 C 
ATOM      4  C   UNL     1      11.364  33.819  26.405  0.00  0.00    +0.000 C 
ATOM      5  C   UNL     1      10.263  33.330  24.585  0.00  0.00    +0.000 C 
ATOM      6  C   UNL     1      13.081  32.061  26.292  0.00  0.00    +0.000 C 
ATOM      7  C   UNL     1      11.538  33.835  27.820  0.00  0.00    +0.000 C 
ATOM      8  C   UNL     1      13.599  31.515  27.633  0.00  0.00    +0.000 C 
ATOM      9  C   UNL     1      12.208  33.205  29.051  0.00  0.00    +0.000 C 
ATOM     10  C   UNL     1      13.211  32.055  29.006  0.00  0.00    +0.000 C 
ENDROOT
BRANCH   3  11
ATOM     11  C   UNL     1      12.173  32.731  23.076  0.00  0.00    +0.000 A 
ATOM     12  C   UNL     1      11.937  33.869  22.292  0.00  0.00    +0.000 A 
ATOM     13  C   UNL     1      12.620  34.073  21.096  0.00  0.00    +0.000 A 
ATOM     14  C   UNL     1      13.560  33.131  20.688  0.00  0.00    +0.000 A 
ATOM     15  C   UNL     1      13.831  31.998  21.449  0.00  0.00    +0.000 A 
ATOM     16  C   UNL     1      13.139  31.810  22.642  0.00  0.00    +0.000 A 
BRANCH  14  17
ATOM     17  N   UNL     1      14.274  33.336  19.443  0.00  0.00    +0.000 N 
ATOM     18  O   UNL     1      15.446  33.734  19.512  0.00  0.00    +0.000 OA
ATOM     19  O   UNL     1      13.670  33.099  18.387  0.00  0.00    +0.000 OA
ENDBRANCH  14  17
ENDBRANCH   3  11
BRANCH   2  20
ATOM     20  C   UNL     1       8.946  34.603  26.296  0.00  0.00    +0.000 A 
ATOM     21  C   UNL     1       8.011  33.784  26.937  0.00  0.00    +0.000 A 
ATOM     22  C   UNL     1       6.820  34.297  27.451  0.00  0.00    +0.000 A 
ATOM     23  C   UNL     1       6.539  35.656  27.341  0.00  0.00    +0.000 A 
ATOM     24  C   UNL     1       7.459  36.494  26.718  0.00  0.00    +0.000 A 
ATOM     25  C   UNL     1       8.647  35.970  26.207  0.00  0.00    +0.000 A 
BRANCH  23  26
ATOM     26  O   UNL     1       5.402  36.260  27.812  0.00  0.00    +0.000 OA
BRANCH  26  27
ATOM     27  C   UNL     1       4.456  36.463  26.898  0.00  0.00    +0.000 C 
ATOM     28  C   UNL     1       3.355  36.697  25.857  0.00  0.00    +0.000 C 
ENDBRANCH  26  27
ENDBRANCH  23  26
ENDBRANCH   2  20
BRANCH   3  29
ATOM     29  O   UNL     1      11.106  31.156  24.532  0.00  0.00    +0.000 OA
ATOM     30  H   UNL     1      10.134  31.154  24.545  0.00  0.00    +0.000 HD
ENDBRANCH   3  29
TORSDOF 6
ENDMDL
MODEL 8
REMARK VINA RESULT:      -5.9      8.649     13.384
REMARK  Name = 5109870_Ethoxyphenyl.pdbqt.pdb
REMARK  6 active torsions:
REMARK  status: ('A' for Active; 'I' for Inactive)
REMARK    1  A    between atoms: N_2  and  C_22
REMARK    2  A    between atoms: C_3  and  O_11
REMARK    3  A    between atoms: C_3  and  C_13
REMARK    4  A    between atoms: C_16  and  N_19
REMARK    5  A    between atoms: C_25  and  O_28
REMARK    6  A    between atoms: O_28  and  C_29
REMARK                            x       y       z     vdW  Elec       q    Type
REMARK                         _______ _______ _______ _____ _____    ______ ____
ROOT
ATOM      1  N   UNL     1      21.619  17.472  28.117  0.00  0.00    +0.000 N 
ATOM      2  N   UNL     1      22.284  19.533  27.083  0.00  0.00    +0.000 N 
ATOM      3  C   UNL     1      21.647  18.454  29.228  0.00  0.00    +0.000 C 
ATOM      4  C   UNL     1      22.181  18.166  26.915  0.00  0.00    +0.000 C 
ATOM      5  C   UNL     1      21.934  19.675  28.472  0.00  0.00    +0.000 C 
ATOM      6  C   UNL     1      22.225  16.160  28.337  0.00  0.00    +0.000 C 
ATOM      7  C   UNL     1      22.948  17.446  25.953  0.00  0.00    +0.000 C 
ATOM      8  C   UNL     1      23.091  14.986  27.849  0.00  0.00    +0.000 C 
ATOM      9  C   UNL     1      23.716  16.160  25.606  0.00  0.00    +0.000 C 
ATOM     10  C   UNL     1      23.825  14.938  26.513  0.00  0.00    +0.000 C 
ENDROOT
BRANCH   3  11
ATOM     11  C   UNL     1      20.342  18.471  29.988  0.00  0.00    +0.000 A 
ATOM     12  C   UNL     1      19.765  19.671  30.427  0.00  0.00    +0.000 A 
ATOM     13  C   UNL     1      18.540  19.682  31.089  0.00  0.00    +0.000 A 
ATOM     14  C   UNL     1      17.880  18.475  31.303  0.00  0.00    +0.000 A 
ATOM     15  C   UNL     1      18.416  17.267  30.867  0.00  0.00    +0.000 A 
ATOM     16  C   UNL     1      19.641  17.275  30.207  0.00  0.00    +0.000 A 
BRANCH  14  17
ATOM     17  N   UNL     1      16.605  18.478  31.993  0.00  0.00    +0.000 N 
ATOM     18  O   UNL     1      16.027  17.391  32.135  0.00  0.00    +0.000 OA
ATOM     19  O   UNL     1      16.173  19.566  32.400  0.00  0.00    +0.000 OA
ENDBRANCH  14  17
ENDBRANCH   3  11
BRANCH   2  20
ATOM     20  C   UNL     1      22.943  20.526  26.340  0.00  0.00    +0.000 A 
ATOM     21  C   UNL     1      22.729  20.689  24.968  0.00  0.00    +0.000 A 
ATOM     22  C   UNL     1      23.370  21.694  24.243  0.00  0.00    +0.000 A 
ATOM     23  C   UNL     1      24.243  22.570  24.884  0.00  0.00    +0.000 A 
ATOM     24  C   UNL     1      24.463  22.434  26.251  0.00  0.00    +0.000 A 
ATOM     25  C   UNL     1      23.816  21.426  26.966  0.00  0.00    +0.000 A 
BRANCH  23  26
ATOM     26  O   UNL     1      24.921  23.588  24.265  0.00  0.00    +0.000 OA
BRANCH  26  27
ATOM     27  C   UNL     1      24.403  24.800  24.450  0.00  0.00    +0.000 C 
ATOM     28  C   UNL     1      23.803  26.193  24.679  0.00  0.00    +0.000 C 
ENDBRANCH  26  27
ENDBRANCH  23  26
ENDBRANCH   2  20
BRANCH   3  29
ATOM     29  O   UNL     1      22.722  18.242  30.135  0.00  0.00    +0.000 OA
ATOM     30  H   UNL     1      23.486  18.684  29.729  0.00  0.00    +0.000 HD
ENDBRANCH   3  29
TORSDOF 6
ENDMDL
MODEL 9
REMARK VINA RESULT:      -5.9     16.724     20.223
REMARK  Name = 5109870_Ethoxyphenyl.pdbqt.pdb
REMARK  6 active torsions:
REMARK  status: ('A' for Active; 'I' for Inactive)
REMARK    1  A    between atoms: N_2  and  C_22
REMARK    2  A    between atoms: C_3  and  O_11
REMARK    3  A    between atoms: C_3  and  C_13
REMARK    4  A    between atoms: C_16  and  N_19
REMARK    5  A    between atoms: C_25  and  O_28
REMARK    6  A    between atoms: O_28  and  C_29
REMARK                            x       y       z     vdW  Elec       q    Type
REMARK                         _______ _______ _______ _____ _____    ______ ____
ROOT
ATOM      1  N   UNL     1      25.784  12.090  24.602  0.00  0.00    +0.000 N 
ATOM      2  N   UNL     1      26.907  11.552  22.550  0.00  0.00    +0.000 N 
ATOM      3  C   UNL     1      24.902  11.096  23.944  0.00  0.00    +0.000 C 
ATOM      4  C   UNL     1      26.861  12.427  23.618  0.00  0.00    +0.000 C 
ATOM      5  C   UNL     1      25.735  10.753  22.788  0.00  0.00    +0.000 C 
ATOM      6  C   UNL     1      25.170  13.281  25.186  0.00  0.00    +0.000 C 
ATOM      7  C   UNL     1      27.409  13.743  23.564  0.00  0.00    +0.000 C 
ATOM      8  C   UNL     1      25.165  14.799  25.438  0.00  0.00    +0.000 C 
ATOM      9  C   UNL     1      27.283  15.218  23.975  0.00  0.00    +0.000 C 
ATOM     10  C   UNL     1      26.189  15.781  24.878  0.00  0.00    +0.000 C 
ENDROOT
BRANCH   3  11
ATOM     11  C   UNL     1      24.585   9.939  24.862  0.00  0.00    +0.000 A 
ATOM     12  C   UNL     1      23.742  10.095  25.972  0.00  0.00    +0.000 A 
ATOM     13  C   UNL     1      23.420   9.015  26.789  0.00  0.00    +0.000 A 
ATOM     14  C   UNL     1      23.939   7.760  26.482  0.00  0.00    +0.000 A 
ATOM     15  C   UNL     1      24.766   7.566  25.380  0.00  0.00    +0.000 A 
ATOM     16  C   UNL     1      25.078   8.657  24.573  0.00  0.00    +0.000 A 
BRANCH  14  17
ATOM     17  N   UNL     1      23.610   6.631  27.329  0.00  0.00    +0.000 N 
ATOM     18  O   UNL     1      24.546   6.034  27.879  0.00  0.00    +0.000 OA
ATOM     19  O   UNL     1      22.413   6.332  27.451  0.00  0.00    +0.000 OA
ENDBRANCH  14  17
ENDBRANCH   3  11
BRANCH   2  20
ATOM     20  C   UNL     1      27.576  11.607  21.318  0.00  0.00    +0.000 A 
ATOM     21  C   UNL     1      28.054  12.808  20.785  0.00  0.00    +0.000 A 
ATOM     22  C   UNL     1      28.738  12.848  19.570  0.00  0.00    +0.000 A 
ATOM     23  C   UNL     1      28.969  11.673  18.858  0.00  0.00    +0.000 A 
ATOM     24  C   UNL     1      28.513  10.464  19.374  0.00  0.00    +0.000 A 
ATOM     25  C   UNL     1      27.830  10.436  20.590  0.00  0.00    +0.000 A 
BRANCH  23  26
ATOM     26  O   UNL     1      29.629  11.604  17.659  0.00  0.00    +0.000 OA
BRANCH  26  27
ATOM     27  C   UNL     1      28.953  12.083  16.618  0.00  0.00    +0.000 C 
ATOM     28  C   UNL     1      28.160  12.638  15.428  0.00  0.00    +0.000 C 
ENDBRANCH  26  27
ENDBRANCH  23  26
ENDBRANCH   2  20
BRANCH   3  29
ATOM     29  O   UNL     1      23.692  11.659  23.454  0.00  0.00    +0.000 OA
ATOM     30  H   UNL     1      23.878  11.898  22.531  0.00  0.00    +0.000 HD
ENDBRANCH   3  29
TORSDOF 6
ENDMDL
