MODEL 1
REMARK VINA RESULT:      -6.7      0.000      0.000
REMARK  Name = 5280445_Luteolin.pdbqt.pdb
REMARK  5 active torsions:
REMARK  status: ('A' for Active; 'I' for Inactive)
REMARK    1  A    between atoms: C_5  and  C_12
REMARK    2  A    between atoms: C_8  and  O_22
REMARK    3  A    between atoms: C_10  and  O_24
REMARK    4  A    between atoms: C_15  and  O_18
REMARK    5  A    between atoms: C_17  and  O_20
REMARK                            x       y       z     vdW  Elec       q    Type
REMARK                         _______ _______ _______ _____ _____    ______ ____
ROOT
ATOM      1  O   UNL     1       8.265  23.644  29.027  0.00  0.00    +0.000 OA
ATOM      2  O   UNL     1       4.264  24.309  29.709  0.00  0.00    +0.000 OA
ATOM      3  C   UNL     1       6.127  22.823  30.001  0.00  0.00    +0.000 A 
ATOM      4  C   UNL     1       7.508  22.690  29.714  0.00  0.00    +0.000 A 
ATOM      5  C   UNL     1       7.638  24.814  28.583  0.00  0.00    +0.000 A 
ATOM      6  C   UNL     1       5.441  24.046  29.543  0.00  0.00    +0.000 A 
ATOM      7  C   UNL     1       6.382  24.871  28.876  0.00  0.00    +0.000 A 
ATOM      8  C   UNL     1       5.445  21.823  30.694  0.00  0.00    +0.000 A 
ATOM      9  C   UNL     1       8.189  21.551  30.130  0.00  0.00    +0.000 A 
ATOM     10  C   UNL     1       7.494  20.560  30.821  0.00  0.00    +0.000 A 
ATOM     11  C   UNL     1       6.133  20.686  31.105  0.00  0.00    +0.000 A 
ENDROOT
BRANCH   5  12
ATOM     12  C   UNL     1       8.430  25.806  27.867  0.00  0.00    +0.000 A 
ATOM     13  C   UNL     1       8.478  25.799  26.470  0.00  0.00    +0.000 A 
ATOM     14  C   UNL     1       9.154  26.782  28.564  0.00  0.00    +0.000 A 
ATOM     15  C   UNL     1       9.236  26.748  25.798  0.00  0.00    +0.000 A 
ATOM     16  C   UNL     1       9.916  27.736  27.890  0.00  0.00    +0.000 A 
ATOM     17  C   UNL     1       9.950  27.711  26.502  0.00  0.00    +0.000 A 
BRANCH  15  18
ATOM     18  O   UNL     1       9.274  26.730  24.433  0.00  0.00    +0.000 OA
ATOM     19  H   UNL     1       8.358  26.926  24.150  0.00  0.00    +0.000 HD
ENDBRANCH  15  18
BRANCH  17  20
ATOM     20  O   UNL     1      10.682  28.625  25.793  0.00  0.00    +0.000 OA
ATOM     21  H   UNL     1      10.160  28.878  25.010  0.00  0.00    +0.000 HD
ENDBRANCH  17  20
ENDBRANCH   5  12
BRANCH   8  22
ATOM     22  O   UNL     1       4.114  21.893  30.998  0.00  0.00    +0.000 OA
ATOM     23  H   UNL     1       4.004  21.991  31.969  0.00  0.00    +0.000 HD
ENDBRANCH   8  22
BRANCH  10  24
ATOM     24  O   UNL     1       8.182  19.450  31.219  0.00  0.00    +0.000 OA
ATOM     25  H   UNL     1       7.719  19.062  31.983  0.00  0.00    +0.000 HD
ENDBRANCH  10  24
TORSDOF 5
ENDMDL
MODEL 2
REMARK VINA RESULT:      -6.3     15.451     16.764
REMARK  Name = 5280445_Luteolin.pdbqt.pdb
REMARK  5 active torsions:
REMARK  status: ('A' for Active; 'I' for Inactive)
REMARK    1  A    between atoms: C_5  and  C_12
REMARK    2  A    between atoms: C_8  and  O_22
REMARK    3  A    between atoms: C_10  and  O_24
REMARK    4  A    between atoms: C_15  and  O_18
REMARK    5  A    between atoms: C_17  and  O_20
REMARK                            x       y       z     vdW  Elec       q    Type
REMARK                         _______ _______ _______ _____ _____    ______ ____
ROOT
ATOM      1  O   UNL     1       0.497  27.897  13.656  0.00  0.00    +0.000 OA
ATOM      2  O   UNL     1      -0.657  28.874  17.481  0.00  0.00    +0.000 OA
ATOM      3  C   UNL     1      -0.703  27.229  15.733  0.00  0.00    +0.000 A 
ATOM      4  C   UNL     1      -0.257  26.991  14.409  0.00  0.00    +0.000 A 
ATOM      5  C   UNL     1       0.844  29.127  14.227  0.00  0.00    +0.000 A 
ATOM      6  C   UNL     1      -0.351  28.519  16.358  0.00  0.00    +0.000 A 
ATOM      7  C   UNL     1       0.407  29.280  15.432  0.00  0.00    +0.000 A 
ATOM      8  C   UNL     1      -1.450  26.270  16.414  0.00  0.00    +0.000 A 
ATOM      9  C   UNL     1      -0.568  25.788  13.786  0.00  0.00    +0.000 A 
ATOM     10  C   UNL     1      -1.317  24.839  14.480  0.00  0.00    +0.000 A 
ATOM     11  C   UNL     1      -1.759  25.069  15.784  0.00  0.00    +0.000 A 
ENDROOT
BRANCH   5  12
ATOM     12  C   UNL     1       1.629  30.069  13.440  0.00  0.00    +0.000 A 
ATOM     13  C   UNL     1       2.615  30.850  14.050  0.00  0.00    +0.000 A 
ATOM     14  C   UNL     1       1.412  30.207  12.063  0.00  0.00    +0.000 A 
ATOM     15  C   UNL     1       3.357  31.746  13.290  0.00  0.00    +0.000 A 
ATOM     16  C   UNL     1       2.157  31.106  11.300  0.00  0.00    +0.000 A 
ATOM     17  C   UNL     1       3.132  31.873  11.925  0.00  0.00    +0.000 A 
BRANCH  15  18
ATOM     18  O   UNL     1       4.317  32.503  13.898  0.00  0.00    +0.000 OA
ATOM     19  H   UNL     1       4.257  33.382  13.473  0.00  0.00    +0.000 HD
ENDBRANCH  15  18
BRANCH  17  20
ATOM     20  O   UNL     1       3.890  32.768  11.221  0.00  0.00    +0.000 OA
ATOM     21  H   UNL     1       3.988  33.568  11.770  0.00  0.00    +0.000 HD
ENDBRANCH  17  20
ENDBRANCH   5  12
BRANCH   8  22
ATOM     22  O   UNL     1      -1.909  26.443  17.691  0.00  0.00    +0.000 OA
ATOM     23  H   UNL     1      -2.682  25.857  17.845  0.00  0.00    +0.000 HD
ENDBRANCH   8  22
BRANCH  10  24
ATOM     24  O   UNL     1      -1.612  23.664  13.849  0.00  0.00    +0.000 OA
ATOM     25  H   UNL     1      -2.498  23.379  14.135  0.00  0.00    +0.000 HD
ENDBRANCH  10  24
TORSDOF 5
ENDMDL
MODEL 3
REMARK VINA RESULT:      -6.2      5.312      8.359
REMARK  Name = 5280445_Luteolin.pdbqt.pdb
REMARK  5 active torsions:
REMARK  status: ('A' for Active; 'I' for Inactive)
REMARK    1  A    between atoms: C_5  and  C_12
REMARK    2  A    between atoms: C_8  and  O_22
REMARK    3  A    between atoms: C_10  and  O_24
REMARK    4  A    between atoms: C_15  and  O_18
REMARK    5  A    between atoms: C_17  and  O_20
REMARK                            x       y       z     vdW  Elec       q    Type
REMARK                         _______ _______ _______ _____ _____    ______ ____
ROOT
ATOM      1  O   UNL     1      11.973  19.052  30.814  0.00  0.00    +0.000 OA
ATOM      2  O   UNL     1      11.006  16.172  28.040  0.00  0.00    +0.000 OA
ATOM      3  C   UNL     1      12.680  17.042  29.526  0.00  0.00    +0.000 A 
ATOM      4  C   UNL     1      12.912  18.076  30.467  0.00  0.00    +0.000 A 
ATOM      5  C   UNL     1      10.713  19.026  30.203  0.00  0.00    +0.000 A 
ATOM      6  C   UNL     1      11.361  16.992  28.867  0.00  0.00    +0.000 A 
ATOM      7  C   UNL     1      10.567  18.061  29.357  0.00  0.00    +0.000 A 
ATOM      8  C   UNL     1      13.672  16.107  29.238  0.00  0.00    +0.000 A 
ATOM      9  C   UNL     1      14.143  18.156  31.109  0.00  0.00    +0.000 A 
ATOM     10  C   UNL     1      15.126  17.214  30.810  0.00  0.00    +0.000 A 
ATOM     11  C   UNL     1      14.902  16.194  29.883  0.00  0.00    +0.000 A 
ENDROOT
BRANCH   5  12
ATOM     12  C   UNL     1       9.736  20.044  30.566  0.00  0.00    +0.000 A 
ATOM     13  C   UNL     1      10.155  21.269  31.094  0.00  0.00    +0.000 A 
ATOM     14  C   UNL     1       8.365  19.814  30.393  0.00  0.00    +0.000 A 
ATOM     15  C   UNL     1       9.215  22.232  31.438  0.00  0.00    +0.000 A 
ATOM     16  C   UNL     1       7.421  20.781  30.739  0.00  0.00    +0.000 A 
ATOM     17  C   UNL     1       7.857  21.992  31.262  0.00  0.00    +0.000 A 
BRANCH  15  18
ATOM     18  O   UNL     1       9.637  23.425  31.953  0.00  0.00    +0.000 OA
ATOM     19  H   UNL     1      10.593  23.467  31.748  0.00  0.00    +0.000 HD
ENDBRANCH  15  18
BRANCH  17  20
ATOM     20  O   UNL     1       6.972  22.973  31.616  0.00  0.00    +0.000 OA
ATOM     21  H   UNL     1       6.290  23.020  30.922  0.00  0.00    +0.000 HD
ENDBRANCH  17  20
ENDBRANCH   5  12
BRANCH   8  22
ATOM     22  O   UNL     1      13.508  15.089  28.340  0.00  0.00    +0.000 OA
ATOM     23  H   UNL     1      14.123  15.214  27.584  0.00  0.00    +0.000 HD
ENDBRANCH   8  22
BRANCH  10  24
ATOM     24  O   UNL     1      16.327  17.311  31.451  0.00  0.00    +0.000 OA
ATOM     25  H   UNL     1      16.941  16.672  31.047  0.00  0.00    +0.000 HD
ENDBRANCH  10  24
TORSDOF 5
ENDMDL
MODEL 4
REMARK VINA RESULT:      -6.2      1.236      2.746
REMARK  Name = 5280445_Luteolin.pdbqt.pdb
REMARK  5 active torsions:
REMARK  status: ('A' for Active; 'I' for Inactive)
REMARK    1  A    between atoms: C_5  and  C_12
REMARK    2  A    between atoms: C_8  and  O_22
REMARK    3  A    between atoms: C_10  and  O_24
REMARK    4  A    between atoms: C_15  and  O_18
REMARK    5  A    between atoms: C_17  and  O_20
REMARK                            x       y       z     vdW  Elec       q    Type
REMARK                         _______ _______ _______ _____ _____    ______ ____
ROOT
ATOM      1  O   UNL     1       6.386  24.924  28.908  0.00  0.00    +0.000 OA
ATOM      2  O   UNL     1       8.263  21.616  30.475  0.00  0.00    +0.000 OA
ATOM      3  C   UNL     1       6.183  22.769  30.136  0.00  0.00    +0.000 A 
ATOM      4  C   UNL     1       5.636  23.943  29.563  0.00  0.00    +0.000 A 
ATOM      5  C   UNL     1       7.772  24.756  28.800  0.00  0.00    +0.000 A 
ATOM      6  C   UNL     1       7.642  22.567  30.036  0.00  0.00    +0.000 A 
ATOM      7  C   UNL     1       8.205  23.668  29.342  0.00  0.00    +0.000 A 
ATOM      8  C   UNL     1       5.363  21.838  30.772  0.00  0.00    +0.000 A 
ATOM      9  C   UNL     1       4.265  24.168  29.637  0.00  0.00    +0.000 A 
ATOM     10  C   UNL     1       3.458  23.229  30.276  0.00  0.00    +0.000 A 
ATOM     11  C   UNL     1       3.992  22.071  30.842  0.00  0.00    +0.000 A 
ENDROOT
BRANCH   5  12
ATOM     12  C   UNL     1       8.551  25.781  28.117  0.00  0.00    +0.000 A 
ATOM     13  C   UNL     1       8.561  25.847  26.721  0.00  0.00    +0.000 A 
ATOM     14  C   UNL     1       9.301  26.714  28.845  0.00  0.00    +0.000 A 
ATOM     15  C   UNL     1       9.308  26.827  26.079  0.00  0.00    +0.000 A 
ATOM     16  C   UNL     1      10.051  27.699  28.201  0.00  0.00    +0.000 A 
ATOM     17  C   UNL     1      10.047  27.748  26.813  0.00  0.00    +0.000 A 
BRANCH  15  18
ATOM     18  O   UNL     1       9.308  26.881  24.714  0.00  0.00    +0.000 OA
ATOM     19  H   UNL     1       8.573  27.484  24.483  0.00  0.00    +0.000 HD
ENDBRANCH  15  18
BRANCH  17  20
ATOM     20  O   UNL     1      10.766  28.693  26.134  0.00  0.00    +0.000 OA
ATOM     21  H   UNL     1      10.773  28.440  25.193  0.00  0.00    +0.000 HD
ENDBRANCH  17  20
ENDBRANCH   5  12
BRANCH   8  22
ATOM     22  O   UNL     1       5.832  20.688  31.344  0.00  0.00    +0.000 OA
ATOM     23  H   UNL     1       6.802  20.623  31.202  0.00  0.00    +0.000 HD
ENDBRANCH   8  22
BRANCH  10  24
ATOM     24  O   UNL     1       2.115  23.470  30.338  0.00  0.00    +0.000 OA
ATOM     25  H   UNL     1       1.948  24.076  31.082  0.00  0.00    +0.000 HD
ENDBRANCH  10  24
TORSDOF 5
ENDMDL
MODEL 5
REMARK VINA RESULT:      -5.7      5.152      8.768
REMARK  Name = 5280445_Luteolin.pdbqt.pdb
REMARK  5 active torsions:
REMARK  status: ('A' for Active; 'I' for Inactive)
REMARK    1  A    between atoms: C_5  and  C_12
REMARK    2  A    between atoms: C_8  and  O_22
REMARK    3  A    between atoms: C_10  and  O_24
REMARK    4  A    between atoms: C_15  and  O_18
REMARK    5  A    between atoms: C_17  and  O_20
REMARK                            x       y       z     vdW  Elec       q    Type
REMARK                         _______ _______ _______ _____ _____    ______ ____
ROOT
ATOM      1  O   UNL     1      10.445  17.511  30.036  0.00  0.00    +0.000 OA
ATOM      2  O   UNL     1       9.595  14.316  32.483  0.00  0.00    +0.000 OA
ATOM      3  C   UNL     1      11.090  15.250  30.853  0.00  0.00    +0.000 A 
ATOM      4  C   UNL     1      11.292  16.399  30.048  0.00  0.00    +0.000 A 
ATOM      5  C   UNL     1       9.316  17.511  30.864  0.00  0.00    +0.000 A 
ATOM      6  C   UNL     1       9.908  15.224  31.735  0.00  0.00    +0.000 A 
ATOM      7  C   UNL     1       9.191  16.437  31.569  0.00  0.00    +0.000 A 
ATOM      8  C   UNL     1      11.986  14.182  30.806  0.00  0.00    +0.000 A 
ATOM      9  C   UNL     1      12.396  16.460  29.204  0.00  0.00    +0.000 A 
ATOM     10  C   UNL     1      13.282  15.385  29.168  0.00  0.00    +0.000 A 
ATOM     11  C   UNL     1      13.087  14.251  29.958  0.00  0.00    +0.000 A 
ENDROOT
BRANCH   5  12
ATOM     12  C   UNL     1       8.435  18.671  30.849  0.00  0.00    +0.000 A 
ATOM     13  C   UNL     1       8.831  19.851  30.212  0.00  0.00    +0.000 A 
ATOM     14  C   UNL     1       7.180  18.625  31.470  0.00  0.00    +0.000 A 
ATOM     15  C   UNL     1       7.984  20.952  30.204  0.00  0.00    +0.000 A 
ATOM     16  C   UNL     1       6.329  19.731  31.462  0.00  0.00    +0.000 A 
ATOM     17  C   UNL     1       6.741  20.893  30.824  0.00  0.00    +0.000 A 
BRANCH  15  18
ATOM     18  O   UNL     1       8.382  22.098  29.577  0.00  0.00    +0.000 OA
ATOM     19  H   UNL     1       7.888  22.113  28.733  0.00  0.00    +0.000 HD
ENDBRANCH  15  18
BRANCH  17  20
ATOM     20  O   UNL     1       5.943  22.004  30.788  0.00  0.00    +0.000 OA
ATOM     21  H   UNL     1       5.080  21.761  31.169  0.00  0.00    +0.000 HD
ENDBRANCH  17  20
ENDBRANCH   5  12
BRANCH   8  22
ATOM     22  O   UNL     1      11.844  13.049  31.557  0.00  0.00    +0.000 OA
ATOM     23  H   UNL     1      11.669  13.293  32.492  0.00  0.00    +0.000 HD
ENDBRANCH   8  22
BRANCH  10  24
ATOM     24  O   UNL     1      14.358  15.466  28.331  0.00  0.00    +0.000 OA
ATOM     25  H   UNL     1      15.084  15.905  28.810  0.00  0.00    +0.000 HD
ENDBRANCH  10  24
TORSDOF 5
ENDMDL
MODEL 6
REMARK VINA RESULT:      -5.5      4.486      8.010
REMARK  Name = 5280445_Luteolin.pdbqt.pdb
REMARK  5 active torsions:
REMARK  status: ('A' for Active; 'I' for Inactive)
REMARK    1  A    between atoms: C_5  and  C_12
REMARK    2  A    between atoms: C_8  and  O_22
REMARK    3  A    between atoms: C_10  and  O_24
REMARK    4  A    between atoms: C_15  and  O_18
REMARK    5  A    between atoms: C_17  and  O_20
REMARK                            x       y       z     vdW  Elec       q    Type
REMARK                         _______ _______ _______ _____ _____    ______ ____
ROOT
ATOM      1  O   UNL     1       9.669  19.430  30.241  0.00  0.00    +0.000 OA
ATOM      2  O   UNL     1       6.833  17.061  32.048  0.00  0.00    +0.000 OA
ATOM      3  C   UNL     1       7.357  19.221  31.139  0.00  0.00    +0.000 A 
ATOM      4  C   UNL     1       8.403  19.951  30.522  0.00  0.00    +0.000 A 
ATOM      5  C   UNL     1       9.945  18.101  30.586  0.00  0.00    +0.000 A 
ATOM      6  C   UNL     1       7.622  17.818  31.513  0.00  0.00    +0.000 A 
ATOM      7  C   UNL     1       8.952  17.493  31.144  0.00  0.00    +0.000 A 
ATOM      8  C   UNL     1       6.121  19.818  31.383  0.00  0.00    +0.000 A 
ATOM      9  C   UNL     1       8.191  21.276  30.155  0.00  0.00    +0.000 A 
ATOM     10  C   UNL     1       6.950  21.858  30.405  0.00  0.00    +0.000 A 
ATOM     11  C   UNL     1       5.917  21.144  31.013  0.00  0.00    +0.000 A 
ENDROOT
BRANCH   5  12
ATOM     12  C   UNL     1      11.266  17.560  30.292  0.00  0.00    +0.000 A 
ATOM     13  C   UNL     1      11.458  16.722  29.190  0.00  0.00    +0.000 A 
ATOM     14  C   UNL     1      12.364  17.869  31.107  0.00  0.00    +0.000 A 
ATOM     15  C   UNL     1      12.721  16.212  28.919  0.00  0.00    +0.000 A 
ATOM     16  C   UNL     1      13.632  17.357  30.835  0.00  0.00    +0.000 A 
ATOM     17  C   UNL     1      13.802  16.527  29.735  0.00  0.00    +0.000 A 
BRANCH  15  18
ATOM     18  O   UNL     1      12.895  15.395  27.838  0.00  0.00    +0.000 OA
ATOM     19  H   UNL     1      13.130  15.994  27.101  0.00  0.00    +0.000 HD
ENDBRANCH  15  18
BRANCH  17  20
ATOM     20  O   UNL     1      15.025  15.998  29.426  0.00  0.00    +0.000 OA
ATOM     21  H   UNL     1      15.139  16.061  28.460  0.00  0.00    +0.000 HD
ENDBRANCH  17  20
ENDBRANCH   5  12
BRANCH   8  22
ATOM     22  O   UNL     1       5.075  19.166  31.975  0.00  0.00    +0.000 OA
ATOM     23  H   UNL     1       5.363  18.803  32.842  0.00  0.00    +0.000 HD
ENDBRANCH   8  22
BRANCH  10  24
ATOM     24  O   UNL     1       6.765  23.160  30.037  0.00  0.00    +0.000 OA
ATOM     25  H   UNL     1       6.076  23.543  30.609  0.00  0.00    +0.000 HD
ENDBRANCH  10  24
TORSDOF 5
ENDMDL
MODEL 7
REMARK VINA RESULT:      -5.5     16.556     18.293
REMARK  Name = 5280445_Luteolin.pdbqt.pdb
REMARK  5 active torsions:
REMARK  status: ('A' for Active; 'I' for Inactive)
REMARK    1  A    between atoms: C_5  and  C_12
REMARK    2  A    between atoms: C_8  and  O_22
REMARK    3  A    between atoms: C_10  and  O_24
REMARK    4  A    between atoms: C_15  and  O_18
REMARK    5  A    between atoms: C_17  and  O_20
REMARK                            x       y       z     vdW  Elec       q    Type
REMARK                         _______ _______ _______ _____ _____    ______ ____
ROOT
ATOM      1  O   UNL     1      23.627  18.604  26.899  0.00  0.00    +0.000 OA
ATOM      2  O   UNL     1      22.237  19.152  23.067  0.00  0.00    +0.000 OA
ATOM      3  C   UNL     1      23.228  20.167  25.004  0.00  0.00    +0.000 A 
ATOM      4  C   UNL     1      23.678  19.872  26.315  0.00  0.00    +0.000 A 
ATOM      5  C   UNL     1      23.097  17.539  26.159  0.00  0.00    +0.000 A 
ATOM      6  C   UNL     1      22.666  19.063  24.203  0.00  0.00    +0.000 A 
ATOM      7  C   UNL     1      22.706  17.875  24.976  0.00  0.00    +0.000 A 
ATOM      8  C   UNL     1      23.317  21.463  24.496  0.00  0.00    +0.000 A 
ATOM      9  C   UNL     1      24.215  20.887  27.100  0.00  0.00    +0.000 A 
ATOM     10  C   UNL     1      24.297  22.177  26.579  0.00  0.00    +0.000 A 
ATOM     11  C   UNL     1      23.854  22.472  25.289  0.00  0.00    +0.000 A 
ENDROOT
BRANCH   5  12
ATOM     12  C   UNL     1      23.045  16.218  26.771  0.00  0.00    +0.000 A 
ATOM     13  C   UNL     1      22.660  16.071  28.107  0.00  0.00    +0.000 A 
ATOM     14  C   UNL     1      23.377  15.074  26.033  0.00  0.00    +0.000 A 
ATOM     15  C   UNL     1      22.614  14.807  28.680  0.00  0.00    +0.000 A 
ATOM     16  C   UNL     1      23.331  13.804  26.609  0.00  0.00    +0.000 A 
ATOM     17  C   UNL     1      22.947  13.680  27.937  0.00  0.00    +0.000 A 
BRANCH  15  18
ATOM     18  O   UNL     1      22.236  14.678  29.986  0.00  0.00    +0.000 OA
ATOM     19  H   UNL     1      22.547  13.791  30.256  0.00  0.00    +0.000 HD
ENDBRANCH  15  18
BRANCH  17  20
ATOM     20  O   UNL     1      22.885  12.458  28.548  0.00  0.00    +0.000 OA
ATOM     21  H   UNL     1      23.607  12.417  29.202  0.00  0.00    +0.000 HD
ENDBRANCH  17  20
ENDBRANCH   5  12
BRANCH   8  22
ATOM     22  O   UNL     1      22.898  21.808  23.241  0.00  0.00    +0.000 OA
ATOM     23  H   UNL     1      22.653  22.759  23.227  0.00  0.00    +0.000 HD
ENDBRANCH   8  22
BRANCH  10  24
ATOM     24  O   UNL     1      24.826  23.158  27.368  0.00  0.00    +0.000 OA
ATOM     25  H   UNL     1      24.476  23.046  28.270  0.00  0.00    +0.000 HD
ENDBRANCH  10  24
TORSDOF 5
ENDMDL
MODEL 8
REMARK VINA RESULT:      -5.5     15.461     18.599
REMARK  Name = 5280445_Luteolin.pdbqt.pdb
REMARK  5 active torsions:
REMARK  status: ('A' for Active; 'I' for Inactive)
REMARK    1  A    between atoms: C_5  and  C_12
REMARK    2  A    between atoms: C_8  and  O_22
REMARK    3  A    between atoms: C_10  and  O_24
REMARK    4  A    between atoms: C_15  and  O_18
REMARK    5  A    between atoms: C_17  and  O_20
REMARK                            x       y       z     vdW  Elec       q    Type
REMARK                         _______ _______ _______ _____ _____    ______ ____
ROOT
ATOM      1  O   UNL     1       0.273  28.743  12.971  0.00  0.00    +0.000 OA
ATOM      2  O   UNL     1       2.932  31.204  14.919  0.00  0.00    +0.000 OA
ATOM      3  C   UNL     1       1.915  30.609  12.827  0.00  0.00    +0.000 A 
ATOM      4  C   UNL     1       0.979  29.713  12.253  0.00  0.00    +0.000 A 
ATOM      5  C   UNL     1       0.491  28.630  14.350  0.00  0.00    +0.000 A 
ATOM      6  C   UNL     1       2.163  30.511  14.278  0.00  0.00    +0.000 A 
ATOM      7  C   UNL     1       1.354  29.474  14.809  0.00  0.00    +0.000 A 
ATOM      8  C   UNL     1       2.576  31.549  12.038  0.00  0.00    +0.000 A 
ATOM      9  C   UNL     1       0.718  29.774  10.889  0.00  0.00    +0.000 A 
ATOM     10  C   UNL     1       1.387  30.719  10.113  0.00  0.00    +0.000 A 
ATOM     11  C   UNL     1       2.310  31.603  10.673  0.00  0.00    +0.000 A 
ENDROOT
BRANCH   5  12
ATOM     12  C   UNL     1      -0.246  27.619  15.096  0.00  0.00    +0.000 A 
ATOM     13  C   UNL     1      -0.277  26.294  14.651  0.00  0.00    +0.000 A 
ATOM     14  C   UNL     1      -0.934  27.955  16.270  0.00  0.00    +0.000 A 
ATOM     15  C   UNL     1      -0.983  25.338  15.369  0.00  0.00    +0.000 A 
ATOM     16  C   UNL     1      -1.644  26.994  16.991  0.00  0.00    +0.000 A 
ATOM     17  C   UNL     1      -1.661  25.684  16.532  0.00  0.00    +0.000 A 
BRANCH  15  18
ATOM     18  O   UNL     1      -1.004  24.047  14.923  0.00  0.00    +0.000 OA
ATOM     19  H   UNL     1      -1.927  23.748  15.052  0.00  0.00    +0.000 HD
ENDBRANCH  15  18
BRANCH  17  20
ATOM     20  O   UNL     1      -2.342  24.705  17.203  0.00  0.00    +0.000 OA
ATOM     21  H   UNL     1      -2.988  24.317  16.585  0.00  0.00    +0.000 HD
ENDBRANCH  17  20
ENDBRANCH   5  12
BRANCH   8  22
ATOM     22  O   UNL     1       3.489  32.437  12.534  0.00  0.00    +0.000 OA
ATOM     23  H   UNL     1       3.708  33.103  11.845  0.00  0.00    +0.000 HD
ENDBRANCH   8  22
BRANCH  10  24
ATOM     24  O   UNL     1       1.116  30.762   8.775  0.00  0.00    +0.000 OA
ATOM     25  H   UNL     1       0.998  31.694   8.517  0.00  0.00    +0.000 HD
ENDBRANCH  10  24
TORSDOF 5
ENDMDL
MODEL 9
REMARK VINA RESULT:      -5.4      8.732     11.268
REMARK  Name = 5280445_Luteolin.pdbqt.pdb
REMARK  5 active torsions:
REMARK  status: ('A' for Active; 'I' for Inactive)
REMARK    1  A    between atoms: C_5  and  C_12
REMARK    2  A    between atoms: C_8  and  O_22
REMARK    3  A    between atoms: C_10  and  O_24
REMARK    4  A    between atoms: C_15  and  O_18
REMARK    5  A    between atoms: C_17  and  O_20
REMARK                            x       y       z     vdW  Elec       q    Type
REMARK                         _______ _______ _______ _____ _____    ______ ____
ROOT
ATOM      1  O   UNL     1      15.036  17.088  30.464  0.00  0.00    +0.000 OA
ATOM      2  O   UNL     1      13.445  20.658  31.748  0.00  0.00    +0.000 OA
ATOM      3  C   UNL     1      13.083  18.632  30.511  0.00  0.00    +0.000 A 
ATOM      4  C   UNL     1      13.725  17.430  30.120  0.00  0.00    +0.000 A 
ATOM      5  C   UNL     1      15.784  17.978  31.244  0.00  0.00    +0.000 A 
ATOM      6  C   UNL     1      13.850  19.587  31.333  0.00  0.00    +0.000 A 
ATOM      7  C   UNL     1      15.143  19.051  31.565  0.00  0.00    +0.000 A 
ATOM      8  C   UNL     1      11.770  18.895  30.125  0.00  0.00    +0.000 A 
ATOM      9  C   UNL     1      13.034  16.504  29.345  0.00  0.00    +0.000 A 
ATOM     10  C   UNL     1      11.722  16.781  28.967  0.00  0.00    +0.000 A 
ATOM     11  C   UNL     1      11.086  17.964  29.348  0.00  0.00    +0.000 A 
ENDROOT
BRANCH   5  12
ATOM     12  C   UNL     1      17.150  17.619  31.602  0.00  0.00    +0.000 A 
ATOM     13  C   UNL     1      18.067  17.254  30.612  0.00  0.00    +0.000 A 
ATOM     14  C   UNL     1      17.568  17.635  32.939  0.00  0.00    +0.000 A 
ATOM     15  C   UNL     1      19.367  16.913  30.963  0.00  0.00    +0.000 A 
ATOM     16  C   UNL     1      18.874  17.292  33.293  0.00  0.00    +0.000 A 
ATOM     17  C   UNL     1      19.769  16.932  32.294  0.00  0.00    +0.000 A 
BRANCH  15  18
ATOM     18  O   UNL     1      20.253  16.558  29.986  0.00  0.00    +0.000 OA
ATOM     19  H   UNL     1      20.533  15.649  30.213  0.00  0.00    +0.000 HD
ENDBRANCH  15  18
BRANCH  17  20
ATOM     20  O   UNL     1      21.060  16.588  32.588  0.00  0.00    +0.000 OA
ATOM     21  H   UNL     1      21.099  15.617  32.659  0.00  0.00    +0.000 HD
ENDBRANCH  17  20
ENDBRANCH   5  12
BRANCH   8  22
ATOM     22  O   UNL     1      11.100  20.036  30.470  0.00  0.00    +0.000 OA
ATOM     23  H   UNL     1      10.322  19.805  31.024  0.00  0.00    +0.000 HD
ENDBRANCH   8  22
BRANCH  10  24
ATOM     24  O   UNL     1      11.063  15.860  28.205  0.00  0.00    +0.000 OA
ATOM     25  H   UNL     1      10.105  15.993  28.324  0.00  0.00    +0.000 HD
ENDBRANCH  10  24
TORSDOF 5
ENDMDL
