MODEL 1
REMARK VINA RESULT:      -5.0      0.000      0.000
REMARK  Name = 5281416_Esculetin.pdbqt.pdb
REMARK  2 active torsions:
REMARK  status: ('A' for Active; 'I' for Inactive)
REMARK    1  A    between atoms: C_7  and  O_12
REMARK    2  A    between atoms: C_8  and  O_14
REMARK                            x       y       z     vdW  Elec       q    Type
REMARK                         _______ _______ _______ _____ _____    ______ ____
ROOT
ATOM      1  O   UNL     1      29.384  14.094  17.254  0.00  0.00    +0.000 OA
ATOM      2  O   UNL     1      29.821  12.085  18.385  0.00  0.00    +0.000 OA
ATOM      3  C   UNL     1      28.184  13.898  15.077  0.00  0.00    +0.000 A 
ATOM      4  C   UNL     1      28.799  14.700  16.078  0.00  0.00    +0.000 A 
ATOM      5  C   UNL     1      27.622  14.471  13.948  0.00  0.00    +0.000 A 
ATOM      6  C   UNL     1      28.859  16.082  15.962  0.00  0.00    +0.000 A 
ATOM      7  C   UNL     1      27.684  15.858  13.835  0.00  0.00    +0.000 A 
ATOM      8  C   UNL     1      28.291  16.647  14.825  0.00  0.00    +0.000 A 
ATOM      9  C   UNL     1      28.211  12.509  15.353  0.00  0.00    +0.000 A 
ATOM     10  C   UNL     1      28.700  12.029  16.330  0.00  0.00    +0.000 A 
ATOM     11  C   UNL     1      29.355  12.683  17.429  0.00  0.00    +0.000 A 
ENDROOT
BRANCH   7  12
ATOM     12  O   UNL     1      27.150  16.501  12.749  0.00  0.00    +0.000 OA
ATOM     13  H   UNL     1      27.852  16.584  12.077  0.00  0.00    +0.000 HD
ENDBRANCH   7  12
BRANCH   8  14
ATOM     14  O   UNL     1      28.329  18.005  14.673  0.00  0.00    +0.000 OA
ATOM     15  H   UNL     1      27.802  18.363  15.416  0.00  0.00    +0.000 HD
ENDBRANCH   8  14
TORSDOF 2
ENDMDL
MODEL 2
REMARK VINA RESULT:      -4.8     30.980     32.011
REMARK  Name = 5281416_Esculetin.pdbqt.pdb
REMARK  2 active torsions:
REMARK  status: ('A' for Active; 'I' for Inactive)
REMARK    1  A    between atoms: C_7  and  O_12
REMARK    2  A    between atoms: C_8  and  O_14
REMARK                            x       y       z     vdW  Elec       q    Type
REMARK                         _______ _______ _______ _____ _____    ______ ____
ROOT
ATOM      1  O   UNL     1      -2.640  25.051  16.021  0.00  0.00    +0.000 OA
ATOM      2  O   UNL     1      -3.309  23.031  15.033  0.00  0.00    +0.000 OA
ATOM      3  C   UNL     1      -0.591  26.116  15.080  0.00  0.00    +0.000 A 
ATOM      4  C   UNL     1      -1.666  26.121  16.011  0.00  0.00    +0.000 A 
ATOM      5  C   UNL     1       0.345  27.138  15.065  0.00  0.00    +0.000 A 
ATOM      6  C   UNL     1      -1.819  27.145  16.935  0.00  0.00    +0.000 A 
ATOM      7  C   UNL     1       0.189  28.163  15.994  0.00  0.00    +0.000 A 
ATOM      8  C   UNL     1      -0.874  28.165  16.911  0.00  0.00    +0.000 A 
ATOM      9  C   UNL     1      -0.586  24.998  14.210  0.00  0.00    +0.000 A 
ATOM     10  C   UNL     1      -1.399  24.125  14.234  0.00  0.00    +0.000 A 
ATOM     11  C   UNL     1      -2.538  23.974  15.098  0.00  0.00    +0.000 A 
ENDROOT
BRANCH   7  12
ATOM     12  O   UNL     1       1.072  29.209  16.043  0.00  0.00    +0.000 OA
ATOM     13  H   UNL     1       1.505  29.276  15.172  0.00  0.00    +0.000 HD
ENDBRANCH   7  12
BRANCH   8  14
ATOM     14  O   UNL     1      -0.988  29.193  17.806  0.00  0.00    +0.000 OA
ATOM     15  H   UNL     1      -0.394  28.957  18.547  0.00  0.00    +0.000 HD
ENDBRANCH   8  14
TORSDOF 2
ENDMDL
MODEL 3
REMARK VINA RESULT:      -4.8     16.202     18.137
REMARK  Name = 5281416_Esculetin.pdbqt.pdb
REMARK  2 active torsions:
REMARK  status: ('A' for Active; 'I' for Inactive)
REMARK    1  A    between atoms: C_7  and  O_12
REMARK    2  A    between atoms: C_8  and  O_14
REMARK                            x       y       z     vdW  Elec       q    Type
REMARK                         _______ _______ _______ _____ _____    ______ ____
ROOT
ATOM      1  O   UNL     1      19.267  -0.680  24.031  0.00  0.00    +0.000 OA
ATOM      2  O   UNL     1      19.437  -2.900  23.289  0.00  0.00    +0.000 OA
ATOM      3  C   UNL     1      19.354   1.083  22.270  0.00  0.00    +0.000 A 
ATOM      4  C   UNL     1      19.241   0.712  23.638  0.00  0.00    +0.000 A 
ATOM      5  C   UNL     1      19.331   2.414  21.886  0.00  0.00    +0.000 A 
ATOM      6  C   UNL     1      19.103   1.665  24.637  0.00  0.00    +0.000 A 
ATOM      7  C   UNL     1      19.192   3.368  22.892  0.00  0.00    +0.000 A 
ATOM      8  C   UNL     1      19.081   2.998  24.241  0.00  0.00    +0.000 A 
ATOM      9  C   UNL     1      19.488  -0.014  21.383  0.00  0.00    +0.000 A 
ATOM     10  C   UNL     1      19.507  -1.156  21.728  0.00  0.00    +0.000 A 
ATOM     11  C   UNL     1      19.406  -1.703  23.053  0.00  0.00    +0.000 A 
ENDROOT
BRANCH   7  12
ATOM     12  O   UNL     1      19.160   4.705  22.594  0.00  0.00    +0.000 OA
ATOM     13  H   UNL     1      18.232   5.001  22.646  0.00  0.00    +0.000 HD
ENDBRANCH   7  12
BRANCH   8  14
ATOM     14  O   UNL     1      18.946   3.969  25.195  0.00  0.00    +0.000 OA
ATOM     15  H   UNL     1      18.038   3.865  25.543  0.00  0.00    +0.000 HD
ENDBRANCH   8  14
TORSDOF 2
ENDMDL
MODEL 4
REMARK VINA RESULT:      -4.8     21.957     22.414
REMARK  Name = 5281416_Esculetin.pdbqt.pdb
REMARK  2 active torsions:
REMARK  status: ('A' for Active; 'I' for Inactive)
REMARK    1  A    between atoms: C_7  and  O_12
REMARK    2  A    between atoms: C_8  and  O_14
REMARK                            x       y       z     vdW  Elec       q    Type
REMARK                         _______ _______ _______ _____ _____    ______ ____
ROOT
ATOM      1  O   UNL     1      11.866  19.299  31.275  0.00  0.00    +0.000 OA
ATOM      2  O   UNL     1       9.984  20.556  31.894  0.00  0.00    +0.000 OA
ATOM      3  C   UNL     1      11.466  17.422  29.684  0.00  0.00    +0.000 A 
ATOM      4  C   UNL     1      12.355  18.190  30.485  0.00  0.00    +0.000 A 
ATOM      5  C   UNL     1      11.927  16.358  28.925  0.00  0.00    +0.000 A 
ATOM      6  C   UNL     1      13.712  17.905  30.538  0.00  0.00    +0.000 A 
ATOM      7  C   UNL     1      13.290  16.075  28.980  0.00  0.00    +0.000 A 
ATOM      8  C   UNL     1      14.164  16.835  29.772  0.00  0.00    +0.000 A 
ATOM      9  C   UNL     1      10.116  17.848  29.746  0.00  0.00    +0.000 A 
ATOM     10  C   UNL     1       9.733  18.767  30.405  0.00  0.00    +0.000 A 
ATOM     11  C   UNL     1      10.485  19.641  31.263  0.00  0.00    +0.000 A 
ENDROOT
BRANCH   7  12
ATOM     12  O   UNL     1      13.823  15.039  28.259  0.00  0.00    +0.000 OA
ATOM     13  H   UNL     1      13.202  14.825  27.538  0.00  0.00    +0.000 HD
ENDBRANCH   7  12
BRANCH   8  14
ATOM     14  O   UNL     1      15.495  16.522  29.796  0.00  0.00    +0.000 OA
ATOM     15  H   UNL     1      15.637  15.940  29.022  0.00  0.00    +0.000 HD
ENDBRANCH   8  14
TORSDOF 2
ENDMDL
MODEL 5
REMARK VINA RESULT:      -4.8     31.524     32.426
REMARK  Name = 5281416_Esculetin.pdbqt.pdb
REMARK  2 active torsions:
REMARK  status: ('A' for Active; 'I' for Inactive)
REMARK    1  A    between atoms: C_7  and  O_12
REMARK    2  A    between atoms: C_8  and  O_14
REMARK                            x       y       z     vdW  Elec       q    Type
REMARK                         _______ _______ _______ _____ _____    ______ ____
ROOT
ATOM      1  O   UNL     1      -2.246  26.230  13.986  0.00  0.00    +0.000 OA
ATOM      2  O   UNL     1      -2.360  25.766  11.689  0.00  0.00    +0.000 OA
ATOM      3  C   UNL     1      -0.380  27.711  14.723  0.00  0.00    +0.000 A 
ATOM      4  C   UNL     1      -1.527  26.927  15.030  0.00  0.00    +0.000 A 
ATOM      5  C   UNL     1       0.313  28.381  15.717  0.00  0.00    +0.000 A 
ATOM      6  C   UNL     1      -1.992  26.805  16.331  0.00  0.00    +0.000 A 
ATOM      7  C   UNL     1      -0.156  28.256  17.022  0.00  0.00    +0.000 A 
ATOM      8  C   UNL     1      -1.288  27.482  17.321  0.00  0.00    +0.000 A 
ATOM      9  C   UNL     1      -0.043  27.728  13.347  0.00  0.00    +0.000 A 
ATOM     10  C   UNL     1      -0.651  27.145  12.500  0.00  0.00    +0.000 A 
ATOM     11  C   UNL     1      -1.818  26.317  12.632  0.00  0.00    +0.000 A 
ENDROOT
BRANCH   7  12
ATOM     12  O   UNL     1       0.474  28.888  18.061  0.00  0.00    +0.000 OA
ATOM     13  H   UNL     1       1.222  28.329  18.341  0.00  0.00    +0.000 HD
ENDBRANCH   7  12
BRANCH   8  14
ATOM     14  O   UNL     1      -1.715  27.387  18.617  0.00  0.00    +0.000 OA
ATOM     15  H   UNL     1      -2.359  28.114  18.731  0.00  0.00    +0.000 HD
ENDBRANCH   8  14
TORSDOF 2
ENDMDL
MODEL 6
REMARK VINA RESULT:      -4.7     12.495     13.188
REMARK  Name = 5281416_Esculetin.pdbqt.pdb
REMARK  2 active torsions:
REMARK  status: ('A' for Active; 'I' for Inactive)
REMARK    1  A    between atoms: C_7  and  O_12
REMARK    2  A    between atoms: C_8  and  O_14
REMARK                            x       y       z     vdW  Elec       q    Type
REMARK                         _______ _______ _______ _____ _____    ______ ____
ROOT
ATOM      1  O   UNL     1      22.224  19.686  27.481  0.00  0.00    +0.000 OA
ATOM      2  O   UNL     1      21.119  17.745  28.199  0.00  0.00    +0.000 OA
ATOM      3  C   UNL     1      22.492  19.959  25.017  0.00  0.00    +0.000 A 
ATOM      4  C   UNL     1      22.694  20.441  26.340  0.00  0.00    +0.000 A 
ATOM      5  C   UNL     1      22.939  20.675  23.920  0.00  0.00    +0.000 A 
ATOM      6  C   UNL     1      23.345  21.642  26.580  0.00  0.00    +0.000 A 
ATOM      7  C   UNL     1      23.592  21.881  24.164  0.00  0.00    +0.000 A 
ATOM      8  C   UNL     1      23.790  22.354  25.471  0.00  0.00    +0.000 A 
ATOM      9  C   UNL     1      21.811  18.718  24.953  0.00  0.00    +0.000 A 
ATOM     10  C   UNL     1      21.430  18.111  25.908  0.00  0.00    +0.000 A 
ATOM     11  C   UNL     1      21.550  18.448  27.300  0.00  0.00    +0.000 A 
ENDROOT
BRANCH   7  12
ATOM     12  O   UNL     1      24.065  22.648  23.132  0.00  0.00    +0.000 OA
ATOM     13  H   UNL     1      23.300  23.079  22.706  0.00  0.00    +0.000 HD
ENDBRANCH   7  12
BRANCH   8  14
ATOM     14  O   UNL     1      24.437  23.543  25.665  0.00  0.00    +0.000 OA
ATOM     15  H   UNL     1      25.025  23.646  24.890  0.00  0.00    +0.000 HD
ENDBRANCH   8  14
TORSDOF 2
ENDMDL
MODEL 7
REMARK VINA RESULT:      -4.5     15.555     17.603
REMARK  Name = 5281416_Esculetin.pdbqt.pdb
REMARK  2 active torsions:
REMARK  status: ('A' for Active; 'I' for Inactive)
REMARK    1  A    between atoms: C_7  and  O_12
REMARK    2  A    between atoms: C_8  and  O_14
REMARK                            x       y       z     vdW  Elec       q    Type
REMARK                         _______ _______ _______ _____ _____    ______ ____
ROOT
ATOM      1  O   UNL     1      20.167  -0.264  14.174  0.00  0.00    +0.000 OA
ATOM      2  O   UNL     1      19.022  -1.329  12.424  0.00  0.00    +0.000 OA
ATOM      3  C   UNL     1      19.552  -0.967  16.486  0.00  0.00    +0.000 A 
ATOM      4  C   UNL     1      20.328  -0.161  15.608  0.00  0.00    +0.000 A 
ATOM      5  C   UNL     1      19.701  -0.874  17.860  0.00  0.00    +0.000 A 
ATOM      6  C   UNL     1      21.261   0.744  16.092  0.00  0.00    +0.000 A 
ATOM      7  C   UNL     1      20.638   0.036  18.342  0.00  0.00    +0.000 A 
ATOM      8  C   UNL     1      21.403   0.829  17.473  0.00  0.00    +0.000 A 
ATOM      9  C   UNL     1      18.649  -1.836  15.825  0.00  0.00    +0.000 A 
ATOM     10  C   UNL     1      18.531  -1.906  14.639  0.00  0.00    +0.000 A 
ATOM     11  C   UNL     1      19.227  -1.174  13.617  0.00  0.00    +0.000 A 
ENDROOT
BRANCH   7  12
ATOM     12  O   UNL     1      20.845   0.187  19.688  0.00  0.00    +0.000 OA
ATOM     13  H   UNL     1      21.804   0.290  19.834  0.00  0.00    +0.000 HD
ENDBRANCH   7  12
BRANCH   8  14
ATOM     14  O   UNL     1      22.312   1.710  17.991  0.00  0.00    +0.000 OA
ATOM     15  H   UNL     1      22.856   1.185  18.611  0.00  0.00    +0.000 HD
ENDBRANCH   8  14
TORSDOF 2
ENDMDL
MODEL 8
REMARK VINA RESULT:      -4.5     25.166     25.228
REMARK  Name = 5281416_Esculetin.pdbqt.pdb
REMARK  2 active torsions:
REMARK  status: ('A' for Active; 'I' for Inactive)
REMARK    1  A    between atoms: C_7  and  O_12
REMARK    2  A    between atoms: C_8  and  O_14
REMARK                            x       y       z     vdW  Elec       q    Type
REMARK                         _______ _______ _______ _____ _____    ______ ____
ROOT
ATOM      1  O   UNL     1      11.691  26.138  30.314  0.00  0.00    +0.000 OA
ATOM      2  O   UNL     1      11.952  24.626  32.089  0.00  0.00    +0.000 OA
ATOM      3  C   UNL     1       9.887  25.614  28.673  0.00  0.00    +0.000 A 
ATOM      4  C   UNL     1      10.944  26.457  29.116  0.00  0.00    +0.000 A 
ATOM      5  C   UNL     1       9.168  25.913  27.527  0.00  0.00    +0.000 A 
ATOM      6  C   UNL     1      11.294  27.605  28.420  0.00  0.00    +0.000 A 
ATOM      7  C   UNL     1       9.522  27.067  26.831  0.00  0.00    +0.000 A 
ATOM      8  C   UNL     1      10.565  27.896  27.272  0.00  0.00    +0.000 A 
ATOM      9  C   UNL     1       9.663  24.485  29.499  0.00  0.00    +0.000 A 
ATOM     10  C   UNL     1      10.291  24.240  30.485  0.00  0.00    +0.000 A 
ATOM     11  C   UNL     1      11.379  24.975  31.070  0.00  0.00    +0.000 A 
ENDROOT
BRANCH   7  12
ATOM     12  O   UNL     1       8.859  27.431  25.689  0.00  0.00    +0.000 OA
ATOM     13  H   UNL     1       8.770  28.402  25.692  0.00  0.00    +0.000 HD
ENDBRANCH   7  12
BRANCH   8  14
ATOM     14  O   UNL     1      10.879  29.019  26.557  0.00  0.00    +0.000 OA
ATOM     15  H   UNL     1      10.631  28.815  25.633  0.00  0.00    +0.000 HD
ENDBRANCH   8  14
TORSDOF 2
ENDMDL
MODEL 9
REMARK VINA RESULT:      -4.4     10.315     11.837
REMARK  Name = 5281416_Esculetin.pdbqt.pdb
REMARK  2 active torsions:
REMARK  status: ('A' for Active; 'I' for Inactive)
REMARK    1  A    between atoms: C_7  and  O_12
REMARK    2  A    between atoms: C_8  and  O_14
REMARK                            x       y       z     vdW  Elec       q    Type
REMARK                         _______ _______ _______ _____ _____    ______ ____
ROOT
ATOM      1  O   UNL     1      22.998  12.113  24.993  0.00  0.00    +0.000 OA
ATOM      2  O   UNL     1      23.687  10.635  23.306  0.00  0.00    +0.000 OA
ATOM      3  C   UNL     1      24.470  14.082  25.406  0.00  0.00    +0.000 A 
ATOM      4  C   UNL     1      23.302  13.330  25.713  0.00  0.00    +0.000 A 
ATOM      5  C   UNL     1      24.768  15.249  26.091  0.00  0.00    +0.000 A 
ATOM      6  C   UNL     1      22.421  13.734  26.706  0.00  0.00    +0.000 A 
ATOM      7  C   UNL     1      23.882  15.652  27.087  0.00  0.00    +0.000 A 
ATOM      8  C   UNL     1      22.731  14.907  27.387  0.00  0.00    +0.000 A 
ATOM      9  C   UNL     1      25.258  13.528  24.367  0.00  0.00    +0.000 A 
ATOM     10  C   UNL     1      24.988  12.522  23.785  0.00  0.00    +0.000 A 
ATOM     11  C   UNL     1      23.862  11.647  23.964  0.00  0.00    +0.000 A 
ENDROOT
BRANCH   7  12
ATOM     12  O   UNL     1      24.106  16.794  27.810  0.00  0.00    +0.000 OA
ATOM     13  H   UNL     1      23.254  17.258  27.907  0.00  0.00    +0.000 HD
ENDBRANCH   7  12
BRANCH   8  14
ATOM     14  O   UNL     1      21.888  15.339  28.373  0.00  0.00    +0.000 OA
ATOM     15  H   UNL     1      21.453  16.137  28.010  0.00  0.00    +0.000 HD
ENDBRANCH   8  14
TORSDOF 2
ENDMDL
