MODEL 1
REMARK VINA RESULT:      -6.4      0.000      0.000
REMARK  Name = 5281224_Astaxanthin.pdbqt.pdb
REMARK  16 active torsions:
REMARK  status: ('A' for Active; 'I' for Inactive)
REMARK    1  A    between atoms: C_1  and  C_5
REMARK    2  A    between atoms: C_2  and  C_27
REMARK    3  A    between atoms: C_3  and  C_5
REMARK    4  A    between atoms: C_3  and  C_7
REMARK    5  A    between atoms: C_6  and  C_10
REMARK    6  A    between atoms: C_8  and  C_10
REMARK    7  A    between atoms: C_8  and  C_12
REMARK    8  A    between atoms: C_11  and  C_16
REMARK    9  A    between atoms: C_17  and  O_23
REMARK   10  A    between atoms: C_25  and  C_27
REMARK   11  A    between atoms: C_25  and  C_29
REMARK   12  A    between atoms: C_28  and  C_32
REMARK   13  A    between atoms: C_30  and  C_32
REMARK   14  A    between atoms: C_30  and  C_34
REMARK   15  A    between atoms: C_33  and  C_38
REMARK   16  A    between atoms: C_39  and  O_45
REMARK                            x       y       z     vdW  Elec       q    Type
REMARK                         _______ _______ _______ _____ _____    ______ ____
ROOT
ATOM      1  C   UNL     1       9.715  12.815  30.765  0.00  0.00    +0.000 C 
ATOM      2  C   UNL     1      10.107  13.905  30.450  0.00  0.00    +0.000 C 
ENDROOT
BRANCH   2   3
ATOM      3  C   UNL     1      10.610  15.299  30.055  0.00  0.00    +0.000 C 
BRANCH   3   4
ATOM      4  C   UNL     1      11.040  16.476  29.725  0.00  0.00    +0.000 C 
ATOM      5  C   UNL     1      12.445  16.647  29.233  0.00  0.00    +0.000 C 
BRANCH   4   7
ATOM      6  C   UNL     1       9.506  18.569  30.055  0.00  0.00    +0.000 C 
ATOM      7  C   UNL     1      10.211  17.609  29.905  0.00  0.00    +0.000 C 
BRANCH   6   8
ATOM      8  C   UNL     1       8.605  19.795  30.242  0.00  0.00    +0.000 C 
BRANCH   8   9
ATOM      9  C   UNL     1       7.842  20.831  30.408  0.00  0.00    +0.000 C 
ATOM     10  C   UNL     1       6.520  20.682  31.099  0.00  0.00    +0.000 C 
BRANCH   9  12
ATOM     11  C   UNL     1       8.755  23.210  29.801  0.00  0.00    +0.000 C 
ATOM     12  C   UNL     1       8.325  22.120  30.075  0.00  0.00    +0.000 C 
BRANCH  11  16
ATOM     13  O   UNL     1      12.528  26.319  29.457  0.00  0.00    +0.000 OA
ATOM     14  C   UNL     1       8.293  25.595  28.971  0.00  0.00    +0.000 C 
ATOM     15  C   UNL     1       9.099  26.780  28.735  0.00  0.00    +0.000 C 
ATOM     16  C   UNL     1       9.287  24.520  29.480  0.00  0.00    +0.000 C 
ATOM     17  C   UNL     1      10.432  27.162  28.843  0.00  0.00    +0.000 C 
ATOM     18  C   UNL     1       7.657  25.109  27.648  0.00  0.00    +0.000 C 
ATOM     19  C   UNL     1       7.237  25.876  30.063  0.00  0.00    +0.000 C 
ATOM     20  C   UNL     1      10.624  24.760  29.628  0.00  0.00    +0.000 C 
ATOM     21  C   UNL     1      11.332  26.092  29.329  0.00  0.00    +0.000 C 
ATOM     22  C   UNL     1      11.526  23.623  30.124  0.00  0.00    +0.000 C 
BRANCH  17  23
ATOM     23  O   UNL     1      10.879  28.415  28.522  0.00  0.00    +0.000 OA
ATOM     24  H   UNL     1      10.672  29.051  29.236  0.00  0.00    +0.000 HD
ENDBRANCH  17  23
ENDBRANCH  11  16
ENDBRANCH   9  12
ENDBRANCH   8   9
ENDBRANCH   6   8
ENDBRANCH   4   7
ENDBRANCH   3   4
ENDBRANCH   2   3
BRANCH   1  25
ATOM     25  C   UNL     1       9.215  11.426  31.178  0.00  0.00    +0.000 C 
BRANCH  25  26
ATOM     26  C   UNL     1       8.796  10.250  31.526  0.00  0.00    +0.000 C 
ATOM     27  C   UNL     1       9.524   9.482  32.589  0.00  0.00    +0.000 C 
BRANCH  26  29
ATOM     28  C   UNL     1       6.786   9.148  30.266  0.00  0.00    +0.000 C 
ATOM     29  C   UNL     1       7.709   9.655  30.844  0.00  0.00    +0.000 C 
BRANCH  28  30
ATOM     30  C   UNL     1       5.608   8.497  29.530  0.00  0.00    +0.000 C 
BRANCH  30  31
ATOM     31  C   UNL     1       4.612   7.942  28.915  0.00  0.00    +0.000 C 
ATOM     32  C   UNL     1       3.270   8.611  28.909  0.00  0.00    +0.000 C 
BRANCH  31  34
ATOM     33  C   UNL     1       4.998   5.818  27.431  0.00  0.00    +0.000 C 
ATOM     34  C   UNL     1       4.830   6.790  28.119  0.00  0.00    +0.000 C 
BRANCH  33  38
ATOM     35  O   UNL     1       7.570   1.848  26.147  0.00  0.00    +0.000 OA
ATOM     36  C   UNL     1       4.113   4.366  25.508  0.00  0.00    +0.000 C 
ATOM     37  C   UNL     1       4.557   3.154  24.841  0.00  0.00    +0.000 C 
ATOM     38  C   UNL     1       5.184   4.648  26.594  0.00  0.00    +0.000 C 
ATOM     39  C   UNL     1       5.616   2.255  24.926  0.00  0.00    +0.000 C 
ATOM     40  C   UNL     1       2.747   4.128  26.194  0.00  0.00    +0.000 C 
ATOM     41  C   UNL     1       4.073   5.542  24.507  0.00  0.00    +0.000 C 
ATOM     42  C   UNL     1       6.270   3.845  26.788  0.00  0.00    +0.000 C 
ATOM     43  C   UNL     1       6.600   2.576  25.983  0.00  0.00    +0.000 C 
ATOM     44  C   UNL     1       7.264   4.204  27.901  0.00  0.00    +0.000 C 
BRANCH  39  45
ATOM     45  O   UNL     1       5.737   1.165  24.108  0.00  0.00    +0.000 OA
ATOM     46  H   UNL     1       5.071   1.194  23.390  0.00  0.00    +0.000 HD
ENDBRANCH  39  45
ENDBRANCH  33  38
ENDBRANCH  31  34
ENDBRANCH  30  31
ENDBRANCH  28  30
ENDBRANCH  26  29
ENDBRANCH  25  26
ENDBRANCH   1  25
TORSDOF 16
ENDMDL
MODEL 2
REMARK VINA RESULT:      -6.4     11.954     20.589
REMARK  Name = 5281224_Astaxanthin.pdbqt.pdb
REMARK  16 active torsions:
REMARK  status: ('A' for Active; 'I' for Inactive)
REMARK    1  A    between atoms: C_1  and  C_5
REMARK    2  A    between atoms: C_2  and  C_27
REMARK    3  A    between atoms: C_3  and  C_5
REMARK    4  A    between atoms: C_3  and  C_7
REMARK    5  A    between atoms: C_6  and  C_10
REMARK    6  A    between atoms: C_8  and  C_10
REMARK    7  A    between atoms: C_8  and  C_12
REMARK    8  A    between atoms: C_11  and  C_16
REMARK    9  A    between atoms: C_17  and  O_23
REMARK   10  A    between atoms: C_25  and  C_27
REMARK   11  A    between atoms: C_25  and  C_29
REMARK   12  A    between atoms: C_28  and  C_32
REMARK   13  A    between atoms: C_30  and  C_32
REMARK   14  A    between atoms: C_30  and  C_34
REMARK   15  A    between atoms: C_33  and  C_38
REMARK   16  A    between atoms: C_39  and  O_45
REMARK                            x       y       z     vdW  Elec       q    Type
REMARK                         _______ _______ _______ _____ _____    ______ ____
ROOT
ATOM      1  C   UNL     1      13.894  -1.335  25.063  0.00  0.00    +0.000 C 
ATOM      2  C   UNL     1      13.686  -2.001  24.087  0.00  0.00    +0.000 C 
ENDROOT
BRANCH   2   3
ATOM      3  C   UNL     1      13.417  -2.858  22.843  0.00  0.00    +0.000 C 
BRANCH   3   4
ATOM      4  C   UNL     1      13.190  -3.587  21.797  0.00  0.00    +0.000 C 
ATOM      5  C   UNL     1      12.063  -4.576  21.804  0.00  0.00    +0.000 C 
BRANCH   4   7
ATOM      6  C   UNL     1      14.789  -3.439  19.732  0.00  0.00    +0.000 C 
ATOM      7  C   UNL     1      14.053  -3.508  20.678  0.00  0.00    +0.000 C 
BRANCH   6   8
ATOM      8  C   UNL     1      15.732  -3.352  18.526  0.00  0.00    +0.000 C 
BRANCH   8   9
ATOM      9  C   UNL     1      16.533  -3.272  17.509  0.00  0.00    +0.000 C 
ATOM     10  C   UNL     1      16.178  -3.952  16.222  0.00  0.00    +0.000 C 
BRANCH   9  12
ATOM     11  C   UNL     1      18.624  -1.696  17.601  0.00  0.00    +0.000 C 
ATOM     12  C   UNL     1      17.664  -2.420  17.571  0.00  0.00    +0.000 C 
BRANCH  11  16
ATOM     13  O   UNL     1      21.668   1.410  15.341  0.00  0.00    +0.000 OA
ATOM     14  C   UNL     1      20.561  -0.693  18.953  0.00  0.00    +0.000 C 
ATOM     15  C   UNL     1      21.648   0.230  18.673  0.00  0.00    +0.000 C 
ATOM     16  C   UNL     1      19.782  -0.824  17.619  0.00  0.00    +0.000 C 
ATOM     17  C   UNL     1      22.126   0.966  17.593  0.00  0.00    +0.000 C 
ATOM     18  C   UNL     1      19.623  -0.101  20.031  0.00  0.00    +0.000 C 
ATOM     19  C   UNL     1      21.125  -2.074  19.357  0.00  0.00    +0.000 C 
ATOM     20  C   UNL     1      20.141  -0.153  16.485  0.00  0.00    +0.000 C 
ATOM     21  C   UNL     1      21.338   0.803  16.351  0.00  0.00    +0.000 C 
ATOM     22  C   UNL     1      19.292  -0.339  15.220  0.00  0.00    +0.000 C 
BRANCH  17  23
ATOM     23  O   UNL     1      23.225   1.778  17.671  0.00  0.00    +0.000 OA
ATOM     24  H   UNL     1      23.559   1.996  16.777  0.00  0.00    +0.000 HD
ENDBRANCH  17  23
ENDBRANCH  11  16
ENDBRANCH   9  12
ENDBRANCH   8   9
ENDBRANCH   6   8
ENDBRANCH   4   7
ENDBRANCH   3   4
ENDBRANCH   2   3
BRANCH   1  25
ATOM     25  C   UNL     1      14.156  -0.492  26.317  0.00  0.00    +0.000 C 
BRANCH  25  26
ATOM     26  C   UNL     1      14.373   0.218  27.379  0.00  0.00    +0.000 C 
ATOM     27  C   UNL     1      15.775   0.413  27.873  0.00  0.00    +0.000 C 
BRANCH  26  29
ATOM     28  C   UNL     1      12.359   1.177  28.744  0.00  0.00    +0.000 C 
ATOM     29  C   UNL     1      13.284   0.736  28.118  0.00  0.00    +0.000 C 
BRANCH  28  30
ATOM     30  C   UNL     1      11.175   1.742  29.540  0.00  0.00    +0.000 C 
BRANCH  30  31
ATOM     31  C   UNL     1      10.181   2.225  30.217  0.00  0.00    +0.000 C 
ATOM     32  C   UNL     1      10.209   2.190  31.715  0.00  0.00    +0.000 C 
BRANCH  31  34
ATOM     33  C   UNL     1       8.260   3.520  28.994  0.00  0.00    +0.000 C 
ATOM     34  C   UNL     1       9.148   2.925  29.545  0.00  0.00    +0.000 C 
BRANCH  33  38
ATOM     35  O   UNL     1       4.735   3.769  25.598  0.00  0.00    +0.000 OA
ATOM     36  C   UNL     1       6.833   5.650  28.878  0.00  0.00    +0.000 C 
ATOM     37  C   UNL     1       5.731   6.111  28.050  0.00  0.00    +0.000 C 
ATOM     38  C   UNL     1       7.178   4.236  28.345  0.00  0.00    +0.000 C 
ATOM     39  C   UNL     1       4.969   5.639  26.986  0.00  0.00    +0.000 C 
ATOM     40  C   UNL     1       6.382   5.539  30.353  0.00  0.00    +0.000 C 
ATOM     41  C   UNL     1       8.055   6.579  28.703  0.00  0.00    +0.000 C 
ATOM     42  C   UNL     1       6.508   3.651  27.309  0.00  0.00    +0.000 C 
ATOM     43  C   UNL     1       5.344   4.283  26.527  0.00  0.00    +0.000 C 
ATOM     44  C   UNL     1       6.918   2.240  26.869  0.00  0.00    +0.000 C 
BRANCH  39  45
ATOM     45  O   UNL     1       3.957   6.360  26.414  0.00  0.00    +0.000 OA
ATOM     46  H   UNL     1       4.244   7.280  26.236  0.00  0.00    +0.000 HD
ENDBRANCH  39  45
ENDBRANCH  33  38
ENDBRANCH  31  34
ENDBRANCH  30  31
ENDBRANCH  28  30
ENDBRANCH  26  29
ENDBRANCH  25  26
ENDBRANCH   1  25
TORSDOF 16
ENDMDL
MODEL 3
REMARK VINA RESULT:      -6.4      3.549      4.693
REMARK  Name = 5281224_Astaxanthin.pdbqt.pdb
REMARK  16 active torsions:
REMARK  status: ('A' for Active; 'I' for Inactive)
REMARK    1  A    between atoms: C_1  and  C_5
REMARK    2  A    between atoms: C_2  and  C_27
REMARK    3  A    between atoms: C_3  and  C_5
REMARK    4  A    between atoms: C_3  and  C_7
REMARK    5  A    between atoms: C_6  and  C_10
REMARK    6  A    between atoms: C_8  and  C_10
REMARK    7  A    between atoms: C_8  and  C_12
REMARK    8  A    between atoms: C_11  and  C_16
REMARK    9  A    between atoms: C_17  and  O_23
REMARK   10  A    between atoms: C_25  and  C_27
REMARK   11  A    between atoms: C_25  and  C_29
REMARK   12  A    between atoms: C_28  and  C_32
REMARK   13  A    between atoms: C_30  and  C_32
REMARK   14  A    between atoms: C_30  and  C_34
REMARK   15  A    between atoms: C_33  and  C_38
REMARK   16  A    between atoms: C_39  and  O_45
REMARK                            x       y       z     vdW  Elec       q    Type
REMARK                         _______ _______ _______ _____ _____    ______ ____
ROOT
ATOM      1  C   UNL     1       9.496  12.880  30.677  0.00  0.00    +0.000 C 
ATOM      2  C   UNL     1       9.927  13.962  30.387  0.00  0.00    +0.000 C 
ENDROOT
BRANCH   2   3
ATOM      3  C   UNL     1      10.483  15.345  30.024  0.00  0.00    +0.000 C 
BRANCH   3   4
ATOM      4  C   UNL     1      10.958  16.511  29.718  0.00  0.00    +0.000 C 
ATOM      5  C   UNL     1      12.378  16.642  29.257  0.00  0.00    +0.000 C 
BRANCH   4   7
ATOM      6  C   UNL     1       9.486  18.649  30.045  0.00  0.00    +0.000 C 
ATOM      7  C   UNL     1      10.162  17.668  29.897  0.00  0.00    +0.000 C 
BRANCH   6   8
ATOM      8  C   UNL     1       8.621  19.901  30.230  0.00  0.00    +0.000 C 
BRANCH   8   9
ATOM      9  C   UNL     1       7.889  20.959  30.396  0.00  0.00    +0.000 C 
ATOM     10  C   UNL     1       6.578  20.856  31.114  0.00  0.00    +0.000 C 
BRANCH   9  12
ATOM     11  C   UNL     1       8.824  23.318  29.745  0.00  0.00    +0.000 C 
ATOM     12  C   UNL     1       8.399  22.230  30.034  0.00  0.00    +0.000 C 
BRANCH  11  16
ATOM     13  O   UNL     1      12.530  26.502  29.360  0.00  0.00    +0.000 OA
ATOM     14  C   UNL     1       8.310  25.685  28.897  0.00  0.00    +0.000 C 
ATOM     15  C   UNL     1       9.090  26.885  28.647  0.00  0.00    +0.000 C 
ATOM     16  C   UNL     1       9.328  24.636  29.411  0.00  0.00    +0.000 C 
ATOM     17  C   UNL     1      10.415  27.296  28.747  0.00  0.00    +0.000 C 
ATOM     18  C   UNL     1       7.679  25.175  27.579  0.00  0.00    +0.000 C 
ATOM     19  C   UNL     1       7.252  25.954  29.990  0.00  0.00    +0.000 C 
ATOM     20  C   UNL     1      10.660  24.906  29.552  0.00  0.00    +0.000 C 
ATOM     21  C   UNL     1      11.339  26.249  29.239  0.00  0.00    +0.000 C 
ATOM     22  C   UNL     1      11.588  23.791  30.054  0.00  0.00    +0.000 C 
BRANCH  17  23
ATOM     23  O   UNL     1      10.835  28.556  28.413  0.00  0.00    +0.000 OA
ATOM     24  H   UNL     1      10.201  28.981  27.800  0.00  0.00    +0.000 HD
ENDBRANCH  17  23
ENDBRANCH  11  16
ENDBRANCH   9  12
ENDBRANCH   8   9
ENDBRANCH   6   8
ENDBRANCH   4   7
ENDBRANCH   3   4
ENDBRANCH   2   3
BRANCH   1  25
ATOM     25  C   UNL     1       8.949  11.499  31.057  0.00  0.00    +0.000 C 
BRANCH  25  26
ATOM     26  C   UNL     1       8.491  10.329  31.375  0.00  0.00    +0.000 C 
ATOM     27  C   UNL     1       9.079   9.589  32.540  0.00  0.00    +0.000 C 
BRANCH  26  29
ATOM     28  C   UNL     1       6.658   9.192  29.896  0.00  0.00    +0.000 C 
ATOM     29  C   UNL     1       7.500   9.715  30.574  0.00  0.00    +0.000 C 
BRANCH  28  30
ATOM     30  C   UNL     1       5.583   8.521  29.032  0.00  0.00    +0.000 C 
BRANCH  30  31
ATOM     31  C   UNL     1       4.680   7.954  28.296  0.00  0.00    +0.000 C 
ATOM     32  C   UNL     1       4.359   6.503  28.491  0.00  0.00    +0.000 C 
BRANCH  31  34
ATOM     33  C   UNL     1       3.203   9.395  26.681  0.00  0.00    +0.000 C 
ATOM     34  C   UNL     1       3.890   8.740  27.421  0.00  0.00    +0.000 C 
BRANCH  33  38
ATOM     35  O   UNL     1       0.512  13.381  25.741  0.00  0.00    +0.000 OA
ATOM     36  C   UNL     1       2.073   9.583  24.385  0.00  0.00    +0.000 C 
ATOM     37  C   UNL     1       1.220  10.561  23.731  0.00  0.00    +0.000 C 
ATOM     38  C   UNL     1       2.362  10.170  25.791  0.00  0.00    +0.000 C 
ATOM     39  C   UNL     1       0.646  11.794  24.026  0.00  0.00    +0.000 C 
ATOM     40  C   UNL     1       3.406   9.436  23.614  0.00  0.00    +0.000 C 
ATOM     41  C   UNL     1       1.325   8.239  24.533  0.00  0.00    +0.000 C 
ATOM     42  C   UNL     1       1.865  11.372  26.207  0.00  0.00    +0.000 C 
ATOM     43  C   UNL     1       0.963  12.302  25.378  0.00  0.00    +0.000 C 
ATOM     44  C   UNL     1       2.224  11.870  27.613  0.00  0.00    +0.000 C 
BRANCH  39  45
ATOM     45  O   UNL     1      -0.140  12.482  23.142  0.00  0.00    +0.000 OA
ATOM     46  H   UNL     1      -0.580  13.237  23.584  0.00  0.00    +0.000 HD
ENDBRANCH  39  45
ENDBRANCH  33  38
ENDBRANCH  31  34
ENDBRANCH  30  31
ENDBRANCH  28  30
ENDBRANCH  26  29
ENDBRANCH  25  26
ENDBRANCH   1  25
TORSDOF 16
ENDMDL
MODEL 4
REMARK VINA RESULT:      -5.9     14.406     21.156
REMARK  Name = 5281224_Astaxanthin.pdbqt.pdb
REMARK  16 active torsions:
REMARK  status: ('A' for Active; 'I' for Inactive)
REMARK    1  A    between atoms: C_1  and  C_5
REMARK    2  A    between atoms: C_2  and  C_27
REMARK    3  A    between atoms: C_3  and  C_5
REMARK    4  A    between atoms: C_3  and  C_7
REMARK    5  A    between atoms: C_6  and  C_10
REMARK    6  A    between atoms: C_8  and  C_10
REMARK    7  A    between atoms: C_8  and  C_12
REMARK    8  A    between atoms: C_11  and  C_16
REMARK    9  A    between atoms: C_17  and  O_23
REMARK   10  A    between atoms: C_25  and  C_27
REMARK   11  A    between atoms: C_25  and  C_29
REMARK   12  A    between atoms: C_28  and  C_32
REMARK   13  A    between atoms: C_30  and  C_32
REMARK   14  A    between atoms: C_30  and  C_34
REMARK   15  A    between atoms: C_33  and  C_38
REMARK   16  A    between atoms: C_39  and  O_45
REMARK                            x       y       z     vdW  Elec       q    Type
REMARK                         _______ _______ _______ _____ _____    ______ ____
ROOT
ATOM      1  C   UNL     1      13.878  -1.531  24.312  0.00  0.00    +0.000 C 
ATOM      2  C   UNL     1      13.581  -2.264  23.410  0.00  0.00    +0.000 C 
ENDROOT
BRANCH   2   3
ATOM      3  C   UNL     1      13.210  -3.204  22.256  0.00  0.00    +0.000 C 
BRANCH   3   4
ATOM      4  C   UNL     1      12.892  -3.994  21.279  0.00  0.00    +0.000 C 
ATOM      5  C   UNL     1      11.720  -4.919  21.415  0.00  0.00    +0.000 C 
BRANCH   4   7
ATOM      6  C   UNL     1      14.384  -4.077  19.132  0.00  0.00    +0.000 C 
ATOM      7  C   UNL     1      13.698  -4.040  20.116  0.00  0.00    +0.000 C 
BRANCH   6   8
ATOM      8  C   UNL     1      15.264  -4.126  17.877  0.00  0.00    +0.000 C 
BRANCH   8   9
ATOM      9  C   UNL     1      16.004  -4.161  16.812  0.00  0.00    +0.000 C 
ATOM     10  C   UNL     1      15.615  -5.038  15.660  0.00  0.00    +0.000 C 
BRANCH   9  12
ATOM     11  C   UNL     1      18.006  -2.487  16.589  0.00  0.00    +0.000 C 
ATOM     12  C   UNL     1      17.088  -3.259  16.680  0.00  0.00    +0.000 C 
BRANCH  11  16
ATOM     13  O   UNL     1      21.041   0.758  18.659  0.00  0.00    +0.000 OA
ATOM     14  C   UNL     1      19.779  -1.366  15.110  0.00  0.00    +0.000 C 
ATOM     15  C   UNL     1      20.831  -0.385  15.321  0.00  0.00    +0.000 C 
ATOM     16  C   UNL     1      19.108  -1.549  16.496  0.00  0.00    +0.000 C 
ATOM     17  C   UNL     1      21.344   0.369  16.370  0.00  0.00    +0.000 C 
ATOM     18  C   UNL     1      20.389  -2.714  14.661  0.00  0.00    +0.000 C 
ATOM     19  C   UNL     1      18.740  -0.825  14.103  0.00  0.00    +0.000 C 
ATOM     20  C   UNL     1      19.517  -0.874  17.610  0.00  0.00    +0.000 C 
ATOM     21  C   UNL     1      20.666   0.148  17.666  0.00  0.00    +0.000 C 
ATOM     22  C   UNL     1      18.796  -1.139  18.938  0.00  0.00    +0.000 C 
BRANCH  17  23
ATOM     23  O   UNL     1      22.392   1.239  16.223  0.00  0.00    +0.000 OA
ATOM     24  H   UNL     1      22.445   1.565  15.301  0.00  0.00    +0.000 HD
ENDBRANCH  17  23
ENDBRANCH  11  16
ENDBRANCH   9  12
ENDBRANCH   8   9
ENDBRANCH   6   8
ENDBRANCH   4   7
ENDBRANCH   3   4
ENDBRANCH   2   3
BRANCH   1  25
ATOM     25  C   UNL     1      14.267  -0.595  25.462  0.00  0.00    +0.000 C 
BRANCH  25  26
ATOM     26  C   UNL     1      14.593   0.200  26.432  0.00  0.00    +0.000 C 
ATOM     27  C   UNL     1      16.032   0.567  26.646  0.00  0.00    +0.000 C 
BRANCH  26  29
ATOM     28  C   UNL     1      12.770   1.037  28.110  0.00  0.00    +0.000 C 
ATOM     29  C   UNL     1      13.606   0.651  27.339  0.00  0.00    +0.000 C 
BRANCH  28  30
ATOM     30  C   UNL     1      11.704   1.531  29.097  0.00  0.00    +0.000 C 
BRANCH  30  31
ATOM     31  C   UNL     1      10.810   1.949  29.936  0.00  0.00    +0.000 C 
ATOM     32  C   UNL     1      11.233   2.609  31.213  0.00  0.00    +0.000 C 
BRANCH  31  34
ATOM     33  C   UNL     1       8.276   1.882  29.269  0.00  0.00    +0.000 C 
ATOM     34  C   UNL     1       9.440   1.924  29.574  0.00  0.00    +0.000 C 
BRANCH  33  38
ATOM     35  O   UNL     1       3.635   0.721  30.333  0.00  0.00    +0.000 OA
ATOM     36  C   UNL     1       6.476   2.329  27.496  0.00  0.00    +0.000 C 
ATOM     37  C   UNL     1       5.038   2.137  27.413  0.00  0.00    +0.000 C 
ATOM     38  C   UNL     1       6.875   1.812  28.902  0.00  0.00    +0.000 C 
ATOM     39  C   UNL     1       4.012   1.644  28.215  0.00  0.00    +0.000 C 
ATOM     40  C   UNL     1       6.819   3.834  27.394  0.00  0.00    +0.000 C 
ATOM     41  C   UNL     1       7.189   1.487  26.416  0.00  0.00    +0.000 C 
ATOM     42  C   UNL     1       5.969   1.308  29.790  0.00  0.00    +0.000 C 
ATOM     43  C   UNL     1       4.457   1.171  29.544  0.00  0.00    +0.000 C 
ATOM     44  C   UNL     1       6.467   0.837  31.163  0.00  0.00    +0.000 C 
BRANCH  39  45
ATOM     45  O   UNL     1       2.705   1.605  27.814  0.00  0.00    +0.000 OA
ATOM     46  H   UNL     1       2.144   2.145  28.408  0.00  0.00    +0.000 HD
ENDBRANCH  39  45
ENDBRANCH  33  38
ENDBRANCH  31  34
ENDBRANCH  30  31
ENDBRANCH  28  30
ENDBRANCH  26  29
ENDBRANCH  25  26
ENDBRANCH   1  25
TORSDOF 16
ENDMDL
MODEL 5
REMARK VINA RESULT:      -5.9     16.571     19.080
REMARK  Name = 5281224_Astaxanthin.pdbqt.pdb
REMARK  16 active torsions:
REMARK  status: ('A' for Active; 'I' for Inactive)
REMARK    1  A    between atoms: C_1  and  C_5
REMARK    2  A    between atoms: C_2  and  C_27
REMARK    3  A    between atoms: C_3  and  C_5
REMARK    4  A    between atoms: C_3  and  C_7
REMARK    5  A    between atoms: C_6  and  C_10
REMARK    6  A    between atoms: C_8  and  C_10
REMARK    7  A    between atoms: C_8  and  C_12
REMARK    8  A    between atoms: C_11  and  C_16
REMARK    9  A    between atoms: C_17  and  O_23
REMARK   10  A    between atoms: C_25  and  C_27
REMARK   11  A    between atoms: C_25  and  C_29
REMARK   12  A    between atoms: C_28  and  C_32
REMARK   13  A    between atoms: C_30  and  C_32
REMARK   14  A    between atoms: C_30  and  C_34
REMARK   15  A    between atoms: C_33  and  C_38
REMARK   16  A    between atoms: C_39  and  O_45
REMARK                            x       y       z     vdW  Elec       q    Type
REMARK                         _______ _______ _______ _____ _____    ______ ____
ROOT
ATOM      1  C   UNL     1      13.255  -2.748  23.799  0.00  0.00    +0.000 C 
ATOM      2  C   UNL     1      13.616  -1.798  24.437  0.00  0.00    +0.000 C 
ENDROOT
BRANCH   2   3
ATOM      3  C   UNL     1      14.077  -0.588  25.260  0.00  0.00    +0.000 C 
BRANCH   3   4
ATOM      4  C   UNL     1      14.465   0.438  25.950  0.00  0.00    +0.000 C 
ATOM      5  C   UNL     1      13.549   1.040  26.973  0.00  0.00    +0.000 C 
BRANCH   4   7
ATOM      6  C   UNL     1      16.780   1.549  25.454  0.00  0.00    +0.000 C 
ATOM      7  C   UNL     1      15.719   1.037  25.683  0.00  0.00    +0.000 C 
BRANCH   6   8
ATOM      8  C   UNL     1      18.134   2.206  25.161  0.00  0.00    +0.000 C 
BRANCH   8   9
ATOM      9  C   UNL     1      19.279   2.767  24.919  0.00  0.00    +0.000 C 
ATOM     10  C   UNL     1      19.591   3.262  23.540  0.00  0.00    +0.000 C 
BRANCH   9  12
ATOM     11  C   UNL     1      20.910   3.305  26.897  0.00  0.00    +0.000 C 
ATOM     12  C   UNL     1      20.164   3.047  25.989  0.00  0.00    +0.000 C 
BRANCH  11  16
ATOM     13  O   UNL     1      22.412   2.684  31.520  0.00  0.00    +0.000 OA
ATOM     14  C   UNL     1      22.898   4.702  27.727  0.00  0.00    +0.000 C 
ATOM     15  C   UNL     1      23.627   4.819  28.978  0.00  0.00    +0.000 C 
ATOM     16  C   UNL     1      21.804   3.634  27.990  0.00  0.00    +0.000 C 
ATOM     17  C   UNL     1      23.592   4.258  30.251  0.00  0.00    +0.000 C 
ATOM     18  C   UNL     1      23.837   4.197  26.606  0.00  0.00    +0.000 C 
ATOM     19  C   UNL     1      22.228   6.047  27.371  0.00  0.00    +0.000 C 
ATOM     20  C   UNL     1      21.662   3.003  29.193  0.00  0.00    +0.000 C 
ATOM     21  C   UNL     1      22.530   3.245  30.439  0.00  0.00    +0.000 C 
ATOM     22  C   UNL     1      20.556   1.950  29.345  0.00  0.00    +0.000 C 
BRANCH  17  23
ATOM     23  O   UNL     1      24.466   4.607  31.245  0.00  0.00    +0.000 OA
ATOM     24  H   UNL     1      24.702   5.555  31.183  0.00  0.00    +0.000 HD
ENDBRANCH  17  23
ENDBRANCH  11  16
ENDBRANCH   9  12
ENDBRANCH   8   9
ENDBRANCH   6   8
ENDBRANCH   4   7
ENDBRANCH   3   4
ENDBRANCH   2   3
BRANCH   1  25
ATOM     25  C   UNL     1      12.796  -3.968  22.992  0.00  0.00    +0.000 C 
BRANCH  25  26
ATOM     26  C   UNL     1      12.406  -4.996  22.305  0.00  0.00    +0.000 C 
ATOM     27  C   UNL     1      12.734  -6.379  22.782  0.00  0.00    +0.000 C 
BRANCH  26  29
ATOM     28  C   UNL     1      11.191  -4.658  20.014  0.00  0.00    +0.000 C 
ATOM     29  C   UNL     1      11.749  -4.812  21.066  0.00  0.00    +0.000 C 
BRANCH  28  30
ATOM     30  C   UNL     1      10.478  -4.466  18.669  0.00  0.00    +0.000 C 
BRANCH  30  31
ATOM     31  C   UNL     1       9.871  -4.311  17.535  0.00  0.00    +0.000 C 
ATOM     32  C   UNL     1      10.253  -5.159  16.360  0.00  0.00    +0.000 C 
BRANCH  31  34
ATOM     33  C   UNL     1       7.795  -2.722  17.359  0.00  0.00    +0.000 C 
ATOM     34  C   UNL     1       8.746  -3.453  17.451  0.00  0.00    +0.000 C 
BRANCH  33  38
ATOM     35  O   UNL     1       4.401   0.187  19.368  0.00  0.00    +0.000 OA
ATOM     36  C   UNL     1       6.119  -1.557  15.804  0.00  0.00    +0.000 C 
ATOM     37  C   UNL     1       4.998  -0.650  15.987  0.00  0.00    +0.000 C 
ATOM     38  C   UNL     1       6.656  -1.834  17.231  0.00  0.00    +0.000 C 
ATOM     39  C   UNL     1       4.340  -0.019  17.038  0.00  0.00    +0.000 C 
ATOM     40  C   UNL     1       7.228  -0.873  14.970  0.00  0.00    +0.000 C 
ATOM     41  C   UNL     1       5.636  -2.880  15.170  0.00  0.00    +0.000 C 
ATOM     42  C   UNL     1       6.106  -1.276  18.350  0.00  0.00    +0.000 C 
ATOM     43  C   UNL     1       4.902  -0.319  18.372  0.00  0.00    +0.000 C 
ATOM     44  C   UNL     1       6.724  -1.603  19.716  0.00  0.00    +0.000 C 
BRANCH  39  45
ATOM     45  O   UNL     1       3.269   0.813  16.855  0.00  0.00    +0.000 OA
ATOM     46  H   UNL     1       2.813   0.982  17.706  0.00  0.00    +0.000 HD
ENDBRANCH  39  45
ENDBRANCH  33  38
ENDBRANCH  31  34
ENDBRANCH  30  31
ENDBRANCH  28  30
ENDBRANCH  26  29
ENDBRANCH  25  26
ENDBRANCH   1  25
TORSDOF 16
ENDMDL
MODEL 6
REMARK VINA RESULT:      -5.9     29.124     32.484
REMARK  Name = 5281224_Astaxanthin.pdbqt.pdb
REMARK  16 active torsions:
REMARK  status: ('A' for Active; 'I' for Inactive)
REMARK    1  A    between atoms: C_1  and  C_5
REMARK    2  A    between atoms: C_2  and  C_27
REMARK    3  A    between atoms: C_3  and  C_5
REMARK    4  A    between atoms: C_3  and  C_7
REMARK    5  A    between atoms: C_6  and  C_10
REMARK    6  A    between atoms: C_8  and  C_10
REMARK    7  A    between atoms: C_8  and  C_12
REMARK    8  A    between atoms: C_11  and  C_16
REMARK    9  A    between atoms: C_17  and  O_23
REMARK   10  A    between atoms: C_25  and  C_27
REMARK   11  A    between atoms: C_25  and  C_29
REMARK   12  A    between atoms: C_28  and  C_32
REMARK   13  A    between atoms: C_30  and  C_32
REMARK   14  A    between atoms: C_30  and  C_34
REMARK   15  A    between atoms: C_33  and  C_38
REMARK   16  A    between atoms: C_39  and  O_45
REMARK                            x       y       z     vdW  Elec       q    Type
REMARK                         _______ _______ _______ _____ _____    ______ ____
ROOT
ATOM      1  C   UNL     1      21.252  33.596  12.748  0.00  0.00    +0.000 C 
ATOM      2  C   UNL     1      20.719  33.128  11.780  0.00  0.00    +0.000 C 
ENDROOT
BRANCH   2   3
ATOM      3  C   UNL     1      20.030  32.529  10.547  0.00  0.00    +0.000 C 
BRANCH   3   4
ATOM      4  C   UNL     1      19.454  32.024   9.502  0.00  0.00    +0.000 C 
ATOM      5  C   UNL     1      17.993  32.265   9.265  0.00  0.00    +0.000 C 
BRANCH   4   7
ATOM      6  C   UNL     1      20.798  30.468   7.886  0.00  0.00    +0.000 C 
ATOM      7  C   UNL     1      20.183  31.182   8.629  0.00  0.00    +0.000 C 
BRANCH   6   8
ATOM      8  C   UNL     1      21.582  29.556   6.935  0.00  0.00    +0.000 C 
BRANCH   8   9
ATOM      9  C   UNL     1      22.251  28.784   6.135  0.00  0.00    +0.000 C 
ATOM     10  C   UNL     1      23.633  28.339   6.508  0.00  0.00    +0.000 C 
BRANCH   9  12
ATOM     11  C   UNL     1      21.065  27.776   4.028  0.00  0.00    +0.000 C 
ATOM     12  C   UNL     1      21.619  28.242   4.989  0.00  0.00    +0.000 C 
BRANCH  11  16
ATOM     13  O   UNL     1      20.817  24.473   0.416  0.00  0.00    +0.000 OA
ATOM     14  C   UNL     1      19.041  27.849   2.451  0.00  0.00    +0.000 C 
ATOM     15  C   UNL     1      18.603  27.082   1.298  0.00  0.00    +0.000 C 
ATOM     16  C   UNL     1      20.385  27.206   2.881  0.00  0.00    +0.000 C 
ATOM     17  C   UNL     1      19.050  26.003   0.543  0.00  0.00    +0.000 C 
ATOM     18  C   UNL     1      18.021  27.709   3.605  0.00  0.00    +0.000 C 
ATOM     19  C   UNL     1      19.281  29.323   2.052  0.00  0.00    +0.000 C 
ATOM     20  C   UNL     1      20.935  26.139   2.231  0.00  0.00    +0.000 C 
ATOM     21  C   UNL     1      20.334  25.430   1.005  0.00  0.00    +0.000 C 
ATOM     22  C   UNL     1      22.262  25.566   2.747  0.00  0.00    +0.000 C 
BRANCH  17  23
ATOM     23  O   UNL     1      18.362  25.505  -0.531  0.00  0.00    +0.000 OA
ATOM     24  H   UNL     1      17.476  25.915  -0.595  0.00  0.00    +0.000 HD
ENDBRANCH  17  23
ENDBRANCH  11  16
ENDBRANCH   9  12
ENDBRANCH   8   9
ENDBRANCH   6   8
ENDBRANCH   4   7
ENDBRANCH   3   4
ENDBRANCH   2   3
BRANCH   1  25
ATOM     25  C   UNL     1      21.924  34.193  13.990  0.00  0.00    +0.000 C 
BRANCH  25  26
ATOM     26  C   UNL     1      22.488  34.697  15.042  0.00  0.00    +0.000 C 
ATOM     27  C   UNL     1      21.825  35.823  15.777  0.00  0.00    +0.000 C 
BRANCH  26  29
ATOM     28  C   UNL     1      24.851  33.862  15.790  0.00  0.00    +0.000 C 
ATOM     29  C   UNL     1      23.766  34.244  15.446  0.00  0.00    +0.000 C 
BRANCH  28  30
ATOM     30  C   UNL     1      26.239  33.378  16.229  0.00  0.00    +0.000 C 
BRANCH  30  31
ATOM     31  C   UNL     1      27.408  32.967  16.607  0.00  0.00    +0.000 C 
ATOM     32  C   UNL     1      28.009  33.487  17.878  0.00  0.00    +0.000 C 
BRANCH  31  34
ATOM     33  C   UNL     1      28.569  31.019  15.294  0.00  0.00    +0.000 C 
ATOM     34  C   UNL     1      28.044  31.912  15.906  0.00  0.00    +0.000 C 
BRANCH  33  38
ATOM     35  O   UNL     1      29.850  28.973  11.029  0.00  0.00    +0.000 OA
ATOM     36  C   UNL     1      29.810  28.773  15.349  0.00  0.00    +0.000 C 
ATOM     37  C   UNL     1      30.345  27.864  14.349  0.00  0.00    +0.000 C 
ATOM     38  C   UNL     1      29.188  29.943  14.544  0.00  0.00    +0.000 C 
ATOM     39  C   UNL     1      30.433  27.788  12.962  0.00  0.00    +0.000 C 
ATOM     40  C   UNL     1      30.951  29.320  16.237  0.00  0.00    +0.000 C 
ATOM     41  C   UNL     1      28.707  28.071  16.171  0.00  0.00    +0.000 C 
ATOM     42  C   UNL     1      29.208  29.996  13.180  0.00  0.00    +0.000 C 
ATOM     43  C   UNL     1      29.825  28.936  12.253  0.00  0.00    +0.000 C 
ATOM     44  C   UNL     1      28.578  31.208  12.480  0.00  0.00    +0.000 C 
BRANCH  39  45
ATOM     45  O   UNL     1      31.032  26.746  12.308  0.00  0.00    +0.000 OA
ATOM     46  H   UNL     1      30.934  25.915  12.817  0.00  0.00    +0.000 HD
ENDBRANCH  39  45
ENDBRANCH  33  38
ENDBRANCH  31  34
ENDBRANCH  30  31
ENDBRANCH  28  30
ENDBRANCH  26  29
ENDBRANCH  25  26
ENDBRANCH   1  25
TORSDOF 16
ENDMDL
MODEL 7
REMARK VINA RESULT:      -5.8     18.201     21.801
REMARK  Name = 5281224_Astaxanthin.pdbqt.pdb
REMARK  16 active torsions:
REMARK  status: ('A' for Active; 'I' for Inactive)
REMARK    1  A    between atoms: C_1  and  C_5
REMARK    2  A    between atoms: C_2  and  C_27
REMARK    3  A    between atoms: C_3  and  C_5
REMARK    4  A    between atoms: C_3  and  C_7
REMARK    5  A    between atoms: C_6  and  C_10
REMARK    6  A    between atoms: C_8  and  C_10
REMARK    7  A    between atoms: C_8  and  C_12
REMARK    8  A    between atoms: C_11  and  C_16
REMARK    9  A    between atoms: C_17  and  O_23
REMARK   10  A    between atoms: C_25  and  C_27
REMARK   11  A    between atoms: C_25  and  C_29
REMARK   12  A    between atoms: C_28  and  C_32
REMARK   13  A    between atoms: C_30  and  C_32
REMARK   14  A    between atoms: C_30  and  C_34
REMARK   15  A    between atoms: C_33  and  C_38
REMARK   16  A    between atoms: C_39  and  O_45
REMARK                            x       y       z     vdW  Elec       q    Type
REMARK                         _______ _______ _______ _____ _____    ______ ____
ROOT
ATOM      1  C   UNL     1      12.878  -3.316  23.407  0.00  0.00    +0.000 C 
ATOM      2  C   UNL     1      13.077  -2.962  24.536  0.00  0.00    +0.000 C 
ENDROOT
BRANCH   2   3
ATOM      3  C   UNL     1      13.332  -2.518  25.982  0.00  0.00    +0.000 C 
BRANCH   3   4
ATOM      4  C   UNL     1      13.552  -2.147  27.204  0.00  0.00    +0.000 C 
ATOM      5  C   UNL     1      12.604  -2.554  28.292  0.00  0.00    +0.000 C 
BRANCH   4   7
ATOM      6  C   UNL     1      15.563  -0.565  27.750  0.00  0.00    +0.000 C 
ATOM      7  C   UNL     1      14.641  -1.292  27.498  0.00  0.00    +0.000 C 
BRANCH   6   8
ATOM      8  C   UNL     1      16.737   0.365  28.074  0.00  0.00    +0.000 C 
BRANCH   8   9
ATOM      9  C   UNL     1      17.733   1.153  28.340  0.00  0.00    +0.000 C 
ATOM     10  C   UNL     1      17.768   1.901  29.638  0.00  0.00    +0.000 C 
BRANCH   9  12
ATOM     11  C   UNL     1      19.793   1.204  26.723  0.00  0.00    +0.000 C 
ATOM     12  C   UNL     1      18.854   1.187  27.474  0.00  0.00    +0.000 C 
BRANCH  11  16
ATOM     13  O   UNL     1      24.363   2.562  25.584  0.00  0.00    +0.000 OA
ATOM     14  C   UNL     1      20.755   0.457  24.464  0.00  0.00    +0.000 C 
ATOM     15  C   UNL     1      22.018   0.639  23.768  0.00  0.00    +0.000 C 
ATOM     16  C   UNL     1      20.917   1.215  25.807  0.00  0.00    +0.000 C 
ATOM     17  C   UNL     1      23.237   1.273  23.987  0.00  0.00    +0.000 C 
ATOM     18  C   UNL     1      20.518  -1.043  24.756  0.00  0.00    +0.000 C 
ATOM     19  C   UNL     1      19.603   1.088  23.652  0.00  0.00    +0.000 C 
ATOM     20  C   UNL     1      22.062   1.875  26.150  0.00  0.00    +0.000 C 
ATOM     21  C   UNL     1      23.331   1.975  25.286  0.00  0.00    +0.000 C 
ATOM     22  C   UNL     1      22.125   2.582  27.511  0.00  0.00    +0.000 C 
BRANCH  17  23
ATOM     23  O   UNL     1      24.266   1.246  23.084  0.00  0.00    +0.000 OA
ATOM     24  H   UNL     1      24.005   0.760  22.276  0.00  0.00    +0.000 HD
ENDBRANCH  17  23
ENDBRANCH  11  16
ENDBRANCH   9  12
ENDBRANCH   8   9
ENDBRANCH   6   8
ENDBRANCH   4   7
ENDBRANCH   3   4
ENDBRANCH   2   3
BRANCH   1  25
ATOM     25  C   UNL     1      12.624  -3.779  21.968  0.00  0.00    +0.000 C 
BRANCH  25  26
ATOM     26  C   UNL     1      12.414  -4.169  20.750  0.00  0.00    +0.000 C 
ATOM     27  C   UNL     1      11.109  -4.811  20.386  0.00  0.00    +0.000 C 
BRANCH  26  29
ATOM     28  C   UNL     1      14.323  -3.984  18.972  0.00  0.00    +0.000 C 
ATOM     29  C   UNL     1      13.446  -4.070  19.787  0.00  0.00    +0.000 C 
BRANCH  28  30
ATOM     30  C   UNL     1      15.445  -3.871  17.931  0.00  0.00    +0.000 C 
BRANCH  30  31
ATOM     31  C   UNL     1      16.386  -3.774  17.046  0.00  0.00    +0.000 C 
ATOM     32  C   UNL     1      16.275  -4.520  15.751  0.00  0.00    +0.000 C 
BRANCH  31  34
ATOM     33  C   UNL     1      18.334  -2.053  17.377  0.00  0.00    +0.000 C 
ATOM     34  C   UNL     1      17.437  -2.842  17.237  0.00  0.00    +0.000 C 
BRANCH  33  38
ATOM     35  O   UNL     1      21.434   1.232  15.474  0.00  0.00    +0.000 OA
ATOM     36  C   UNL     1      20.015  -0.916  18.949  0.00  0.00    +0.000 C 
ATOM     37  C   UNL     1      21.067   0.074  18.794  0.00  0.00    +0.000 C 
ATOM     38  C   UNL     1      19.422  -1.106  17.529  0.00  0.00    +0.000 C 
ATOM     39  C   UNL     1      21.630   0.834  17.772  0.00  0.00    +0.000 C 
ATOM     40  C   UNL     1      18.912  -0.379  19.890  0.00  0.00    +0.000 C 
ATOM     41  C   UNL     1      20.611  -2.254  19.441  0.00  0.00    +0.000 C 
ATOM     42  C   UNL     1      19.877  -0.421  16.439  0.00  0.00    +0.000 C 
ATOM     43  C   UNL     1      21.018   0.611  16.444  0.00  0.00    +0.000 C 
ATOM     44  C   UNL     1      19.211  -0.671  15.080  0.00  0.00    +0.000 C 
BRANCH  39  45
ATOM     45  O   UNL     1      22.656   1.716  17.976  0.00  0.00    +0.000 OA
ATOM     46  H   UNL     1      22.606   2.459  17.340  0.00  0.00    +0.000 HD
ENDBRANCH  39  45
ENDBRANCH  33  38
ENDBRANCH  31  34
ENDBRANCH  30  31
ENDBRANCH  28  30
ENDBRANCH  26  29
ENDBRANCH  25  26
ENDBRANCH   1  25
TORSDOF 16
ENDMDL
MODEL 8
REMARK VINA RESULT:      -5.8     29.312     32.482
REMARK  Name = 5281224_Astaxanthin.pdbqt.pdb
REMARK  16 active torsions:
REMARK  status: ('A' for Active; 'I' for Inactive)
REMARK    1  A    between atoms: C_1  and  C_5
REMARK    2  A    between atoms: C_2  and  C_27
REMARK    3  A    between atoms: C_3  and  C_5
REMARK    4  A    between atoms: C_3  and  C_7
REMARK    5  A    between atoms: C_6  and  C_10
REMARK    6  A    between atoms: C_8  and  C_10
REMARK    7  A    between atoms: C_8  and  C_12
REMARK    8  A    between atoms: C_11  and  C_16
REMARK    9  A    between atoms: C_17  and  O_23
REMARK   10  A    between atoms: C_25  and  C_27
REMARK   11  A    between atoms: C_25  and  C_29
REMARK   12  A    between atoms: C_28  and  C_32
REMARK   13  A    between atoms: C_30  and  C_32
REMARK   14  A    between atoms: C_30  and  C_34
REMARK   15  A    between atoms: C_33  and  C_38
REMARK   16  A    between atoms: C_39  and  O_45
REMARK                            x       y       z     vdW  Elec       q    Type
REMARK                         _______ _______ _______ _____ _____    ______ ____
ROOT
ATOM      1  C   UNL     1      21.037  33.318  12.119  0.00  0.00    +0.000 C 
ATOM      2  C   UNL     1      20.622  32.722  11.164  0.00  0.00    +0.000 C 
ENDROOT
BRANCH   2   3
ATOM      3  C   UNL     1      20.084  31.957   9.948  0.00  0.00    +0.000 C 
BRANCH   3   4
ATOM      4  C   UNL     1      19.636  31.311   8.918  0.00  0.00    +0.000 C 
ATOM      5  C   UNL     1      18.176  31.364   8.580  0.00  0.00    +0.000 C 
BRANCH   4   7
ATOM      6  C   UNL     1      21.245  29.796   7.519  0.00  0.00    +0.000 C 
ATOM      7  C   UNL     1      20.508  30.492   8.163  0.00  0.00    +0.000 C 
BRANCH   6   8
ATOM      8  C   UNL     1      22.184  28.908   6.694  0.00  0.00    +0.000 C 
BRANCH   8   9
ATOM      9  C   UNL     1      22.985  28.158   6.002  0.00  0.00    +0.000 C 
ATOM     10  C   UNL     1      22.606  27.744   4.613  0.00  0.00    +0.000 C 
BRANCH   9  12
ATOM     11  C   UNL     1      25.365  27.603   6.945  0.00  0.00    +0.000 C 
ATOM     12  C   UNL     1      24.277  27.861   6.502  0.00  0.00    +0.000 C 
BRANCH  11  16
ATOM     13  O   UNL     1      29.818  28.999   8.442  0.00  0.00    +0.000 OA
ATOM     14  C   UNL     1      26.963  25.807   7.846  0.00  0.00    +0.000 C 
ATOM     15  C   UNL     1      28.319  25.799   8.369  0.00  0.00    +0.000 C 
ATOM     16  C   UNL     1      26.669  27.289   7.496  0.00  0.00    +0.000 C 
ATOM     17  C   UNL     1      29.337  26.715   8.614  0.00  0.00    +0.000 C 
ATOM     18  C   UNL     1      25.969  25.339   8.934  0.00  0.00    +0.000 C 
ATOM     19  C   UNL     1      26.880  24.949   6.564  0.00  0.00    +0.000 C 
ATOM     20  C   UNL     1      27.579  28.288   7.690  0.00  0.00    +0.000 C 
ATOM     21  C   UNL     1      28.996  28.111   8.262  0.00  0.00    +0.000 C 
ATOM     22  C   UNL     1      27.184  29.726   7.324  0.00  0.00    +0.000 C 
BRANCH  17  23
ATOM     23  O   UNL     1      30.551  26.360   9.139  0.00  0.00    +0.000 OA
ATOM     24  H   UNL     1      30.939  27.101   9.647  0.00  0.00    +0.000 HD
ENDBRANCH  17  23
ENDBRANCH  11  16
ENDBRANCH   9  12
ENDBRANCH   8   9
ENDBRANCH   6   8
ENDBRANCH   4   7
ENDBRANCH   3   4
ENDBRANCH   2   3
BRANCH   1  25
ATOM     25  C   UNL     1      21.559  34.077  13.345  0.00  0.00    +0.000 C 
BRANCH  25  26
ATOM     26  C   UNL     1      21.996  34.718  14.383  0.00  0.00    +0.000 C 
ATOM     27  C   UNL     1      21.285  35.951  14.854  0.00  0.00    +0.000 C 
BRANCH  26  29
ATOM     28  C   UNL     1      24.205  33.957  15.559  0.00  0.00    +0.000 C 
ATOM     29  C   UNL     1      23.190  34.304  15.019  0.00  0.00    +0.000 C 
BRANCH  28  30
ATOM     30  C   UNL     1      25.502  33.515  16.250  0.00  0.00    +0.000 C 
BRANCH  30  31
ATOM     31  C   UNL     1      26.601  33.143  16.825  0.00  0.00    +0.000 C 
ATOM     32  C   UNL     1      26.812  33.416  18.284  0.00  0.00    +0.000 C 
BRANCH  31  34
ATOM     33  C   UNL     1      28.324  31.652  15.531  0.00  0.00    +0.000 C 
ATOM     34  C   UNL     1      27.530  32.342  16.115  0.00  0.00    +0.000 C 
BRANCH  33  38
ATOM     35  O   UNL     1      30.849  30.470  11.500  0.00  0.00    +0.000 OA
ATOM     36  C   UNL     1      29.951  29.671  15.654  0.00  0.00    +0.000 C 
ATOM     37  C   UNL     1      30.854  29.016  14.722  0.00  0.00    +0.000 C 
ATOM     38  C   UNL     1      29.288  30.815  14.844  0.00  0.00    +0.000 C 
ATOM     39  C   UNL     1      31.242  29.149  13.392  0.00  0.00    +0.000 C 
ATOM     40  C   UNL     1      30.749  30.280  16.831  0.00  0.00    +0.000 C 
ATOM     41  C   UNL     1      28.865  28.680  16.129  0.00  0.00    +0.000 C 
ATOM     42  C   UNL     1      29.581  31.059  13.533  0.00  0.00    +0.000 C 
ATOM     43  C   UNL     1      30.578  30.261  12.676  0.00  0.00    +0.000 C 
ATOM     44  C   UNL     1      28.880  32.227  12.827  0.00  0.00    +0.000 C 
BRANCH  39  45
ATOM     45  O   UNL     1      32.160  28.329  12.797  0.00  0.00    +0.000 OA
ATOM     46  H   UNL     1      31.757  27.466  12.567  0.00  0.00    +0.000 HD
ENDBRANCH  39  45
ENDBRANCH  33  38
ENDBRANCH  31  34
ENDBRANCH  30  31
ENDBRANCH  28  30
ENDBRANCH  26  29
ENDBRANCH  25  26
ENDBRANCH   1  25
TORSDOF 16
ENDMDL
MODEL 9
REMARK VINA RESULT:      -5.7     15.820     21.335
REMARK  Name = 5281224_Astaxanthin.pdbqt.pdb
REMARK  16 active torsions:
REMARK  status: ('A' for Active; 'I' for Inactive)
REMARK    1  A    between atoms: C_1  and  C_5
REMARK    2  A    between atoms: C_2  and  C_27
REMARK    3  A    between atoms: C_3  and  C_5
REMARK    4  A    between atoms: C_3  and  C_7
REMARK    5  A    between atoms: C_6  and  C_10
REMARK    6  A    between atoms: C_8  and  C_10
REMARK    7  A    between atoms: C_8  and  C_12
REMARK    8  A    between atoms: C_11  and  C_16
REMARK    9  A    between atoms: C_17  and  O_23
REMARK   10  A    between atoms: C_25  and  C_27
REMARK   11  A    between atoms: C_25  and  C_29
REMARK   12  A    between atoms: C_28  and  C_32
REMARK   13  A    between atoms: C_30  and  C_32
REMARK   14  A    between atoms: C_30  and  C_34
REMARK   15  A    between atoms: C_33  and  C_38
REMARK   16  A    between atoms: C_39  and  O_45
REMARK                            x       y       z     vdW  Elec       q    Type
REMARK                         _______ _______ _______ _____ _____    ______ ____
ROOT
ATOM      1  C   UNL     1      23.939  22.254  24.798  0.00  0.00    +0.000 C 
ATOM      2  C   UNL     1      24.468  23.262  24.419  0.00  0.00    +0.000 C 
ENDROOT
BRANCH   2   3
ATOM      3  C   UNL     1      25.147  24.546  23.927  0.00  0.00    +0.000 C 
BRANCH   3   4
ATOM      4  C   UNL     1      25.717  25.631  23.507  0.00  0.00    +0.000 C 
ATOM      5  C   UNL     1      25.192  26.967  23.939  0.00  0.00    +0.000 C 
BRANCH   4   7
ATOM      6  C   UNL     1      27.684  25.497  21.788  0.00  0.00    +0.000 C 
ATOM      7  C   UNL     1      26.782  25.557  22.578  0.00  0.00    +0.000 C 
BRANCH   6   8
ATOM      8  C   UNL     1      28.834  25.422  20.777  0.00  0.00    +0.000 C 
BRANCH   8   9
ATOM      9  C   UNL     1      29.804  25.353  19.918  0.00  0.00    +0.000 C 
ATOM     10  C   UNL     1      31.172  25.834  20.295  0.00  0.00    +0.000 C 
BRANCH   9  12
ATOM     11  C   UNL     1      29.455  24.121  17.633  0.00  0.00    +0.000 C 
ATOM     12  C   UNL     1      29.603  24.686  18.684  0.00  0.00    +0.000 C 
BRANCH  11  16
ATOM     13  O   UNL     1      28.266  20.137  15.037  0.00  0.00    +0.000 OA
ATOM     14  C   UNL     1      29.613  24.246  15.074  0.00  0.00    +0.000 C 
ATOM     15  C   UNL     1      29.363  23.326  13.977  0.00  0.00    +0.000 C 
ATOM     16  C   UNL     1      29.293  23.443  16.361  0.00  0.00    +0.000 C 
ATOM     17  C   UNL     1      28.942  22.011  13.807  0.00  0.00    +0.000 C 
ATOM     18  C   UNL     1      28.656  25.458  14.983  0.00  0.00    +0.000 C 
ATOM     19  C   UNL     1      31.099  24.669  15.087  0.00  0.00    +0.000 C 
ATOM     20  C   UNL     1      28.867  22.146  16.336  0.00  0.00    +0.000 C 
ATOM     21  C   UNL     1      28.649  21.299  15.071  0.00  0.00    +0.000 C 
ATOM     22  C   UNL     1      28.562  21.445  17.667  0.00  0.00    +0.000 C 
BRANCH  17  23
ATOM     23  O   UNL     1      28.804  21.424  12.578  0.00  0.00    +0.000 OA
ATOM     24  H   UNL     1      29.671  21.353  12.128  0.00  0.00    +0.000 HD
ENDBRANCH  17  23
ENDBRANCH  11  16
ENDBRANCH   9  12
ENDBRANCH   8   9
ENDBRANCH   6   8
ENDBRANCH   4   7
ENDBRANCH   3   4
ENDBRANCH   2   3
BRANCH   1  25
ATOM     25  C   UNL     1      23.268  20.961  25.276  0.00  0.00    +0.000 C 
BRANCH  25  26
ATOM     26  C   UNL     1      22.696  19.868  25.676  0.00  0.00    +0.000 C 
ATOM     27  C   UNL     1      22.398  18.777  24.691  0.00  0.00    +0.000 C 
BRANCH  26  29
ATOM     28  C   UNL     1      21.923  19.633  28.163  0.00  0.00    +0.000 C 
ATOM     29  C   UNL     1      22.277  19.740  27.021  0.00  0.00    +0.000 C 
BRANCH  28  30
ATOM     30  C   UNL     1      21.475  19.496  29.624  0.00  0.00    +0.000 C 
BRANCH  30  31
ATOM     31  C   UNL     1      21.097  19.390  30.859  0.00  0.00    +0.000 C 
ATOM     32  C   UNL     1      22.103  19.518  31.963  0.00  0.00    +0.000 C 
BRANCH  31  34
ATOM     33  C   UNL     1      18.549  19.237  31.449  0.00  0.00    +0.000 C 
ATOM     34  C   UNL     1      19.716  19.311  31.168  0.00  0.00    +0.000 C 
BRANCH  33  38
ATOM     35  O   UNL     1      14.258  16.876  31.277  0.00  0.00    +0.000 OA
ATOM     36  C   UNL     1      16.547  20.265  32.683  0.00  0.00    +0.000 C 
ATOM     37  C   UNL     1      15.153  19.900  32.873  0.00  0.00    +0.000 C 
ATOM     38  C   UNL     1      17.147  19.136  31.805  0.00  0.00    +0.000 C 
ATOM     39  C   UNL     1      14.292  18.875  32.495  0.00  0.00    +0.000 C 
ATOM     40  C   UNL     1      17.282  20.291  34.044  0.00  0.00    +0.000 C 
ATOM     41  C   UNL     1      16.649  21.611  31.932  0.00  0.00    +0.000 C 
ATOM     42  C   UNL     1      16.414  18.070  31.368  0.00  0.00    +0.000 C 
ATOM     43  C   UNL     1      14.925  17.828  31.663  0.00  0.00    +0.000 C 
ATOM     44  C   UNL     1      17.108  16.999  30.516  0.00  0.00    +0.000 C 
BRANCH  39  45
ATOM     45  O   UNL     1      12.975  18.832  32.863  0.00  0.00    +0.000 OA
ATOM     46  H   UNL     1      12.486  18.174  32.327  0.00  0.00    +0.000 HD
ENDBRANCH  39  45
ENDBRANCH  33  38
ENDBRANCH  31  34
ENDBRANCH  30  31
ENDBRANCH  28  30
ENDBRANCH  26  29
ENDBRANCH  25  26
ENDBRANCH   1  25
TORSDOF 16
ENDMDL
