MODEL 1
REMARK VINA RESULT:      -6.2      0.000      0.000
REMARK  Name = 5281239_Fucoxanthin.pdbqt.pdb
REMARK  19 active torsions:
REMARK  status: ('A' for Active; 'I' for Inactive)
REMARK    1  A    between atoms: C_1  and  C_5
REMARK    2  A    between atoms: C_2  and  C_26
REMARK    3  A    between atoms: C_3  and  C_5
REMARK    4  A    between atoms: C_3  and  C_7
REMARK    5  A    between atoms: C_6  and  C_10
REMARK    6  A    between atoms: C_8  and  C_10
REMARK    7  A    between atoms: C_8  and  C_12
REMARK    8  A    between atoms: C_12  and  C_13
REMARK    9  A    between atoms: C_13  and  C_15
REMARK   10  A    between atoms: C_20  and  O_24
REMARK   11  A    between atoms: C_26  and  C_27
REMARK   12  A    between atoms: C_27  and  C_30
REMARK   13  A    between atoms: C_29  and  C_33
REMARK   14  A    between atoms: C_31  and  C_33
REMARK   15  A    between atoms: C_31  and  C_44
REMARK   16  A    between atoms: C_35  and  O_45
REMARK   17  A    between atoms: C_37  and  O_47
REMARK   18  A    between atoms: C_39  and  C_43
REMARK   19  A    between atoms: O_47  and  C_49
REMARK                            x       y       z     vdW  Elec       q    Type
REMARK                         _______ _______ _______ _____ _____    ______ ____
ROOT
ATOM      1  C   UNL     1      13.476  33.716  22.922  0.00  0.00    +0.000 C 
ATOM      2  C   UNL     1      14.352  34.098  22.196  0.00  0.00    +0.000 C 
ENDROOT
BRANCH   2   3
ATOM      3  C   UNL     1      15.468  34.583  21.262  0.00  0.00    +0.000 C 
BRANCH   3   4
ATOM      4  C   UNL     1      16.410  34.990  20.471  0.00  0.00    +0.000 C 
ATOM      5  C   UNL     1      17.839  34.936  20.918  0.00  0.00    +0.000 C 
BRANCH   4   7
ATOM      6  C   UNL     1      15.823  35.816  18.058  0.00  0.00    +0.000 C 
ATOM      7  C   UNL     1      16.091  35.437  19.166  0.00  0.00    +0.000 C 
BRANCH   6   8
ATOM      8  C   UNL     1      15.485  36.297  16.643  0.00  0.00    +0.000 C 
BRANCH   8   9
ATOM      9  C   UNL     1      15.209  36.707  15.444  0.00  0.00    +0.000 C 
ATOM     10  C   UNL     1      14.178  37.772  15.230  0.00  0.00    +0.000 C 
BRANCH   9  12
ATOM     11  C   UNL     1      16.304  35.519  13.381  0.00  0.00    +0.000 C 
ATOM     12  C   UNL     1      15.798  36.064  14.327  0.00  0.00    +0.000 C 
BRANCH  11  18
ATOM     13  C   UNL     1      18.379  34.699  12.242  0.00  0.00    +0.000 C 
ATOM     14  C   UNL     1      16.027  34.478  11.154  0.00  0.00    +0.000 C 
ATOM     15  C   UNL     1      18.706  33.767  11.154  0.00  0.00    +0.000 C 
ATOM     16  C   UNL     1      18.063  33.081  10.107  0.00  0.00    +0.000 C 
ATOM     17  C   UNL     1      16.748  33.560  10.280  0.00  0.00    +0.000 C 
ATOM     18  C   UNL     1      16.861  34.926  12.344  0.00  0.00    +0.000 C 
ATOM     19  C   UNL     1      19.067  36.068  11.992  0.00  0.00    +0.000 C 
ATOM     20  C   UNL     1      18.894  34.084  13.579  0.00  0.00    +0.000 C 
ATOM     21  C   UNL     1      15.494  35.685  10.376  0.00  0.00    +0.000 C 
BRANCH  14  22
ATOM     22  O   UNL     1      14.876  33.810  11.620  0.00  0.00    +0.000 OA
ATOM     23  H   UNL     1      14.672  34.317  12.428  0.00  0.00    +0.000 HD
ENDBRANCH  14  22
BRANCH  16  24
ATOM     24  O   UNL     1      18.646  33.069   8.846  0.00  0.00    +0.000 OA
BRANCH  24  26
ATOM     25  O   UNL     1      20.291  31.422   8.548  0.00  0.00    +0.000 OA
ATOM     26  C   UNL     1      19.147  31.837   8.579  0.00  0.00    +0.000 C 
ATOM     27  C   UNL     1      18.113  30.817   8.254  0.00  0.00    +0.000 C 
ENDBRANCH  24  26
ENDBRANCH  16  24
ENDBRANCH  11  18
ENDBRANCH   9  12
ENDBRANCH   8   9
ENDBRANCH   6   8
ENDBRANCH   4   7
ENDBRANCH   3   4
ENDBRANCH   2   3
BRANCH   1  28
ATOM     28  C   UNL     1      12.351  33.226  23.841  0.00  0.00    +0.000 C 
BRANCH  28  29
ATOM     29  C   UNL     1      11.406  32.816  24.626  0.00  0.00    +0.000 C 
ATOM     30  C   UNL     1       9.978  33.141  24.313  0.00  0.00    +0.000 C 
BRANCH  29  32
ATOM     31  C   UNL     1      12.009  31.471  26.788  0.00  0.00    +0.000 C 
ATOM     32  C   UNL     1      11.730  32.094  25.800  0.00  0.00    +0.000 C 
BRANCH  31  33
ATOM     33  C   UNL     1      12.368  30.661  28.040  0.00  0.00    +0.000 C 
BRANCH  33  34
ATOM     34  C   UNL     1      12.676  29.982  29.105  0.00  0.00    +0.000 C 
ATOM     35  C   UNL     1      13.115  30.777  30.317  0.00  0.00    +0.000 C 
BRANCH  34  37
ATOM     36  O   UNL     1      13.623  27.799  29.321  0.00  0.00    +0.000 OA
ATOM     37  C   UNL     1      12.635  28.488  29.088  0.00  0.00    +0.000 C 
BRANCH  37  38
ATOM     38  C   UNL     1      11.410  27.782  28.795  0.00  0.00    +0.000 C 
BRANCH  38  40
ATOM     39  O   UNL     1       9.133  27.987  28.148  0.00  0.00    +0.000 OA
ATOM     40  C   UNL     1      10.183  27.056  28.531  0.00  0.00    +0.000 C 
ATOM     41  C   UNL     1       9.568  27.104  27.116  0.00  0.00    +0.000 C 
ATOM     42  C   UNL     1       9.762  25.877  29.479  0.00  0.00    +0.000 C 
ATOM     43  C   UNL     1       8.583  26.121  26.798  0.00  0.00    +0.000 C 
ATOM     44  C   UNL     1       8.675  25.158  28.811  0.00  0.00    +0.000 C 
ATOM     45  C   UNL     1       8.011  25.095  27.570  0.00  0.00    +0.000 C 
ATOM     46  C   UNL     1      10.236  27.825  25.941  0.00  0.00    +0.000 C 
ATOM     47  C   UNL     1      11.021  24.986  29.614  0.00  0.00    +0.000 C 
ATOM     48  C   UNL     1       9.355  26.533  30.817  0.00  0.00    +0.000 C 
BRANCH  45  49
ATOM     49  O   UNL     1       7.611  23.907  27.038  0.00  0.00    +0.000 OA
ATOM     50  H   UNL     1       8.306  23.227  27.083  0.00  0.00    +0.000 HD
ENDBRANCH  45  49
ENDBRANCH  38  40
ENDBRANCH  37  38
ENDBRANCH  34  37
ENDBRANCH  33  34
ENDBRANCH  31  33
ENDBRANCH  29  32
ENDBRANCH  28  29
ENDBRANCH   1  28
TORSDOF 19
ENDMDL
MODEL 2
REMARK VINA RESULT:      -6.1     16.565     19.579
REMARK  Name = 5281239_Fucoxanthin.pdbqt.pdb
REMARK  19 active torsions:
REMARK  status: ('A' for Active; 'I' for Inactive)
REMARK    1  A    between atoms: C_1  and  C_5
REMARK    2  A    between atoms: C_2  and  C_26
REMARK    3  A    between atoms: C_3  and  C_5
REMARK    4  A    between atoms: C_3  and  C_7
REMARK    5  A    between atoms: C_6  and  C_10
REMARK    6  A    between atoms: C_8  and  C_10
REMARK    7  A    between atoms: C_8  and  C_12
REMARK    8  A    between atoms: C_12  and  C_13
REMARK    9  A    between atoms: C_13  and  C_15
REMARK   10  A    between atoms: C_20  and  O_24
REMARK   11  A    between atoms: C_26  and  C_27
REMARK   12  A    between atoms: C_27  and  C_30
REMARK   13  A    between atoms: C_29  and  C_33
REMARK   14  A    between atoms: C_31  and  C_33
REMARK   15  A    between atoms: C_31  and  C_44
REMARK   16  A    between atoms: C_35  and  O_45
REMARK   17  A    between atoms: C_37  and  O_47
REMARK   18  A    between atoms: C_39  and  C_43
REMARK   19  A    between atoms: O_47  and  C_49
REMARK                            x       y       z     vdW  Elec       q    Type
REMARK                         _______ _______ _______ _____ _____    ______ ____
ROOT
ATOM      1  C   UNL     1      20.718  17.710  29.348  0.00  0.00    +0.000 C 
ATOM      2  C   UNL     1      21.423  17.763  28.378  0.00  0.00    +0.000 C 
ENDROOT
BRANCH   2   3
ATOM      3  C   UNL     1      22.324  17.824  27.139  0.00  0.00    +0.000 C 
BRANCH   3   4
ATOM      4  C   UNL     1      23.086  17.879  26.092  0.00  0.00    +0.000 C 
ATOM      5  C   UNL     1      22.972  19.034  25.144  0.00  0.00    +0.000 C 
BRANCH   4   7
ATOM      6  C   UNL     1      24.887  16.024  25.687  0.00  0.00    +0.000 C 
ATOM      7  C   UNL     1      24.059  16.875  25.874  0.00  0.00    +0.000 C 
BRANCH   6   8
ATOM      8  C   UNL     1      25.947  14.943  25.449  0.00  0.00    +0.000 C 
BRANCH   8   9
ATOM      9  C   UNL     1      26.848  14.031  25.255  0.00  0.00    +0.000 C 
ATOM     10  C   UNL     1      27.398  13.257  26.414  0.00  0.00    +0.000 C 
BRANCH   9  12
ATOM     11  C   UNL     1      27.860  13.689  22.863  0.00  0.00    +0.000 C 
ATOM     12  C   UNL     1      27.398  13.847  23.962  0.00  0.00    +0.000 C 
BRANCH  11  18
ATOM     13  C   UNL     1      28.475  12.120  21.009  0.00  0.00    +0.000 C 
ATOM     14  C   UNL     1      28.925  14.678  20.861  0.00  0.00    +0.000 C 
ATOM     15  C   UNL     1      28.786  12.225  19.576  0.00  0.00    +0.000 C 
ATOM     16  C   UNL     1      29.109  13.210  18.623  0.00  0.00    +0.000 C 
ATOM     17  C   UNL     1      29.121  14.350  19.454  0.00  0.00    +0.000 C 
ATOM     18  C   UNL     1      28.365  13.511  21.658  0.00  0.00    +0.000 C 
ATOM     19  C   UNL     1      29.590  11.322  21.736  0.00  0.00    +0.000 C 
ATOM     20  C   UNL     1      27.112  11.379  21.155  0.00  0.00    +0.000 C 
ATOM     21  C   UNL     1      30.215  15.205  21.496  0.00  0.00    +0.000 C 
BRANCH  14  22
ATOM     22  O   UNL     1      28.021  15.759  20.926  0.00  0.00    +0.000 OA
ATOM     23  H   UNL     1      27.622  15.731  20.037  0.00  0.00    +0.000 HD
ENDBRANCH  14  22
BRANCH  16  24
ATOM     24  O   UNL     1      30.150  12.976  17.734  0.00  0.00    +0.000 OA
BRANCH  24  26
ATOM     25  O   UNL     1      30.480  14.400  15.898  0.00  0.00    +0.000 OA
ATOM     26  C   UNL     1      29.878  13.557  16.539  0.00  0.00    +0.000 C 
ATOM     27  C   UNL     1      28.615  13.089  15.908  0.00  0.00    +0.000 C 
ENDBRANCH  24  26
ENDBRANCH  16  24
ENDBRANCH  11  18
ENDBRANCH   9  12
ENDBRANCH   8   9
ENDBRANCH   6   8
ENDBRANCH   4   7
ENDBRANCH   3   4
ENDBRANCH   2   3
BRANCH   1  28
ATOM     28  C   UNL     1      19.819  17.631  30.587  0.00  0.00    +0.000 C 
BRANCH  28  29
ATOM     29  C   UNL     1      19.050  17.568  31.627  0.00  0.00    +0.000 C 
ATOM     30  C   UNL     1      19.506  16.836  32.853  0.00  0.00    +0.000 C 
BRANCH  29  32
ATOM     31  C   UNL     1      16.672  18.657  31.542  0.00  0.00    +0.000 C 
ATOM     32  C   UNL     1      17.764  18.158  31.589  0.00  0.00    +0.000 C 
BRANCH  31  33
ATOM     33  C   UNL     1      15.279  19.291  31.467  0.00  0.00    +0.000 C 
BRANCH  33  34
ATOM     34  C   UNL     1      14.093  19.821  31.402  0.00  0.00    +0.000 C 
ATOM     35  C   UNL     1      13.596  20.535  32.642  0.00  0.00    +0.000 C 
BRANCH  34  37
ATOM     36  O   UNL     1      13.461  20.351  29.159  0.00  0.00    +0.000 OA
ATOM     37  C   UNL     1      13.266  19.675  30.165  0.00  0.00    +0.000 C 
BRANCH  37  38
ATOM     38  C   UNL     1      12.189  18.716  30.100  0.00  0.00    +0.000 C 
BRANCH  38  40
ATOM     39  O   UNL     1      10.984  17.296  28.625  0.00  0.00    +0.000 OA
ATOM     40  C   UNL     1      11.112  17.750  30.001  0.00  0.00    +0.000 C 
ATOM     41  C   UNL     1      11.432  16.308  29.552  0.00  0.00    +0.000 C 
ATOM     42  C   UNL     1       9.773  18.000  30.784  0.00  0.00    +0.000 C 
ATOM     43  C   UNL     1      10.440  15.312  29.799  0.00  0.00    +0.000 C 
ATOM     44  C   UNL     1       9.012  16.749  30.739  0.00  0.00    +0.000 C 
ATOM     45  C   UNL     1       9.155  15.400  30.362  0.00  0.00    +0.000 C 
ATOM     46  C   UNL     1      12.856  15.819  29.277  0.00  0.00    +0.000 C 
ATOM     47  C   UNL     1      10.199  18.342  32.232  0.00  0.00    +0.000 C 
ATOM     48  C   UNL     1       9.082  19.185  30.075  0.00  0.00    +0.000 C 
BRANCH  45  49
ATOM     49  O   UNL     1       8.602  14.395  31.096  0.00  0.00    +0.000 OA
ATOM     50  H   UNL     1       7.664  14.248  30.878  0.00  0.00    +0.000 HD
ENDBRANCH  45  49
ENDBRANCH  38  40
ENDBRANCH  37  38
ENDBRANCH  34  37
ENDBRANCH  33  34
ENDBRANCH  31  33
ENDBRANCH  29  32
ENDBRANCH  28  29
ENDBRANCH   1  28
TORSDOF 19
ENDMDL
MODEL 3
REMARK VINA RESULT:      -6.1     19.426     26.606
REMARK  Name = 5281239_Fucoxanthin.pdbqt.pdb
REMARK  19 active torsions:
REMARK  status: ('A' for Active; 'I' for Inactive)
REMARK    1  A    between atoms: C_1  and  C_5
REMARK    2  A    between atoms: C_2  and  C_26
REMARK    3  A    between atoms: C_3  and  C_5
REMARK    4  A    between atoms: C_3  and  C_7
REMARK    5  A    between atoms: C_6  and  C_10
REMARK    6  A    between atoms: C_8  and  C_10
REMARK    7  A    between atoms: C_8  and  C_12
REMARK    8  A    between atoms: C_12  and  C_13
REMARK    9  A    between atoms: C_13  and  C_15
REMARK   10  A    between atoms: C_20  and  O_24
REMARK   11  A    between atoms: C_26  and  C_27
REMARK   12  A    between atoms: C_27  and  C_30
REMARK   13  A    between atoms: C_29  and  C_33
REMARK   14  A    between atoms: C_31  and  C_33
REMARK   15  A    between atoms: C_31  and  C_44
REMARK   16  A    between atoms: C_35  and  O_45
REMARK   17  A    between atoms: C_37  and  O_47
REMARK   18  A    between atoms: C_39  and  C_43
REMARK   19  A    between atoms: O_47  and  C_49
REMARK                            x       y       z     vdW  Elec       q    Type
REMARK                         _______ _______ _______ _____ _____    ______ ____
ROOT
ATOM      1  C   UNL     1      28.686  11.284  18.437  0.00  0.00    +0.000 C 
ATOM      2  C   UNL     1      28.400  10.363  19.151  0.00  0.00    +0.000 C 
ENDROOT
BRANCH   2   3
ATOM      3  C   UNL     1      28.035   9.191  20.070  0.00  0.00    +0.000 C 
BRANCH   3   4
ATOM      4  C   UNL     1      27.730   8.199  20.847  0.00  0.00    +0.000 C 
ATOM      5  C   UNL     1      28.243   6.825  20.540  0.00  0.00    +0.000 C 
BRANCH   4   7
ATOM      6  C   UNL     1      26.298   8.619  22.996  0.00  0.00    +0.000 C 
ATOM      7  C   UNL     1      26.957   8.425  22.010  0.00  0.00    +0.000 C 
BRANCH   6   8
ATOM      8  C   UNL     1      25.454   8.867  24.251  0.00  0.00    +0.000 C 
BRANCH   8   9
ATOM      9  C   UNL     1      24.735   9.068  25.310  0.00  0.00    +0.000 C 
ATOM     10  C   UNL     1      24.122   7.910  26.036  0.00  0.00    +0.000 C 
BRANCH   9  12
ATOM     11  C   UNL     1      24.169  11.516  26.055  0.00  0.00    +0.000 C 
ATOM     12  C   UNL     1      24.432  10.392  25.715  0.00  0.00    +0.000 C 
BRANCH  11  18
ATOM     13  C   UNL     1      24.697  13.963  25.943  0.00  0.00    +0.000 C 
ATOM     14  C   UNL     1      22.753  13.034  27.400  0.00  0.00    +0.000 C 
ATOM     15  C   UNL     1      24.004  15.223  26.245  0.00  0.00    +0.000 C 
ATOM     16  C   UNL     1      22.858  15.673  26.929  0.00  0.00    +0.000 C 
ATOM     17  C   UNL     1      22.376  14.443  27.421  0.00  0.00    +0.000 C 
ATOM     18  C   UNL     1      23.883  12.749  26.424  0.00  0.00    +0.000 C 
ATOM     19  C   UNL     1      26.082  13.938  26.643  0.00  0.00    +0.000 C 
ATOM     20  C   UNL     1      24.883  13.872  24.397  0.00  0.00    +0.000 C 
ATOM     21  C   UNL     1      23.103  12.529  28.803  0.00  0.00    +0.000 C 
BRANCH  14  22
ATOM     22  O   UNL     1      21.615  12.293  27.021  0.00  0.00    +0.000 OA
ATOM     23  H   UNL     1      21.999  11.661  26.385  0.00  0.00    +0.000 HD
ENDBRANCH  14  22
BRANCH  16  24
ATOM     24  O   UNL     1      22.960  16.775  27.767  0.00  0.00    +0.000 OA
BRANCH  24  26
ATOM     25  O   UNL     1      21.138  18.130  27.174  0.00  0.00    +0.000 OA
ATOM     26  C   UNL     1      22.319  17.836  27.217  0.00  0.00    +0.000 C 
ATOM     27  C   UNL     1      23.220  18.806  26.537  0.00  0.00    +0.000 C 
ENDBRANCH  24  26
ENDBRANCH  16  24
ENDBRANCH  11  18
ENDBRANCH   9  12
ENDBRANCH   8   9
ENDBRANCH   6   8
ENDBRANCH   4   7
ENDBRANCH   3   4
ENDBRANCH   2   3
BRANCH   1  28
ATOM     28  C   UNL     1      29.051  12.467  17.532  0.00  0.00    +0.000 C 
BRANCH  28  29
ATOM     29  C   UNL     1      29.353  13.462  16.760  0.00  0.00    +0.000 C 
ATOM     30  C   UNL     1      29.688  13.218  15.320  0.00  0.00    +0.000 C 
BRANCH  29  32
ATOM     31  C   UNL     1      29.431  15.886  17.739  0.00  0.00    +0.000 C 
ATOM     32  C   UNL     1      29.403  14.773  17.289  0.00  0.00    +0.000 C 
BRANCH  31  33
ATOM     33  C   UNL     1      29.451  17.307  18.316  0.00  0.00    +0.000 C 
BRANCH  33  34
ATOM     34  C   UNL     1      29.459  18.511  18.806  0.00  0.00    +0.000 C 
ATOM     35  C   UNL     1      29.057  18.658  20.260  0.00  0.00    +0.000 C 
BRANCH  34  37
ATOM     36  O   UNL     1      30.178  20.754  18.402  0.00  0.00    +0.000 OA
ATOM     37  C   UNL     1      29.807  19.679  17.940  0.00  0.00    +0.000 C 
BRANCH  37  38
ATOM     38  C   UNL     1      29.724  19.588  16.502  0.00  0.00    +0.000 C 
BRANCH  38  40
ATOM     39  O   UNL     1      28.440  20.253  14.617  0.00  0.00    +0.000 OA
ATOM     40  C   UNL     1      29.606  19.505  15.059  0.00  0.00    +0.000 C 
ATOM     41  C   UNL     1      29.697  20.797  14.219  0.00  0.00    +0.000 C 
ATOM     42  C   UNL     1      29.875  18.135  14.339  0.00  0.00    +0.000 C 
ATOM     43  C   UNL     1      29.928  20.649  12.818  0.00  0.00    +0.000 C 
ATOM     44  C   UNL     1      29.977  18.418  12.905  0.00  0.00    +0.000 C 
ATOM     45  C   UNL     1      30.057  19.505  12.012  0.00  0.00    +0.000 C 
ATOM     46  C   UNL     1      29.985  22.170  14.832  0.00  0.00    +0.000 C 
ATOM     47  C   UNL     1      31.223  17.628  14.905  0.00  0.00    +0.000 C 
ATOM     48  C   UNL     1      28.692  17.217  14.718  0.00  0.00    +0.000 C 
BRANCH  45  49
ATOM     49  O   UNL     1      30.861  19.464  10.914  0.00  0.00    +0.000 OA
ATOM     50  H   UNL     1      31.806  19.445  11.145  0.00  0.00    +0.000 HD
ENDBRANCH  45  49
ENDBRANCH  38  40
ENDBRANCH  37  38
ENDBRANCH  34  37
ENDBRANCH  33  34
ENDBRANCH  31  33
ENDBRANCH  29  32
ENDBRANCH  28  29
ENDBRANCH   1  28
TORSDOF 19
ENDMDL
MODEL 4
REMARK VINA RESULT:      -5.9     16.854     22.515
REMARK  Name = 5281239_Fucoxanthin.pdbqt.pdb
REMARK  19 active torsions:
REMARK  status: ('A' for Active; 'I' for Inactive)
REMARK    1  A    between atoms: C_1  and  C_5
REMARK    2  A    between atoms: C_2  and  C_26
REMARK    3  A    between atoms: C_3  and  C_5
REMARK    4  A    between atoms: C_3  and  C_7
REMARK    5  A    between atoms: C_6  and  C_10
REMARK    6  A    between atoms: C_8  and  C_10
REMARK    7  A    between atoms: C_8  and  C_12
REMARK    8  A    between atoms: C_12  and  C_13
REMARK    9  A    between atoms: C_13  and  C_15
REMARK   10  A    between atoms: C_20  and  O_24
REMARK   11  A    between atoms: C_26  and  C_27
REMARK   12  A    between atoms: C_27  and  C_30
REMARK   13  A    between atoms: C_29  and  C_33
REMARK   14  A    between atoms: C_31  and  C_33
REMARK   15  A    between atoms: C_31  and  C_44
REMARK   16  A    between atoms: C_35  and  O_45
REMARK   17  A    between atoms: C_37  and  O_47
REMARK   18  A    between atoms: C_39  and  C_43
REMARK   19  A    between atoms: O_47  and  C_49
REMARK                            x       y       z     vdW  Elec       q    Type
REMARK                         _______ _______ _______ _____ _____    ______ ____
ROOT
ATOM      1  C   UNL     1      -3.580  14.012  17.113  0.00  0.00    +0.000 C 
ATOM      2  C   UNL     1      -4.054  15.112  17.055  0.00  0.00    +0.000 C 
ENDROOT
BRANCH   2   3
ATOM      3  C   UNL     1      -4.653  16.522  16.980  0.00  0.00    +0.000 C 
BRANCH   3   4
ATOM      4  C   UNL     1      -5.162  17.712  16.918  0.00  0.00    +0.000 C 
ATOM      5  C   UNL     1      -6.186  18.140  17.925  0.00  0.00    +0.000 C 
BRANCH   4   7
ATOM      6  C   UNL     1      -4.337  19.394  15.092  0.00  0.00    +0.000 C 
ATOM      7  C   UNL     1      -4.714  18.621  15.930  0.00  0.00    +0.000 C 
BRANCH   6   8
ATOM      8  C   UNL     1      -3.855  20.385  14.026  0.00  0.00    +0.000 C 
BRANCH   8   9
ATOM      9  C   UNL     1      -3.446  21.230  13.132  0.00  0.00    +0.000 C 
ATOM     10  C   UNL     1      -3.308  20.808  11.702  0.00  0.00    +0.000 C 
BRANCH   9  12
ATOM     11  C   UNL     1      -2.647  23.617  13.863  0.00  0.00    +0.000 C 
ATOM     12  C   UNL     1      -3.017  22.522  13.528  0.00  0.00    +0.000 C 
BRANCH  11  18
ATOM     13  C   UNL     1      -2.702  25.472  15.546  0.00  0.00    +0.000 C 
ATOM     14  C   UNL     1      -1.325  25.643  13.346  0.00  0.00    +0.000 C 
ATOM     15  C   UNL     1      -1.885  26.651  15.867  0.00  0.00    +0.000 C 
ATOM     16  C   UNL     1      -0.861  27.428  15.294  0.00  0.00    +0.000 C 
ATOM     17  C   UNL     1      -0.723  26.764  14.057  0.00  0.00    +0.000 C 
ATOM     18  C   UNL     1      -2.240  24.814  14.234  0.00  0.00    +0.000 C 
ATOM     19  C   UNL     1      -4.191  25.883  15.396  0.00  0.00    +0.000 C 
ATOM     20  C   UNL     1      -2.551  24.447  16.711  0.00  0.00    +0.000 C 
ATOM     21  C   UNL     1      -2.062  26.110  12.088  0.00  0.00    +0.000 C 
BRANCH  14  22
ATOM     22  O   UNL     1      -0.278  24.826  12.871  0.00  0.00    +0.000 OA
ATOM     23  H   UNL     1       0.451  25.469  12.798  0.00  0.00    +0.000 HD
ENDBRANCH  14  22
BRANCH  16  24
ATOM     24  O   UNL     1      -0.954  28.812  15.342  0.00  0.00    +0.000 OA
BRANCH  24  26
ATOM     25  O   UNL     1       0.503  29.291  17.119  0.00  0.00    +0.000 OA
ATOM     26  C   UNL     1       0.139  29.329  15.958  0.00  0.00    +0.000 C 
ATOM     27  C   UNL     1       1.046  30.086  15.053  0.00  0.00    +0.000 C 
ENDBRANCH  24  26
ENDBRANCH  16  24
ENDBRANCH  11  18
ENDBRANCH   9  12
ENDBRANCH   8   9
ENDBRANCH   6   8
ENDBRANCH   4   7
ENDBRANCH   3   4
ENDBRANCH   2   3
BRANCH   1  28
ATOM     28  C   UNL     1      -2.964  12.609  17.187  0.00  0.00    +0.000 C 
BRANCH  28  29
ATOM     29  C   UNL     1      -2.434  11.429  17.247  0.00  0.00    +0.000 C 
ATOM     30  C   UNL     1      -2.496  10.518  16.058  0.00  0.00    +0.000 C 
BRANCH  29  32
ATOM     31  C   UNL     1      -1.330  10.623  19.477  0.00  0.00    +0.000 C 
ATOM     32  C   UNL     1      -1.832  10.988  18.449  0.00  0.00    +0.000 C 
BRANCH  31  33
ATOM     33  C   UNL     1      -0.698  10.166  20.798  0.00  0.00    +0.000 C 
BRANCH  33  34
ATOM     34  C   UNL     1      -0.170   9.783  21.922  0.00  0.00    +0.000 C 
ATOM     35  C   UNL     1       0.135   8.306  22.065  0.00  0.00    +0.000 C 
BRANCH  34  37
ATOM     36  O   UNL     1       0.566  10.448  24.096  0.00  0.00    +0.000 OA
ATOM     37  C   UNL     1       0.071  10.769  23.020  0.00  0.00    +0.000 C 
BRANCH  37  38
ATOM     38  C   UNL     1      -0.272  12.162  22.856  0.00  0.00    +0.000 C 
BRANCH  38  40
ATOM     39  O   UNL     1      -1.358  13.999  23.901  0.00  0.00    +0.000 OA
ATOM     40  C   UNL     1      -0.644  13.556  22.714  0.00  0.00    +0.000 C 
ATOM     41  C   UNL     1      -0.076  14.593  23.706  0.00  0.00    +0.000 C 
ATOM     42  C   UNL     1      -1.188  14.075  21.334  0.00  0.00    +0.000 C 
ATOM     43  C   UNL     1      -0.171  15.969  23.338  0.00  0.00    +0.000 C 
ATOM     44  C   UNL     1      -1.192  15.538  21.399  0.00  0.00    +0.000 C 
ATOM     45  C   UNL     1      -0.740  16.594  22.215  0.00  0.00    +0.000 C 
ATOM     46  C   UNL     1       0.933  14.233  24.800  0.00  0.00    +0.000 C 
ATOM     47  C   UNL     1      -0.181  13.565  20.275  0.00  0.00    +0.000 C 
ATOM     48  C   UNL     1      -2.590  13.447  21.168  0.00  0.00    +0.000 C 
BRANCH  45  49
ATOM     49  O   UNL     1      -0.243  17.743  21.679  0.00  0.00    +0.000 OA
ATOM     50  H   UNL     1       0.430  18.157  22.248  0.00  0.00    +0.000 HD
ENDBRANCH  45  49
ENDBRANCH  38  40
ENDBRANCH  37  38
ENDBRANCH  34  37
ENDBRANCH  33  34
ENDBRANCH  31  33
ENDBRANCH  29  32
ENDBRANCH  28  29
ENDBRANCH   1  28
TORSDOF 19
ENDMDL
MODEL 5
REMARK VINA RESULT:      -5.8     20.402     26.115
REMARK  Name = 5281239_Fucoxanthin.pdbqt.pdb
REMARK  19 active torsions:
REMARK  status: ('A' for Active; 'I' for Inactive)
REMARK    1  A    between atoms: C_1  and  C_5
REMARK    2  A    between atoms: C_2  and  C_26
REMARK    3  A    between atoms: C_3  and  C_5
REMARK    4  A    between atoms: C_3  and  C_7
REMARK    5  A    between atoms: C_6  and  C_10
REMARK    6  A    between atoms: C_8  and  C_10
REMARK    7  A    between atoms: C_8  and  C_12
REMARK    8  A    between atoms: C_12  and  C_13
REMARK    9  A    between atoms: C_13  and  C_15
REMARK   10  A    between atoms: C_20  and  O_24
REMARK   11  A    between atoms: C_26  and  C_27
REMARK   12  A    between atoms: C_27  and  C_30
REMARK   13  A    between atoms: C_29  and  C_33
REMARK   14  A    between atoms: C_31  and  C_33
REMARK   15  A    between atoms: C_31  and  C_44
REMARK   16  A    between atoms: C_35  and  O_45
REMARK   17  A    between atoms: C_37  and  O_47
REMARK   18  A    between atoms: C_39  and  C_43
REMARK   19  A    between atoms: O_47  and  C_49
REMARK                            x       y       z     vdW  Elec       q    Type
REMARK                         _______ _______ _______ _____ _____    ______ ____
ROOT
ATOM      1  C   UNL     1      28.711  10.936  18.503  0.00  0.00    +0.000 C 
ATOM      2  C   UNL     1      28.549  10.156  19.401  0.00  0.00    +0.000 C 
ENDROOT
BRANCH   2   3
ATOM      3  C   UNL     1      28.344   9.166  20.554  0.00  0.00    +0.000 C 
BRANCH   3   4
ATOM      4  C   UNL     1      28.175   8.329  21.529  0.00  0.00    +0.000 C 
ATOM      5  C   UNL     1      29.010   7.087  21.602  0.00  0.00    +0.000 C 
BRANCH   4   7
ATOM      6  C   UNL     1      26.442   8.861  23.415  0.00  0.00    +0.000 C 
ATOM      7  C   UNL     1      27.238   8.616  22.550  0.00  0.00    +0.000 C 
BRANCH   6   8
ATOM      8  C   UNL     1      25.421   9.175  24.515  0.00  0.00    +0.000 C 
BRANCH   8   9
ATOM      9  C   UNL     1      24.552   9.433  25.442  0.00  0.00    +0.000 C 
ATOM     10  C   UNL     1      23.739   8.328  26.042  0.00  0.00    +0.000 C 
BRANCH   9  12
ATOM     11  C   UNL     1      24.059  11.919  26.108  0.00  0.00    +0.000 C 
ATOM     12  C   UNL     1      24.288  10.778  25.804  0.00  0.00    +0.000 C 
BRANCH  11  18
ATOM     13  C   UNL     1      24.675  14.342  25.937  0.00  0.00    +0.000 C 
ATOM     14  C   UNL     1      22.673  13.524  27.383  0.00  0.00    +0.000 C 
ATOM     15  C   UNL     1      24.022  15.633  26.192  0.00  0.00    +0.000 C 
ATOM     16  C   UNL     1      22.880  16.142  26.841  0.00  0.00    +0.000 C 
ATOM     17  C   UNL     1      22.346  14.945  27.358  0.00  0.00    +0.000 C 
ATOM     18  C   UNL     1      23.809  13.171  26.436  0.00  0.00    +0.000 C 
ATOM     19  C   UNL     1      26.045  14.288  26.664  0.00  0.00    +0.000 C 
ATOM     20  C   UNL     1      24.885  14.201  24.399  0.00  0.00    +0.000 C 
ATOM     21  C   UNL     1      22.979  13.046  28.806  0.00  0.00    +0.000 C 
BRANCH  14  22
ATOM     22  O   UNL     1      21.517  12.812  27.003  0.00  0.00    +0.000 OA
ATOM     23  H   UNL     1      21.446  13.047  26.059  0.00  0.00    +0.000 HD
ENDBRANCH  14  22
BRANCH  16  24
ATOM     24  O   UNL     1      23.006  17.264  27.650  0.00  0.00    +0.000 OA
BRANCH  24  26
ATOM     25  O   UNL     1      21.110  18.163  26.600  0.00  0.00    +0.000 OA
ATOM     26  C   UNL     1      22.139  18.226  27.247  0.00  0.00    +0.000 C 
ATOM     27  C   UNL     1      22.524  19.603  27.659  0.00  0.00    +0.000 C 
ENDBRANCH  24  26
ENDBRANCH  16  24
ENDBRANCH  11  18
ENDBRANCH   9  12
ENDBRANCH   8   9
ENDBRANCH   6   8
ENDBRANCH   4   7
ENDBRANCH   3   4
ENDBRANCH   2   3
BRANCH   1  28
ATOM     28  C   UNL     1      28.922  11.938  17.363  0.00  0.00    +0.000 C 
BRANCH  28  29
ATOM     29  C   UNL     1      29.092  12.780  16.393  0.00  0.00    +0.000 C 
ATOM     30  C   UNL     1      29.279  12.282  14.992  0.00  0.00    +0.000 C 
BRANCH  29  32
ATOM     31  C   UNL     1      29.196  15.345  16.898  0.00  0.00    +0.000 C 
ATOM     32  C   UNL     1      29.140  14.168  16.667  0.00  0.00    +0.000 C 
BRANCH  31  33
ATOM     33  C   UNL     1      29.282  16.848  17.191  0.00  0.00    +0.000 C 
BRANCH  33  34
ATOM     34  C   UNL     1      29.347  18.122  17.443  0.00  0.00    +0.000 C 
ATOM     35  C   UNL     1      29.948  19.001  16.365  0.00  0.00    +0.000 C 
BRANCH  34  37
ATOM     36  O   UNL     1      28.130  19.621  18.851  0.00  0.00    +0.000 OA
ATOM     37  C   UNL     1      28.885  18.657  18.761  0.00  0.00    +0.000 C 
BRANCH  37  38
ATOM     38  C   UNL     1      29.311  18.051  19.999  0.00  0.00    +0.000 C 
BRANCH  38  40
ATOM     39  O   UNL     1      28.624  17.047  22.040  0.00  0.00    +0.000 OA
ATOM     40  C   UNL     1      29.768  17.430  21.228  0.00  0.00    +0.000 C 
ATOM     41  C   UNL     1      29.389  15.963  21.518  0.00  0.00    +0.000 C 
ATOM     42  C   UNL     1      30.998  18.041  21.992  0.00  0.00    +0.000 C 
ATOM     43  C   UNL     1      30.129  15.286  22.534  0.00  0.00    +0.000 C 
ATOM     44  C   UNL     1      31.406  17.058  22.998  0.00  0.00    +0.000 C 
ATOM     45  C   UNL     1      31.155  15.728  23.387  0.00  0.00    +0.000 C 
ATOM     46  C   UNL     1      28.611  15.092  20.527  0.00  0.00    +0.000 C 
ATOM     47  C   UNL     1      32.097  18.232  20.919  0.00  0.00    +0.000 C 
ATOM     48  C   UNL     1      30.508  19.382  22.582  0.00  0.00    +0.000 C 
BRANCH  45  49
ATOM     49  O   UNL     1      32.156  14.912  23.819  0.00  0.00    +0.000 OA
ATOM     50  H   UNL     1      33.038  15.251  23.584  0.00  0.00    +0.000 HD
ENDBRANCH  45  49
ENDBRANCH  38  40
ENDBRANCH  37  38
ENDBRANCH  34  37
ENDBRANCH  33  34
ENDBRANCH  31  33
ENDBRANCH  29  32
ENDBRANCH  28  29
ENDBRANCH   1  28
TORSDOF 19
ENDMDL
MODEL 6
REMARK VINA RESULT:      -5.7     23.598     27.526
REMARK  Name = 5281239_Fucoxanthin.pdbqt.pdb
REMARK  19 active torsions:
REMARK  status: ('A' for Active; 'I' for Inactive)
REMARK    1  A    between atoms: C_1  and  C_5
REMARK    2  A    between atoms: C_2  and  C_26
REMARK    3  A    between atoms: C_3  and  C_5
REMARK    4  A    between atoms: C_3  and  C_7
REMARK    5  A    between atoms: C_6  and  C_10
REMARK    6  A    between atoms: C_8  and  C_10
REMARK    7  A    between atoms: C_8  and  C_12
REMARK    8  A    between atoms: C_12  and  C_13
REMARK    9  A    between atoms: C_13  and  C_15
REMARK   10  A    between atoms: C_20  and  O_24
REMARK   11  A    between atoms: C_26  and  C_27
REMARK   12  A    between atoms: C_27  and  C_30
REMARK   13  A    between atoms: C_29  and  C_33
REMARK   14  A    between atoms: C_31  and  C_33
REMARK   15  A    between atoms: C_31  and  C_44
REMARK   16  A    between atoms: C_35  and  O_45
REMARK   17  A    between atoms: C_37  and  O_47
REMARK   18  A    between atoms: C_39  and  C_43
REMARK   19  A    between atoms: O_47  and  C_49
REMARK                            x       y       z     vdW  Elec       q    Type
REMARK                         _______ _______ _______ _____ _____    ______ ____
ROOT
ATOM      1  C   UNL     1      11.691  20.590   1.182  0.00  0.00    +0.000 C 
ATOM      2  C   UNL     1      10.537  20.871   1.007  0.00  0.00    +0.000 C 
ENDROOT
BRANCH   2   3
ATOM      3  C   UNL     1       9.063  21.233   0.790  0.00  0.00    +0.000 C 
BRANCH   3   4
ATOM      4  C   UNL     1       7.817  21.539   0.611  0.00  0.00    +0.000 C 
ATOM      5  C   UNL     1       7.445  22.907   0.127  0.00  0.00    +0.000 C 
BRANCH   4   7
ATOM      6  C   UNL     1       5.960  19.738   1.003  0.00  0.00    +0.000 C 
ATOM      7  C   UNL     1       6.813  20.564   0.825  0.00  0.00    +0.000 C 
BRANCH   6   8
ATOM      8  C   UNL     1       4.871  18.682   1.226  0.00  0.00    +0.000 C 
BRANCH   8   9
ATOM      9  C   UNL     1       3.955  17.786   1.423  0.00  0.00    +0.000 C 
ATOM     10  C   UNL     1       2.506  18.157   1.337  0.00  0.00    +0.000 C 
BRANCH   9  12
ATOM     11  C   UNL     1       4.638  15.375   2.190  0.00  0.00    +0.000 C 
ATOM     12  C   UNL     1       4.323  16.481   1.835  0.00  0.00    +0.000 C 
BRANCH  11  18
ATOM     13  C   UNL     1       4.561  12.899   1.814  0.00  0.00    +0.000 C 
ATOM     14  C   UNL     1       5.793  13.950   3.850  0.00  0.00    +0.000 C 
ATOM     15  C   UNL     1       5.317  11.724   2.268  0.00  0.00    +0.000 C 
ATOM     16  C   UNL     1       6.253  11.375   3.260  0.00  0.00    +0.000 C 
ATOM     17  C   UNL     1       6.362  12.610   3.931  0.00  0.00    +0.000 C 
ATOM     18  C   UNL     1       4.988  14.165   2.579  0.00  0.00    +0.000 C 
ATOM     19  C   UNL     1       3.042  12.674   2.040  0.00  0.00    +0.000 C 
ATOM     20  C   UNL     1       4.847  13.101   0.295  0.00  0.00    +0.000 C 
ATOM     21  C   UNL     1       4.955  14.277   5.090  0.00  0.00    +0.000 C 
BRANCH  14  22
ATOM     22  O   UNL     1       6.861  14.871   3.882  0.00  0.00    +0.000 OA
ATOM     23  H   UNL     1       6.686  15.341   4.717  0.00  0.00    +0.000 HD
ENDBRANCH  14  22
BRANCH  16  24
ATOM     24  O   UNL     1       6.074  10.199   3.976  0.00  0.00    +0.000 OA
BRANCH  24  26
ATOM     25  O   UNL     1       6.481   8.150   2.907  0.00  0.00    +0.000 OA
ATOM     26  C   UNL     1       6.810   9.202   3.424  0.00  0.00    +0.000 C 
ATOM     27  C   UNL     1       8.279   9.434   3.470  0.00  0.00    +0.000 C 
ENDBRANCH  24  26
ENDBRANCH  16  24
ENDBRANCH  11  18
ENDBRANCH   9  12
ENDBRANCH   8   9
ENDBRANCH   6   8
ENDBRANCH   4   7
ENDBRANCH   3   4
ENDBRANCH   2   3
BRANCH   1  28
ATOM     28  C   UNL     1      13.164  20.236   1.415  0.00  0.00    +0.000 C 
BRANCH  28  29
ATOM     29  C   UNL     1      14.409  19.931   1.602  0.00  0.00    +0.000 C 
ATOM     30  C   UNL     1      15.467  20.983   1.467  0.00  0.00    +0.000 C 
BRANCH  29  32
ATOM     31  C   UNL     1      15.063  17.458   2.155  0.00  0.00    +0.000 C 
ATOM     32  C   UNL     1      14.769  18.594   1.897  0.00  0.00    +0.000 C 
BRANCH  31  33
ATOM     33  C   UNL     1      15.427  16.008   2.496  0.00  0.00    +0.000 C 
BRANCH  33  34
ATOM     34  C   UNL     1      15.733  14.780   2.794  0.00  0.00    +0.000 C 
ATOM     35  C   UNL     1      17.186  14.497   3.114  0.00  0.00    +0.000 C 
BRANCH  34  37
ATOM     36  O   UNL     1      14.846  12.621   3.307  0.00  0.00    +0.000 OA
ATOM     37  C   UNL     1      14.686  13.712   2.769  0.00  0.00    +0.000 C 
BRANCH  37  38
ATOM     38  C   UNL     1      13.423  13.925   2.102  0.00  0.00    +0.000 C 
BRANCH  38  40
ATOM     39  O   UNL     1      12.013  13.198   0.335  0.00  0.00    +0.000 OA
ATOM     40  C   UNL     1      12.140  14.117   1.455  0.00  0.00    +0.000 C 
ATOM     41  C   UNL     1      11.128  12.951   1.426  0.00  0.00    +0.000 C 
ATOM     42  C   UNL     1      11.596  15.573   1.232  0.00  0.00    +0.000 C 
ATOM     43  C   UNL     1       9.775  13.270   1.105  0.00  0.00    +0.000 C 
ATOM     44  C   UNL     1      10.188  15.449   0.845  0.00  0.00    +0.000 C 
ATOM     45  C   UNL     1       9.163  14.487   0.757  0.00  0.00    +0.000 C 
ATOM     46  C   UNL     1      11.382  11.611   2.123  0.00  0.00    +0.000 C 
ATOM     47  C   UNL     1      11.738  16.282   2.601  0.00  0.00    +0.000 C 
ATOM     48  C   UNL     1      12.496  16.201   0.145  0.00  0.00    +0.000 C 
BRANCH  45  49
ATOM     49  O   UNL     1       7.877  14.787   1.088  0.00  0.00    +0.000 OA
ATOM     50  H   UNL     1       7.231  14.319   0.529  0.00  0.00    +0.000 HD
ENDBRANCH  45  49
ENDBRANCH  38  40
ENDBRANCH  37  38
ENDBRANCH  34  37
ENDBRANCH  33  34
ENDBRANCH  31  33
ENDBRANCH  29  32
ENDBRANCH  28  29
ENDBRANCH   1  28
TORSDOF 19
ENDMDL
MODEL 7
REMARK VINA RESULT:      -5.7     18.680     26.179
REMARK  Name = 5281239_Fucoxanthin.pdbqt.pdb
REMARK  19 active torsions:
REMARK  status: ('A' for Active; 'I' for Inactive)
REMARK    1  A    between atoms: C_1  and  C_5
REMARK    2  A    between atoms: C_2  and  C_26
REMARK    3  A    between atoms: C_3  and  C_5
REMARK    4  A    between atoms: C_3  and  C_7
REMARK    5  A    between atoms: C_6  and  C_10
REMARK    6  A    between atoms: C_8  and  C_10
REMARK    7  A    between atoms: C_8  and  C_12
REMARK    8  A    between atoms: C_12  and  C_13
REMARK    9  A    between atoms: C_13  and  C_15
REMARK   10  A    between atoms: C_20  and  O_24
REMARK   11  A    between atoms: C_26  and  C_27
REMARK   12  A    between atoms: C_27  and  C_30
REMARK   13  A    between atoms: C_29  and  C_33
REMARK   14  A    between atoms: C_31  and  C_33
REMARK   15  A    between atoms: C_31  and  C_44
REMARK   16  A    between atoms: C_35  and  O_45
REMARK   17  A    between atoms: C_37  and  O_47
REMARK   18  A    between atoms: C_39  and  C_43
REMARK   19  A    between atoms: O_47  and  C_49
REMARK                            x       y       z     vdW  Elec       q    Type
REMARK                         _______ _______ _______ _____ _____    ______ ____
ROOT
ATOM      1  C   UNL     1      29.722  15.978  18.909  0.00  0.00    +0.000 C 
ATOM      2  C   UNL     1      29.361  14.860  19.151  0.00  0.00    +0.000 C 
ENDROOT
BRANCH   2   3
ATOM      3  C   UNL     1      28.905  13.430  19.466  0.00  0.00    +0.000 C 
BRANCH   3   4
ATOM      4  C   UNL     1      28.519  12.221  19.728  0.00  0.00    +0.000 C 
ATOM      5  C   UNL     1      29.127  11.066  18.991  0.00  0.00    +0.000 C 
BRANCH   4   7
ATOM      6  C   UNL     1      26.753  11.794  21.610  0.00  0.00    +0.000 C 
ATOM      7  C   UNL     1      27.563  11.990  20.745  0.00  0.00    +0.000 C 
BRANCH   6   8
ATOM      8  C   UNL     1      25.721  11.549  22.717  0.00  0.00    +0.000 C 
BRANCH   8   9
ATOM      9  C   UNL     1      24.842  11.338  23.647  0.00  0.00    +0.000 C 
ATOM     10  C   UNL     1      24.110  10.033  23.710  0.00  0.00    +0.000 C 
BRANCH   9  12
ATOM     11  C   UNL     1      24.195  13.277  25.286  0.00  0.00    +0.000 C 
ATOM     12  C   UNL     1      24.489  12.387  24.532  0.00  0.00    +0.000 C 
BRANCH  11  18
ATOM     13  C   UNL     1      24.624  15.594  26.138  0.00  0.00    +0.000 C 
ATOM     14  C   UNL     1      22.768  14.073  27.144  0.00  0.00    +0.000 C 
ATOM     15  C   UNL     1      23.894  16.598  26.925  0.00  0.00    +0.000 C 
ATOM     16  C   UNL     1      22.756  16.686  27.750  0.00  0.00    +0.000 C 
ATOM     17  C   UNL     1      22.339  15.340  27.725  0.00  0.00    +0.000 C 
ATOM     18  C   UNL     1      23.874  14.251  26.115  0.00  0.00    +0.000 C 
ATOM     19  C   UNL     1      26.032  15.364  26.748  0.00  0.00    +0.000 C 
ATOM     20  C   UNL     1      24.759  16.128  24.679  0.00  0.00    +0.000 C 
ATOM     21  C   UNL     1      23.186  13.075  28.228  0.00  0.00    +0.000 C 
BRANCH  14  22
ATOM     22  O   UNL     1      21.648  13.486  26.522  0.00  0.00    +0.000 OA
ATOM     23  H   UNL     1      21.972  13.367  25.610  0.00  0.00    +0.000 HD
ENDBRANCH  14  22
BRANCH  16  24
ATOM     24  O   UNL     1      22.844  17.374  28.953  0.00  0.00    +0.000 OA
BRANCH  24  26
ATOM     25  O   UNL     1      20.728  18.271  28.479  0.00  0.00    +0.000 OA
ATOM     26  C   UNL     1      21.774  18.194  29.098  0.00  0.00    +0.000 C 
ATOM     27  C   UNL     1      21.910  19.183  30.201  0.00  0.00    +0.000 C 
ENDBRANCH  24  26
ENDBRANCH  16  24
ENDBRANCH  11  18
ENDBRANCH   9  12
ENDBRANCH   8   9
ENDBRANCH   6   8
ENDBRANCH   4   7
ENDBRANCH   3   4
ENDBRANCH   2   3
BRANCH   1  28
ATOM     28  C   UNL     1      30.188  17.407  18.609  0.00  0.00    +0.000 C 
BRANCH  28  29
ATOM     29  C   UNL     1      30.592  18.611  18.351  0.00  0.00    +0.000 C 
ATOM     30  C   UNL     1      31.084  19.490  19.460  0.00  0.00    +0.000 C 
BRANCH  29  32
ATOM     31  C   UNL     1      30.493  19.527  15.902  0.00  0.00    +0.000 C 
ATOM     32  C   UNL     1      30.530  19.105  17.026  0.00  0.00    +0.000 C 
BRANCH  31  33
ATOM     33  C   UNL     1      30.460  20.068  14.468  0.00  0.00    +0.000 C 
BRANCH  33  34
ATOM     34  C   UNL     1      30.425  20.531  13.253  0.00  0.00    +0.000 C 
ATOM     35  C   UNL     1      30.778  21.993  13.070  0.00  0.00    +0.000 C 
BRANCH  34  37
ATOM     36  O   UNL     1      29.981  20.042  10.957  0.00  0.00    +0.000 OA
ATOM     37  C   UNL     1      30.006  19.650  12.119  0.00  0.00    +0.000 C 
BRANCH  37  38
ATOM     38  C   UNL     1      29.612  18.281  12.349  0.00  0.00    +0.000 C 
BRANCH  38  40
ATOM     39  O   UNL     1      27.896  16.670  12.022  0.00  0.00    +0.000 OA
ATOM     40  C   UNL     1      29.232  16.896  12.551  0.00  0.00    +0.000 C 
ATOM     41  C   UNL     1      28.947  16.005  11.323  0.00  0.00    +0.000 C 
ATOM     42  C   UNL     1      29.576  16.190  13.912  0.00  0.00    +0.000 C 
ATOM     43  C   UNL     1      28.924  14.594  11.531  0.00  0.00    +0.000 C 
ATOM     44  C   UNL     1      29.351  14.755  13.717  0.00  0.00    +0.000 C 
ATOM     45  C   UNL     1      29.079  13.823  12.697  0.00  0.00    +0.000 C 
ATOM     46  C   UNL     1      29.121  16.494   9.882  0.00  0.00    +0.000 C 
ATOM     47  C   UNL     1      31.073  16.491  14.167  0.00  0.00    +0.000 C 
ATOM     48  C   UNL     1      28.654  16.835  14.970  0.00  0.00    +0.000 C 
BRANCH  45  49
ATOM     49  O   UNL     1      29.650  12.587  12.693  0.00  0.00    +0.000 OA
ATOM     50  H   UNL     1      28.990  11.873  12.727  0.00  0.00    +0.000 HD
ENDBRANCH  45  49
ENDBRANCH  38  40
ENDBRANCH  37  38
ENDBRANCH  34  37
ENDBRANCH  33  34
ENDBRANCH  31  33
ENDBRANCH  29  32
ENDBRANCH  28  29
ENDBRANCH   1  28
TORSDOF 19
ENDMDL
MODEL 8
REMARK VINA RESULT:      -5.6     26.254     30.842
REMARK  Name = 5281239_Fucoxanthin.pdbqt.pdb
REMARK  19 active torsions:
REMARK  status: ('A' for Active; 'I' for Inactive)
REMARK    1  A    between atoms: C_1  and  C_5
REMARK    2  A    between atoms: C_2  and  C_26
REMARK    3  A    between atoms: C_3  and  C_5
REMARK    4  A    between atoms: C_3  and  C_7
REMARK    5  A    between atoms: C_6  and  C_10
REMARK    6  A    between atoms: C_8  and  C_10
REMARK    7  A    between atoms: C_8  and  C_12
REMARK    8  A    between atoms: C_12  and  C_13
REMARK    9  A    between atoms: C_13  and  C_15
REMARK   10  A    between atoms: C_20  and  O_24
REMARK   11  A    between atoms: C_26  and  C_27
REMARK   12  A    between atoms: C_27  and  C_30
REMARK   13  A    between atoms: C_29  and  C_33
REMARK   14  A    between atoms: C_31  and  C_33
REMARK   15  A    between atoms: C_31  and  C_44
REMARK   16  A    between atoms: C_35  and  O_45
REMARK   17  A    between atoms: C_37  and  O_47
REMARK   18  A    between atoms: C_39  and  C_43
REMARK   19  A    between atoms: O_47  and  C_49
REMARK                            x       y       z     vdW  Elec       q    Type
REMARK                         _______ _______ _______ _____ _____    ______ ____
ROOT
ATOM      1  C   UNL     1      28.357   9.889  19.788  0.00  0.00    +0.000 C 
ATOM      2  C   UNL     1      28.137   8.715  19.901  0.00  0.00    +0.000 C 
ENDROOT
BRANCH   2   3
ATOM      3  C   UNL     1      27.858   7.215  20.053  0.00  0.00    +0.000 C 
BRANCH   3   4
ATOM      4  C   UNL     1      27.625   5.946  20.179  0.00  0.00    +0.000 C 
ATOM      5  C   UNL     1      27.185   5.394  21.500  0.00  0.00    +0.000 C 
BRANCH   4   7
ATOM      6  C   UNL     1      27.835   4.367  18.103  0.00  0.00    +0.000 C 
ATOM      7  C   UNL     1      27.738   5.093  19.055  0.00  0.00    +0.000 C 
BRANCH   6   8
ATOM      8  C   UNL     1      27.956   3.436  16.891  0.00  0.00    +0.000 C 
BRANCH   8   9
ATOM      9  C   UNL     1      28.049   2.654  15.862  0.00  0.00    +0.000 C 
ATOM     10  C   UNL     1      27.642   1.216  15.968  0.00  0.00    +0.000 C 
BRANCH   9  12
ATOM     11  C   UNL     1      29.149   3.531  13.651  0.00  0.00    +0.000 C 
ATOM     12  C   UNL     1      28.646   3.130  14.668  0.00  0.00    +0.000 C 
BRANCH  11  18
ATOM     13  C   UNL     1      29.215   3.517  11.146  0.00  0.00    +0.000 C 
ATOM     14  C   UNL     1      30.896   4.905  12.565  0.00  0.00    +0.000 C 
ATOM     15  C   UNL     1      29.781   4.360  10.085  0.00  0.00    +0.000 C 
ATOM     16  C   UNL     1      30.713   5.406   9.936  0.00  0.00    +0.000 C 
ATOM     17  C   UNL     1      31.146   5.532  11.272  0.00  0.00    +0.000 C 
ATOM     18  C   UNL     1      29.700   3.967  12.536  0.00  0.00    +0.000 C 
ATOM     19  C   UNL     1      29.637   2.038  10.930  0.00  0.00    +0.000 C 
ATOM     20  C   UNL     1      27.662   3.638  11.085  0.00  0.00    +0.000 C 
ATOM     21  C   UNL     1      32.143   4.184  13.085  0.00  0.00    +0.000 C 
BRANCH  14  22
ATOM     22  O   UNL     1      30.655   5.933  13.499  0.00  0.00    +0.000 OA
ATOM     23  H   UNL     1      30.212   5.443  14.216  0.00  0.00    +0.000 HD
ENDBRANCH  14  22
BRANCH  16  24
ATOM     24  O   UNL     1      31.636   5.347   8.900  0.00  0.00    +0.000 OA
BRANCH  24  26
ATOM     25  O   UNL     1      30.991   7.470   8.137  0.00  0.00    +0.000 OA
ATOM     26  C   UNL     1      31.382   6.326   7.996  0.00  0.00    +0.000 C 
ATOM     27  C   UNL     1      31.611   5.923   6.582  0.00  0.00    +0.000 C 
ENDBRANCH  24  26
ENDBRANCH  16  24
ENDBRANCH  11  18
ENDBRANCH   9  12
ENDBRANCH   8   9
ENDBRANCH   6   8
ENDBRANCH   4   7
ENDBRANCH   3   4
ENDBRANCH   2   3
BRANCH   1  28
ATOM     28  C   UNL     1      28.643  11.389  19.653  0.00  0.00    +0.000 C 
BRANCH  28  29
ATOM     29  C   UNL     1      28.873  12.658  19.534  0.00  0.00    +0.000 C 
ATOM     30  C   UNL     1      28.941  13.526  20.754  0.00  0.00    +0.000 C 
BRANCH  29  32
ATOM     31  C   UNL     1      29.151  13.700  17.150  0.00  0.00    +0.000 C 
ATOM     32  C   UNL     1      29.023  13.229  18.247  0.00  0.00    +0.000 C 
BRANCH  31  33
ATOM     33  C   UNL     1      29.315  14.286  15.742  0.00  0.00    +0.000 C 
BRANCH  33  34
ATOM     34  C   UNL     1      29.455  14.774  14.546  0.00  0.00    +0.000 C 
ATOM     35  C   UNL     1      28.565  15.943  14.177  0.00  0.00    +0.000 C 
BRANCH  34  37
ATOM     36  O   UNL     1      31.349  14.794  13.088  0.00  0.00    +0.000 OA
ATOM     37  C   UNL     1      30.424  14.160  13.586  0.00  0.00    +0.000 C 
BRANCH  37  38
ATOM     38  C   UNL     1      30.312  12.773  13.203  0.00  0.00    +0.000 C 
BRANCH  38  40
ATOM     39  O   UNL     1      30.847  10.526  13.758  0.00  0.00    +0.000 OA
ATOM     40  C   UNL     1      30.197  11.389  12.785  0.00  0.00    +0.000 C 
ATOM     41  C   UNL     1      29.429  10.392  13.679  0.00  0.00    +0.000 C 
ATOM     42  C   UNL     1      30.401  11.018  11.272  0.00  0.00    +0.000 C 
ATOM     43  C   UNL     1      29.037   9.153  13.088  0.00  0.00    +0.000 C 
ATOM     44  C   UNL     1      29.939   9.638  11.104  0.00  0.00    +0.000 C 
ATOM     45  C   UNL     1      29.257   8.625  11.804  0.00  0.00    +0.000 C 
ATOM     46  C   UNL     1      28.708  10.810  14.963  0.00  0.00    +0.000 C 
ATOM     47  C   UNL     1      29.510  12.006  10.480  0.00  0.00    +0.000 C 
ATOM     48  C   UNL     1      31.906  11.219  10.985  0.00  0.00    +0.000 C 
BRANCH  45  49
ATOM     49  O   UNL     1      28.364   7.807  11.181  0.00  0.00    +0.000 OA
ATOM     50  H   UNL     1      27.938   7.185  11.796  0.00  0.00    +0.000 HD
ENDBRANCH  45  49
ENDBRANCH  38  40
ENDBRANCH  37  38
ENDBRANCH  34  37
ENDBRANCH  33  34
ENDBRANCH  31  33
ENDBRANCH  29  32
ENDBRANCH  28  29
ENDBRANCH   1  28
TORSDOF 19
ENDMDL
MODEL 9
REMARK VINA RESULT:      -5.5     17.890     22.488
REMARK  Name = 5281239_Fucoxanthin.pdbqt.pdb
REMARK  19 active torsions:
REMARK  status: ('A' for Active; 'I' for Inactive)
REMARK    1  A    between atoms: C_1  and  C_5
REMARK    2  A    between atoms: C_2  and  C_26
REMARK    3  A    between atoms: C_3  and  C_5
REMARK    4  A    between atoms: C_3  and  C_7
REMARK    5  A    between atoms: C_6  and  C_10
REMARK    6  A    between atoms: C_8  and  C_10
REMARK    7  A    between atoms: C_8  and  C_12
REMARK    8  A    between atoms: C_12  and  C_13
REMARK    9  A    between atoms: C_13  and  C_15
REMARK   10  A    between atoms: C_20  and  O_24
REMARK   11  A    between atoms: C_26  and  C_27
REMARK   12  A    between atoms: C_27  and  C_30
REMARK   13  A    between atoms: C_29  and  C_33
REMARK   14  A    between atoms: C_31  and  C_33
REMARK   15  A    between atoms: C_31  and  C_44
REMARK   16  A    between atoms: C_35  and  O_45
REMARK   17  A    between atoms: C_37  and  O_47
REMARK   18  A    between atoms: C_39  and  C_43
REMARK   19  A    between atoms: O_47  and  C_49
REMARK                            x       y       z     vdW  Elec       q    Type
REMARK                         _______ _______ _______ _____ _____    ______ ____
ROOT
ATOM      1  C   UNL     1       2.007  21.503  28.990  0.00  0.00    +0.000 C 
ATOM      2  C   UNL     1       1.064  20.947  28.498  0.00  0.00    +0.000 C 
ENDROOT
BRANCH   2   3
ATOM      3  C   UNL     1      -0.140  20.242  27.863  0.00  0.00    +0.000 C 
BRANCH   3   4
ATOM      4  C   UNL     1      -1.159  19.643  27.330  0.00  0.00    +0.000 C 
ATOM      5  C   UNL     1      -2.463  19.589  28.065  0.00  0.00    +0.000 C 
BRANCH   4   7
ATOM      6  C   UNL     1      -0.959  18.613  24.933  0.00  0.00    +0.000 C 
ATOM      7  C   UNL     1      -1.052  19.087  26.033  0.00  0.00    +0.000 C 
BRANCH   6   8
ATOM      8  C   UNL     1      -0.840  18.003  23.532  0.00  0.00    +0.000 C 
BRANCH   8   9
ATOM      9  C   UNL     1      -0.750  17.485  22.347  0.00  0.00    +0.000 C 
ATOM     10  C   UNL     1      -0.257  18.310  21.198  0.00  0.00    +0.000 C 
BRANCH   9  12
ATOM     11  C   UNL     1      -1.629  15.054  21.919  0.00  0.00    +0.000 C 
ATOM     12  C   UNL     1      -1.228  16.171  22.115  0.00  0.00    +0.000 C 
BRANCH  11  18
ATOM     13  C   UNL     1      -1.124  12.611  21.681  0.00  0.00    +0.000 C 
ATOM     14  C   UNL     1      -3.530  13.559  21.399  0.00  0.00    +0.000 C 
ATOM     15  C   UNL     1      -1.881  11.353  21.719  0.00  0.00    +0.000 C 
ATOM     16  C   UNL     1      -3.217  10.909  21.675  0.00  0.00    +0.000 C 
ATOM     17  C   UNL     1      -3.874  12.147  21.522  0.00  0.00    +0.000 C 
ATOM     18  C   UNL     1      -2.065  13.829  21.701  0.00  0.00    +0.000 C 
ATOM     19  C   UNL     1      -0.264  12.673  20.390  0.00  0.00    +0.000 C 
ATOM     20  C   UNL     1      -0.201  12.659  22.936  0.00  0.00    +0.000 C 
ATOM     21  C   UNL     1      -3.915  14.109  20.023  0.00  0.00    +0.000 C 
BRANCH  14  22
ATOM     22  O   UNL     1      -4.330  14.276  22.313  0.00  0.00    +0.000 OA
ATOM     23  H   UNL     1      -5.196  13.844  22.192  0.00  0.00    +0.000 HD
ENDBRANCH  14  22
BRANCH  16  24
ATOM     24  O   UNL     1      -3.546   9.833  20.861  0.00  0.00    +0.000 OA
BRANCH  24  26
ATOM     25  O   UNL     1      -1.574   8.747  20.200  0.00  0.00    +0.000 OA
ATOM     26  C   UNL     1      -2.559   8.904  20.899  0.00  0.00    +0.000 C 
ATOM     27  C   UNL     1      -2.715   7.893  21.979  0.00  0.00    +0.000 C 
ENDBRANCH  24  26
ENDBRANCH  16  24
ENDBRANCH  11  18
ENDBRANCH   9  12
ENDBRANCH   8   9
ENDBRANCH   6   8
ENDBRANCH   4   7
ENDBRANCH   3   4
ENDBRANCH   2   3
BRANCH   1  28
ATOM     28  C   UNL     1       3.212  22.219  29.610  0.00  0.00    +0.000 C 
BRANCH  28  29
ATOM     29  C   UNL     1       4.228  22.819  30.144  0.00  0.00    +0.000 C 
ATOM     30  C   UNL     1       4.152  24.280  30.468  0.00  0.00    +0.000 C 
BRANCH  29  32
ATOM     31  C   UNL     1       6.444  21.500  30.592  0.00  0.00    +0.000 C 
ATOM     32  C   UNL     1       5.423  22.099  30.385  0.00  0.00    +0.000 C 
BRANCH  31  33
ATOM     33  C   UNL     1       7.754  20.751  30.860  0.00  0.00    +0.000 C 
BRANCH  33  34
ATOM     34  C   UNL     1       8.867  20.120  31.094  0.00  0.00    +0.000 C 
ATOM     35  C   UNL     1      10.088  20.972  31.374  0.00  0.00    +0.000 C 
BRANCH  34  37
ATOM     36  O   UNL     1       7.907  17.932  31.075  0.00  0.00    +0.000 OA
ATOM     37  C   UNL     1       8.917  18.627  31.035  0.00  0.00    +0.000 C 
BRANCH  37  38
ATOM     38  C   UNL     1      10.177  17.930  30.924  0.00  0.00    +0.000 C 
BRANCH  38  40
ATOM     39  O   UNL     1      11.479  16.117  31.737  0.00  0.00    +0.000 OA
ATOM     40  C   UNL     1      11.430  17.215  30.784  0.00  0.00    +0.000 C 
ATOM     41  C   UNL     1      11.408  15.729  30.367  0.00  0.00    +0.000 C 
ATOM     42  C   UNL     1      12.762  18.021  30.575  0.00  0.00    +0.000 C 
ATOM     43  C   UNL     1      12.633  15.162  29.904  0.00  0.00    +0.000 C 
ATOM     44  C   UNL     1      13.788  17.055  30.173  0.00  0.00    +0.000 C 
ATOM     45  C   UNL     1      13.923  15.708  29.784  0.00  0.00    +0.000 C 
ATOM     46  C   UNL     1      10.118  14.983  30.014  0.00  0.00    +0.000 C 
ATOM     47  C   UNL     1      12.463  19.024  29.435  0.00  0.00    +0.000 C 
ATOM     48  C   UNL     1      13.050  18.723  31.920  0.00  0.00    +0.000 C 
BRANCH  45  49
ATOM     49  O   UNL     1      14.793  15.335  28.805  0.00  0.00    +0.000 OA
ATOM     50  H   UNL     1      14.573  15.731  27.942  0.00  0.00    +0.000 HD
ENDBRANCH  45  49
ENDBRANCH  38  40
ENDBRANCH  37  38
ENDBRANCH  34  37
ENDBRANCH  33  34
ENDBRANCH  31  33
ENDBRANCH  29  32
ENDBRANCH  28  29
ENDBRANCH   1  28
TORSDOF 19
ENDMDL
