MODEL 1
REMARK VINA RESULT:      -5.7      0.000      0.000
REMARK  Name = 5281698_sexangularetin.pdbqt.pdb
REMARK  6 active torsions:
REMARK  status: ('A' for Active; 'I' for Inactive)
REMARK    1  A    between atoms: C_5  and  C_12
REMARK    2  A    between atoms: C_6  and  O_20
REMARK    3  A    between atoms: C_8  and  O_22
REMARK    4  A    between atoms: C_9  and  O_24
REMARK    5  A    between atoms: C_10  and  O_26
REMARK    6  A    between atoms: C_17  and  O_18
REMARK                            x       y       z     vdW  Elec       q    Type
REMARK                         _______ _______ _______ _____ _____    ______ ____
ROOT
ATOM      1  O   UNL     1      10.318  25.368  29.758  0.00  0.00    +0.000 OA
ATOM      2  O   UNL     1      12.335  28.694  28.625  0.00  0.00    +0.000 OA
ATOM      3  C   UNL     1      10.654  27.125  28.124  0.00  0.00    +0.000 A 
ATOM      4  C   UNL     1      10.006  25.972  28.566  0.00  0.00    +0.000 A 
ATOM      5  C   UNL     1      11.351  25.875  30.538  0.00  0.00    +0.000 A 
ATOM      6  C   UNL     1       8.985  25.412  27.785  0.00  0.00    +0.000 A 
ATOM      7  C   UNL     1      11.726  27.679  28.953  0.00  0.00    +0.000 A 
ATOM      8  C   UNL     1      12.054  26.977  30.214  0.00  0.00    +0.000 A 
ATOM      9  C   UNL     1      10.274  27.735  26.923  0.00  0.00    +0.000 A 
ATOM     10  C   UNL     1       8.585  26.051  26.606  0.00  0.00    +0.000 A 
ATOM     11  C   UNL     1       9.234  27.202  26.167  0.00  0.00    +0.000 A 
ENDROOT
BRANCH   5  12
ATOM     12  C   UNL     1      11.582  25.088  31.767  0.00  0.00    +0.000 A 
ATOM     13  C   UNL     1      12.511  24.041  31.755  0.00  0.00    +0.000 A 
ATOM     14  C   UNL     1      10.949  25.397  32.975  0.00  0.00    +0.000 A 
ATOM     15  C   UNL     1      12.784  23.307  32.907  0.00  0.00    +0.000 A 
ATOM     16  C   UNL     1      11.211  24.669  34.134  0.00  0.00    +0.000 A 
ATOM     17  C   UNL     1      12.129  23.628  34.089  0.00  0.00    +0.000 A 
BRANCH  17  18
ATOM     18  O   UNL     1      12.374  22.928  35.235  0.00  0.00    +0.000 OA
ATOM     19  H   UNL     1      12.494  23.566  35.960  0.00  0.00    +0.000 HD
ENDBRANCH  17  18
ENDBRANCH   5  12
BRANCH   6  20
ATOM     20  O   UNL     1       8.301  24.295  28.199  0.00  0.00    +0.000 OA
ATOM     21  C   UNL     1       7.163  24.647  28.951  0.00  0.00    +0.000 C 
ENDBRANCH   6  20
BRANCH   8  22
ATOM     22  O   UNL     1      13.058  27.521  30.992  0.00  0.00    +0.000 OA
ATOM     23  H   UNL     1      13.601  26.763  31.293  0.00  0.00    +0.000 HD
ENDBRANCH   8  22
BRANCH   9  24
ATOM     24  O   UNL     1      10.867  28.867  26.436  0.00  0.00    +0.000 OA
ATOM     25  H   UNL     1      11.496  29.212  27.110  0.00  0.00    +0.000 HD
ENDBRANCH   9  24
BRANCH  10  26
ATOM     26  O   UNL     1       7.537  25.553  25.884  0.00  0.00    +0.000 OA
ATOM     27  H   UNL     1       6.930  26.286  25.670  0.00  0.00    +0.000 HD
ENDBRANCH  10  26
TORSDOF 6
ENDMDL
MODEL 2
REMARK VINA RESULT:      -5.5     14.627     18.239
REMARK  Name = 5281698_sexangularetin.pdbqt.pdb
REMARK  6 active torsions:
REMARK  status: ('A' for Active; 'I' for Inactive)
REMARK    1  A    between atoms: C_5  and  C_12
REMARK    2  A    between atoms: C_6  and  O_20
REMARK    3  A    between atoms: C_8  and  O_22
REMARK    4  A    between atoms: C_9  and  O_24
REMARK    5  A    between atoms: C_10  and  O_26
REMARK    6  A    between atoms: C_17  and  O_18
REMARK                            x       y       z     vdW  Elec       q    Type
REMARK                         _______ _______ _______ _____ _____    ______ ____
ROOT
ATOM      1  O   UNL     1      -0.260  14.896  22.432  0.00  0.00    +0.000 OA
ATOM      2  O   UNL     1      -3.456  16.320  20.389  0.00  0.00    +0.000 OA
ATOM      3  C   UNL     1      -1.658  16.783  21.836  0.00  0.00    +0.000 A 
ATOM      4  C   UNL     1      -0.579  16.228  22.523  0.00  0.00    +0.000 A 
ATOM      5  C   UNL     1      -1.062  14.045  21.681  0.00  0.00    +0.000 A 
ATOM      6  C   UNL     1       0.228  17.051  23.321  0.00  0.00    +0.000 A 
ATOM      7  C   UNL     1      -2.492  15.896  21.023  0.00  0.00    +0.000 A 
ATOM      8  C   UNL     1      -2.133  14.461  20.980  0.00  0.00    +0.000 A 
ATOM      9  C   UNL     1      -1.922  18.154  21.921  0.00  0.00    +0.000 A 
ATOM     10  C   UNL     1      -0.019  18.428  23.368  0.00  0.00    +0.000 A 
ATOM     11  C   UNL     1      -1.098  18.978  22.681  0.00  0.00    +0.000 A 
ENDROOT
BRANCH   5  12
ATOM     12  C   UNL     1      -0.602  12.641  21.718  0.00  0.00    +0.000 A 
ATOM     13  C   UNL     1      -0.286  11.984  20.523  0.00  0.00    +0.000 A 
ATOM     14  C   UNL     1      -0.403  11.958  22.922  0.00  0.00    +0.000 A 
ATOM     15  C   UNL     1       0.192  10.675  20.525  0.00  0.00    +0.000 A 
ATOM     16  C   UNL     1       0.072  10.648  22.937  0.00  0.00    +0.000 A 
ATOM     17  C   UNL     1       0.367  10.017  21.736  0.00  0.00    +0.000 A 
BRANCH  17  18
ATOM     18  O   UNL     1       0.833   8.735  21.772  0.00  0.00    +0.000 OA
ATOM     19  H   UNL     1       1.574   8.663  21.145  0.00  0.00    +0.000 HD
ENDBRANCH  17  18
ENDBRANCH   5  12
BRANCH   6  20
ATOM     20  O   UNL     1       1.319  16.549  23.988  0.00  0.00    +0.000 OA
ATOM     21  C   UNL     1       0.972  16.136  25.289  0.00  0.00    +0.000 C 
ENDBRANCH   6  20
BRANCH   8  22
ATOM     22  O   UNL     1      -2.921  13.641  20.195  0.00  0.00    +0.000 OA
ATOM     23  H   UNL     1      -3.825  14.018  20.242  0.00  0.00    +0.000 HD
ENDBRANCH   8  22
BRANCH   9  24
ATOM     24  O   UNL     1      -2.962  18.760  21.271  0.00  0.00    +0.000 OA
ATOM     25  H   UNL     1      -2.766  19.720  21.182  0.00  0.00    +0.000 HD
ENDBRANCH   9  24
BRANCH  10  26
ATOM     26  O   UNL     1       0.813  19.245  24.079  0.00  0.00    +0.000 OA
ATOM     27  H   UNL     1       0.734  19.023  25.026  0.00  0.00    +0.000 HD
ENDBRANCH  10  26
TORSDOF 6
ENDMDL
MODEL 3
REMARK VINA RESULT:      -5.5      7.615     10.614
REMARK  Name = 5281698_sexangularetin.pdbqt.pdb
REMARK  6 active torsions:
REMARK  status: ('A' for Active; 'I' for Inactive)
REMARK    1  A    between atoms: C_5  and  C_12
REMARK    2  A    between atoms: C_6  and  O_20
REMARK    3  A    between atoms: C_8  and  O_22
REMARK    4  A    between atoms: C_9  and  O_24
REMARK    5  A    between atoms: C_10  and  O_26
REMARK    6  A    between atoms: C_17  and  O_18
REMARK                            x       y       z     vdW  Elec       q    Type
REMARK                         _______ _______ _______ _____ _____    ______ ____
ROOT
ATOM      1  O   UNL     1      10.866  17.701  30.394  0.00  0.00    +0.000 OA
ATOM      2  O   UNL     1       9.722  13.818  30.544  0.00  0.00    +0.000 OA
ATOM      3  C   UNL     1      11.477  15.361  30.263  0.00  0.00    +0.000 A 
ATOM      4  C   UNL     1      11.803  16.716  30.212  0.00  0.00    +0.000 A 
ATOM      5  C   UNL     1       9.531  17.359  30.580  0.00  0.00    +0.000 A 
ATOM      6  C   UNL     1      13.133  17.097  29.987  0.00  0.00    +0.000 A 
ATOM      7  C   UNL     1      10.077  14.993  30.484  0.00  0.00    +0.000 A 
ATOM      8  C   UNL     1       9.094  16.087  30.641  0.00  0.00    +0.000 A 
ATOM      9  C   UNL     1      12.471  14.388  30.116  0.00  0.00    +0.000 A 
ATOM     10  C   UNL     1      14.126  16.117  29.882  0.00  0.00    +0.000 A 
ATOM     11  C   UNL     1      13.797  14.766  29.934  0.00  0.00    +0.000 A 
ENDROOT
BRANCH   5  12
ATOM     12  C   UNL     1       8.650  18.536  30.722  0.00  0.00    +0.000 A 
ATOM     13  C   UNL     1       8.967  19.723  30.050  0.00  0.00    +0.000 A 
ATOM     14  C   UNL     1       7.462  18.489  31.458  0.00  0.00    +0.000 A 
ATOM     15  C   UNL     1       8.136  20.839  30.128  0.00  0.00    +0.000 A 
ATOM     16  C   UNL     1       6.623  19.598  31.545  0.00  0.00    +0.000 A 
ATOM     17  C   UNL     1       6.968  20.766  30.878  0.00  0.00    +0.000 A 
BRANCH  17  18
ATOM     18  O   UNL     1       6.133  21.841  30.974  0.00  0.00    +0.000 OA
ATOM     19  H   UNL     1       5.525  21.686  31.718  0.00  0.00    +0.000 HD
ENDBRANCH  17  18
ENDBRANCH   5  12
BRANCH   6  20
ATOM     20  O   UNL     1      13.500  18.421  29.960  0.00  0.00    +0.000 OA
ATOM     21  C   UNL     1      13.812  18.887  31.252  0.00  0.00    +0.000 C 
ENDBRANCH   6  20
BRANCH   8  22
ATOM     22  O   UNL     1       7.780  15.722  30.864  0.00  0.00    +0.000 OA
ATOM     23  H   UNL     1       7.683  14.827  30.474  0.00  0.00    +0.000 HD
ENDBRANCH   8  22
BRANCH   9  24
ATOM     24  O   UNL     1      12.218  13.044  30.160  0.00  0.00    +0.000 OA
ATOM     25  H   UNL     1      11.448  12.884  30.751  0.00  0.00    +0.000 HD
ENDBRANCH   9  24
BRANCH  10  26
ATOM     26  O   UNL     1      15.435  16.487  29.743  0.00  0.00    +0.000 OA
ATOM     27  H   UNL     1      15.853  15.908  29.079  0.00  0.00    +0.000 HD
ENDBRANCH  10  26
TORSDOF 6
ENDMDL
MODEL 4
REMARK VINA RESULT:      -5.4     19.822     21.783
REMARK  Name = 5281698_sexangularetin.pdbqt.pdb
REMARK  6 active torsions:
REMARK  status: ('A' for Active; 'I' for Inactive)
REMARK    1  A    between atoms: C_5  and  C_12
REMARK    2  A    between atoms: C_6  and  O_20
REMARK    3  A    between atoms: C_8  and  O_22
REMARK    4  A    between atoms: C_9  and  O_24
REMARK    5  A    between atoms: C_10  and  O_26
REMARK    6  A    between atoms: C_17  and  O_18
REMARK                            x       y       z     vdW  Elec       q    Type
REMARK                         _______ _______ _______ _____ _____    ______ ____
ROOT
ATOM      1  O   UNL     1      25.691  12.749  23.927  0.00  0.00    +0.000 OA
ATOM      2  O   UNL     1      23.140   9.693  24.680  0.00  0.00    +0.000 OA
ATOM      3  C   UNL     1      23.732  11.934  25.094  0.00  0.00    +0.000 A 
ATOM      4  C   UNL     1      24.651  12.940  24.801  0.00  0.00    +0.000 A 
ATOM      5  C   UNL     1      25.886  11.500  23.348  0.00  0.00    +0.000 A 
ATOM      6  C   UNL     1      24.508  14.201  25.397  0.00  0.00    +0.000 A 
ATOM      7  C   UNL     1      23.915  10.623  24.468  0.00  0.00    +0.000 A 
ATOM      8  C   UNL     1      25.070  10.450  23.559  0.00  0.00    +0.000 A 
ATOM      9  C   UNL     1      22.659  12.184  25.957  0.00  0.00    +0.000 A 
ATOM     10  C   UNL     1      23.410  14.453  26.227  0.00  0.00    +0.000 A 
ATOM     11  C   UNL     1      22.493  13.446  26.518  0.00  0.00    +0.000 A 
ENDROOT
BRANCH   5  12
ATOM     12  C   UNL     1      27.068  11.454  22.464  0.00  0.00    +0.000 A 
ATOM     13  C   UNL     1      28.282  10.958  22.955  0.00  0.00    +0.000 A 
ATOM     14  C   UNL     1      27.003  11.829  21.118  0.00  0.00    +0.000 A 
ATOM     15  C   UNL     1      29.405  10.861  22.137  0.00  0.00    +0.000 A 
ATOM     16  C   UNL     1      28.120  11.739  20.289  0.00  0.00    +0.000 A 
ATOM     17  C   UNL     1      29.314  11.254  20.807  0.00  0.00    +0.000 A 
BRANCH  17  18
ATOM     18  O   UNL     1      30.395  11.172  19.979  0.00  0.00    +0.000 OA
ATOM     19  H   UNL     1      30.431  11.985  19.446  0.00  0.00    +0.000 HD
ENDBRANCH  17  18
ENDBRANCH   5  12
BRANCH   6  20
ATOM     20  O   UNL     1      25.374  15.228  25.111  0.00  0.00    +0.000 OA
ATOM     21  C   UNL     1      26.455  15.246  26.013  0.00  0.00    +0.000 C 
ENDBRANCH   6  20
BRANCH   8  22
ATOM     22  O   UNL     1      25.220   9.211  22.965  0.00  0.00    +0.000 OA
ATOM     23  H   UNL     1      24.438   9.099  22.384  0.00  0.00    +0.000 HD
ENDBRANCH   8  22
BRANCH   9  24
ATOM     24  O   UNL     1      21.723  11.242  26.282  0.00  0.00    +0.000 OA
ATOM     25  H   UNL     1      21.448  11.375  27.218  0.00  0.00    +0.000 HD
ENDBRANCH   9  24
BRANCH  10  26
ATOM     26  O   UNL     1      23.222  15.704  26.746  0.00  0.00    +0.000 OA
ATOM     27  H   UNL     1      22.266  15.897  26.755  0.00  0.00    +0.000 HD
ENDBRANCH  10  26
TORSDOF 6
ENDMDL
MODEL 5
REMARK VINA RESULT:      -5.4     13.011     14.885
REMARK  Name = 5281698_sexangularetin.pdbqt.pdb
REMARK  6 active torsions:
REMARK  status: ('A' for Active; 'I' for Inactive)
REMARK    1  A    between atoms: C_5  and  C_12
REMARK    2  A    between atoms: C_6  and  O_20
REMARK    3  A    between atoms: C_8  and  O_22
REMARK    4  A    between atoms: C_9  and  O_24
REMARK    5  A    between atoms: C_10  and  O_26
REMARK    6  A    between atoms: C_17  and  O_18
REMARK                            x       y       z     vdW  Elec       q    Type
REMARK                         _______ _______ _______ _____ _____    ______ ____
ROOT
ATOM      1  O   UNL     1      23.418  21.971  26.666  0.00  0.00    +0.000 OA
ATOM      2  O   UNL     1      22.706  20.043  23.174  0.00  0.00    +0.000 OA
ATOM      3  C   UNL     1      22.550  20.020  25.522  0.00  0.00    +0.000 A 
ATOM      4  C   UNL     1      22.833  20.730  26.688  0.00  0.00    +0.000 A 
ATOM      5  C   UNL     1      23.802  22.530  25.452  0.00  0.00    +0.000 A 
ATOM      6  C   UNL     1      22.494  20.178  27.932  0.00  0.00    +0.000 A 
ATOM      7  C   UNL     1      22.928  20.614  24.239  0.00  0.00    +0.000 A 
ATOM      8  C   UNL     1      23.588  21.938  24.262  0.00  0.00    +0.000 A 
ATOM      9  C   UNL     1      21.912  18.776  25.588  0.00  0.00    +0.000 A 
ATOM     10  C   UNL     1      21.820  18.953  27.985  0.00  0.00    +0.000 A 
ATOM     11  C   UNL     1      21.539  18.246  26.819  0.00  0.00    +0.000 A 
ENDROOT
BRANCH   5  12
ATOM     12  C   UNL     1      24.449  23.849  25.607  0.00  0.00    +0.000 A 
ATOM     13  C   UNL     1      25.842  23.928  25.721  0.00  0.00    +0.000 A 
ATOM     14  C   UNL     1      23.719  25.042  25.576  0.00  0.00    +0.000 A 
ATOM     15  C   UNL     1      26.488  25.158  25.825  0.00  0.00    +0.000 A 
ATOM     16  C   UNL     1      24.352  26.279  25.681  0.00  0.00    +0.000 A 
ATOM     17  C   UNL     1      25.735  26.326  25.805  0.00  0.00    +0.000 A 
BRANCH  17  18
ATOM     18  O   UNL     1      26.337  27.546  25.905  0.00  0.00    +0.000 OA
ATOM     19  H   UNL     1      25.649  28.210  26.088  0.00  0.00    +0.000 HD
ENDBRANCH  17  18
ENDBRANCH   5  12
BRANCH   6  20
ATOM     20  O   UNL     1      22.728  20.859  29.102  0.00  0.00    +0.000 OA
ATOM     21  C   UNL     1      21.653  21.715  29.414  0.00  0.00    +0.000 C 
ENDBRANCH   6  20
BRANCH   8  22
ATOM     22  O   UNL     1      23.925  22.492  23.041  0.00  0.00    +0.000 OA
ATOM     23  H   UNL     1      23.468  23.358  23.007  0.00  0.00    +0.000 HD
ENDBRANCH   8  22
BRANCH   9  24
ATOM     24  O   UNL     1      21.605  18.031  24.483  0.00  0.00    +0.000 OA
ATOM     25  H   UNL     1      22.249  17.291  24.408  0.00  0.00    +0.000 HD
ENDBRANCH   9  24
BRANCH  10  26
ATOM     26  O   UNL     1      21.417  18.450  29.190  0.00  0.00    +0.000 OA
ATOM     27  H   UNL     1      21.195  19.194  29.780  0.00  0.00    +0.000 HD
ENDBRANCH  10  26
TORSDOF 6
ENDMDL
MODEL 6
REMARK VINA RESULT:      -5.3     22.874     25.992
REMARK  Name = 5281698_sexangularetin.pdbqt.pdb
REMARK  6 active torsions:
REMARK  status: ('A' for Active; 'I' for Inactive)
REMARK    1  A    between atoms: C_5  and  C_12
REMARK    2  A    between atoms: C_6  and  O_20
REMARK    3  A    between atoms: C_8  and  O_22
REMARK    4  A    between atoms: C_9  and  O_24
REMARK    5  A    between atoms: C_10  and  O_26
REMARK    6  A    between atoms: C_17  and  O_18
REMARK                            x       y       z     vdW  Elec       q    Type
REMARK                         _______ _______ _______ _____ _____    ______ ____
ROOT
ATOM      1  O   UNL     1      19.363  29.944   5.921  0.00  0.00    +0.000 OA
ATOM      2  O   UNL     1      23.074  28.627   6.873  0.00  0.00    +0.000 OA
ATOM      3  C   UNL     1      21.255  28.530   5.382  0.00  0.00    +0.000 A 
ATOM      4  C   UNL     1      19.976  29.015   5.117  0.00  0.00    +0.000 A 
ATOM      5  C   UNL     1      20.002  30.385   7.075  0.00  0.00    +0.000 A 
ATOM      6  C   UNL     1      19.287  28.562   3.983  0.00  0.00    +0.000 A 
ATOM      7  C   UNL     1      21.944  29.010   6.582  0.00  0.00    +0.000 A 
ATOM      8  C   UNL     1      21.234  29.985   7.440  0.00  0.00    +0.000 A 
ATOM      9  C   UNL     1      21.861  27.617   4.512  0.00  0.00    +0.000 A 
ATOM     10  C   UNL     1      19.916  27.680   3.098  0.00  0.00    +0.000 A 
ATOM     11  C   UNL     1      21.195  27.198   3.365  0.00  0.00    +0.000 A 
ENDROOT
BRANCH   5  12
ATOM     12  C   UNL     1      19.192  31.353   7.844  0.00  0.00    +0.000 A 
ATOM     13  C   UNL     1      18.134  30.894   8.637  0.00  0.00    +0.000 A 
ATOM     14  C   UNL     1      19.490  32.719   7.863  0.00  0.00    +0.000 A 
ATOM     15  C   UNL     1      17.378  31.774   9.409  0.00  0.00    +0.000 A 
ATOM     16  C   UNL     1      18.740  33.610   8.629  0.00  0.00    +0.000 A 
ATOM     17  C   UNL     1      17.688  33.128   9.397  0.00  0.00    +0.000 A 
BRANCH  17  18
ATOM     18  O   UNL     1      16.968  34.016  10.142  0.00  0.00    +0.000 OA
ATOM     19  H   UNL     1      17.130  33.825  11.082  0.00  0.00    +0.000 HD
ENDBRANCH  17  18
ENDBRANCH   5  12
BRANCH   6  20
ATOM     20  O   UNL     1      18.037  29.038   3.670  0.00  0.00    +0.000 OA
ATOM     21  C   UNL     1      18.117  30.126   2.778  0.00  0.00    +0.000 C 
ENDBRANCH   6  20
BRANCH   8  22
ATOM     22  O   UNL     1      21.904  30.439   8.560  0.00  0.00    +0.000 OA
ATOM     23  H   UNL     1      22.634  31.001   8.223  0.00  0.00    +0.000 HD
ENDBRANCH   8  22
BRANCH   9  24
ATOM     24  O   UNL     1      23.114  27.106   4.714  0.00  0.00    +0.000 OA
ATOM     25  H   UNL     1      23.778  27.804   4.514  0.00  0.00    +0.000 HD
ENDBRANCH   9  24
BRANCH  10  26
ATOM     26  O   UNL     1      19.280  27.299   1.950  0.00  0.00    +0.000 OA
ATOM     27  H   UNL     1      19.431  27.980   1.269  0.00  0.00    +0.000 HD
ENDBRANCH  10  26
TORSDOF 6
ENDMDL
MODEL 7
REMARK VINA RESULT:      -5.3     17.652     19.658
REMARK  Name = 5281698_sexangularetin.pdbqt.pdb
REMARK  6 active torsions:
REMARK  status: ('A' for Active; 'I' for Inactive)
REMARK    1  A    between atoms: C_5  and  C_12
REMARK    2  A    between atoms: C_6  and  O_20
REMARK    3  A    between atoms: C_8  and  O_22
REMARK    4  A    between atoms: C_9  and  O_24
REMARK    5  A    between atoms: C_10  and  O_26
REMARK    6  A    between atoms: C_17  and  O_18
REMARK                            x       y       z     vdW  Elec       q    Type
REMARK                         _______ _______ _______ _____ _____    ______ ____
ROOT
ATOM      1  O   UNL     1      24.884  13.951  24.890  0.00  0.00    +0.000 OA
ATOM      2  O   UNL     1      22.095  11.491  26.496  0.00  0.00    +0.000 OA
ATOM      3  C   UNL     1      23.881  11.749  24.985  0.00  0.00    +0.000 A 
ATOM      4  C   UNL     1      24.809  12.649  24.464  0.00  0.00    +0.000 A 
ATOM      5  C   UNL     1      23.975  14.423  25.830  0.00  0.00    +0.000 A 
ATOM      6  C   UNL     1      25.717  12.217  23.487  0.00  0.00    +0.000 A 
ATOM      7  C   UNL     1      22.936  12.232  25.994  0.00  0.00    +0.000 A 
ATOM      8  C   UNL     1      23.029  13.652  26.399  0.00  0.00    +0.000 A 
ATOM      9  C   UNL     1      23.868  10.417  24.555  0.00  0.00    +0.000 A 
ATOM     10  C   UNL     1      25.722  10.874  23.092  0.00  0.00    +0.000 A 
ATOM     11  C   UNL     1      24.794   9.978  23.614  0.00  0.00    +0.000 A 
ENDROOT
BRANCH   5  12
ATOM     12  C   UNL     1      24.170  15.852  26.150  0.00  0.00    +0.000 A 
ATOM     13  C   UNL     1      25.138  16.226  27.090  0.00  0.00    +0.000 A 
ATOM     14  C   UNL     1      23.462  16.863  25.492  0.00  0.00    +0.000 A 
ATOM     15  C   UNL     1      25.378  17.566  27.384  0.00  0.00    +0.000 A 
ATOM     16  C   UNL     1      23.690  18.208  25.779  0.00  0.00    +0.000 A 
ATOM     17  C   UNL     1      24.649  18.548  26.724  0.00  0.00    +0.000 A 
BRANCH  17  18
ATOM     18  O   UNL     1      24.859  19.870  26.990  0.00  0.00    +0.000 OA
ATOM     19  H   UNL     1      25.668  19.947  27.525  0.00  0.00    +0.000 HD
ENDBRANCH  17  18
ENDBRANCH   5  12
BRANCH   6  20
ATOM     20  O   UNL     1      26.667  13.064  22.971  0.00  0.00    +0.000 OA
ATOM     21  C   UNL     1      27.825  13.075  23.772  0.00  0.00    +0.000 C 
ENDBRANCH   6  20
BRANCH   8  22
ATOM     22  O   UNL     1      22.141  14.088  27.363  0.00  0.00    +0.000 OA
ATOM     23  H   UNL     1      22.468  14.967  27.649  0.00  0.00    +0.000 HD
ENDBRANCH   8  22
BRANCH   9  24
ATOM     24  O   UNL     1      22.986   9.485  25.027  0.00  0.00    +0.000 OA
ATOM     25  H   UNL     1      23.490   8.753  25.449  0.00  0.00    +0.000 HD
ENDBRANCH   9  24
BRANCH  10  26
ATOM     26  O   UNL     1      26.657  10.431  22.200  0.00  0.00    +0.000 OA
ATOM     27  H   UNL     1      27.062   9.616  22.551  0.00  0.00    +0.000 HD
ENDBRANCH  10  26
TORSDOF 6
ENDMDL
MODEL 8
REMARK VINA RESULT:      -5.2     17.428     19.073
REMARK  Name = 5281698_sexangularetin.pdbqt.pdb
REMARK  6 active torsions:
REMARK  status: ('A' for Active; 'I' for Inactive)
REMARK    1  A    between atoms: C_5  and  C_12
REMARK    2  A    between atoms: C_6  and  O_20
REMARK    3  A    between atoms: C_8  and  O_22
REMARK    4  A    between atoms: C_9  and  O_24
REMARK    5  A    between atoms: C_10  and  O_26
REMARK    6  A    between atoms: C_17  and  O_18
REMARK                            x       y       z     vdW  Elec       q    Type
REMARK                         _______ _______ _______ _____ _____    ______ ____
ROOT
ATOM      1  O   UNL     1      24.245  14.340  25.061  0.00  0.00    +0.000 OA
ATOM      2  O   UNL     1      28.032  15.606  24.380  0.00  0.00    +0.000 OA
ATOM      3  C   UNL     1      26.452  13.873  24.180  0.00  0.00    +0.000 A 
ATOM      4  C   UNL     1      25.139  13.495  24.454  0.00  0.00    +0.000 A 
ATOM      5  C   UNL     1      24.660  15.599  25.478  0.00  0.00    +0.000 A 
ATOM      6  C   UNL     1      24.697  12.217  24.082  0.00  0.00    +0.000 A 
ATOM      7  C   UNL     1      26.889  15.208  24.593  0.00  0.00    +0.000 A 
ATOM      8  C   UNL     1      25.904  16.075  25.276  0.00  0.00    +0.000 A 
ATOM      9  C   UNL     1      27.319  12.996  23.518  0.00  0.00    +0.000 A 
ATOM     10  C   UNL     1      25.559  11.362  23.385  0.00  0.00    +0.000 A 
ATOM     11  C   UNL     1      26.870  11.743  23.114  0.00  0.00    +0.000 A 
ENDROOT
BRANCH   5  12
ATOM     12  C   UNL     1      23.588  16.366  26.145  0.00  0.00    +0.000 A 
ATOM     13  C   UNL     1      23.294  16.117  27.492  0.00  0.00    +0.000 A 
ATOM     14  C   UNL     1      22.893  17.390  25.495  0.00  0.00    +0.000 A 
ATOM     15  C   UNL     1      22.319  16.851  28.164  0.00  0.00    +0.000 A 
ATOM     16  C   UNL     1      21.914  18.130  26.155  0.00  0.00    +0.000 A 
ATOM     17  C   UNL     1      21.635  17.853  27.487  0.00  0.00    +0.000 A 
BRANCH  17  18
ATOM     18  O   UNL     1      20.675  18.590  28.117  0.00  0.00    +0.000 OA
ATOM     19  H   UNL     1      20.086  18.964  27.438  0.00  0.00    +0.000 HD
ENDBRANCH  17  18
ENDBRANCH   5  12
BRANCH   6  20
ATOM     20  O   UNL     1      23.402  11.817  24.306  0.00  0.00    +0.000 OA
ATOM     21  C   UNL     1      23.279  11.166  25.549  0.00  0.00    +0.000 C 
ENDBRANCH   6  20
BRANCH   8  22
ATOM     22  O   UNL     1      26.328  17.337  25.646  0.00  0.00    +0.000 OA
ATOM     23  H   UNL     1      25.711  17.962  25.210  0.00  0.00    +0.000 HD
ENDBRANCH   8  22
BRANCH   9  24
ATOM     24  O   UNL     1      28.616  13.308  23.219  0.00  0.00    +0.000 OA
ATOM     25  H   UNL     1      28.716  14.287  23.211  0.00  0.00    +0.000 HD
ENDBRANCH   9  24
BRANCH  10  26
ATOM     26  O   UNL     1      25.107  10.148  22.950  0.00  0.00    +0.000 OA
ATOM     27  H   UNL     1      25.575   9.447  23.443  0.00  0.00    +0.000 HD
ENDBRANCH  10  26
TORSDOF 6
ENDMDL
MODEL 9
REMARK VINA RESULT:      -5.2     30.515     32.008
REMARK  Name = 5281698_sexangularetin.pdbqt.pdb
REMARK  6 active torsions:
REMARK  status: ('A' for Active; 'I' for Inactive)
REMARK    1  A    between atoms: C_5  and  C_12
REMARK    2  A    between atoms: C_6  and  O_20
REMARK    3  A    between atoms: C_8  and  O_22
REMARK    4  A    between atoms: C_9  and  O_24
REMARK    5  A    between atoms: C_10  and  O_26
REMARK    6  A    between atoms: C_17  and  O_18
REMARK                            x       y       z     vdW  Elec       q    Type
REMARK                         _______ _______ _______ _____ _____    ______ ____
ROOT
ATOM      1  O   UNL     1      19.041  -1.594  16.361  0.00  0.00    +0.000 OA
ATOM      2  O   UNL     1      21.505   1.081  18.147  0.00  0.00    +0.000 OA
ATOM      3  C   UNL     1      19.756  -0.477  18.388  0.00  0.00    +0.000 A 
ATOM      4  C   UNL     1      18.931  -1.374  17.711  0.00  0.00    +0.000 A 
ATOM      5  C   UNL     1      19.960  -0.865  15.616  0.00  0.00    +0.000 A 
ATOM      6  C   UNL     1      17.967  -2.098  18.426  0.00  0.00    +0.000 A 
ATOM      7  C   UNL     1      20.744   0.276  17.613  0.00  0.00    +0.000 A 
ATOM      8  C   UNL     1      20.806   0.034  16.155  0.00  0.00    +0.000 A 
ATOM      9  C   UNL     1      19.641  -0.315  19.773  0.00  0.00    +0.000 A 
ATOM     10  C   UNL     1      17.886  -1.959  19.816  0.00  0.00    +0.000 A 
ATOM     11  C   UNL     1      18.711  -1.062  20.488  0.00  0.00    +0.000 A 
ENDROOT
BRANCH   5  12
ATOM     12  C   UNL     1      19.924  -1.196  14.177  0.00  0.00    +0.000 A 
ATOM     13  C   UNL     1      20.916  -2.019  13.630  0.00  0.00    +0.000 A 
ATOM     14  C   UNL     1      18.886  -0.768  13.343  0.00  0.00    +0.000 A 
ATOM     15  C   UNL     1      20.889  -2.386  12.286  0.00  0.00    +0.000 A 
ATOM     16  C   UNL     1      18.847  -1.126  11.997  0.00  0.00    +0.000 A 
ATOM     17  C   UNL     1      19.852  -1.934  11.479  0.00  0.00    +0.000 A 
BRANCH  17  18
ATOM     18  O   UNL     1      19.795  -2.275  10.159  0.00  0.00    +0.000 OA
ATOM     19  H   UNL     1      19.441  -1.515   9.664  0.00  0.00    +0.000 HD
ENDBRANCH  17  18
ENDBRANCH   5  12
BRANCH   6  20
ATOM     20  O   UNL     1      17.155  -3.014  17.802  0.00  0.00    +0.000 OA
ATOM     21  C   UNL     1      17.772  -4.279  17.741  0.00  0.00    +0.000 C 
ENDBRANCH   6  20
BRANCH   8  22
ATOM     22  O   UNL     1      21.754   0.741  15.441  0.00  0.00    +0.000 OA
ATOM     23  H   UNL     1      22.533   0.813  16.032  0.00  0.00    +0.000 HD
ENDBRANCH   8  22
BRANCH   9  24
ATOM     24  O   UNL     1      20.421   0.546  20.495  0.00  0.00    +0.000 OA
ATOM     25  H   UNL     1      20.076   1.460  20.381  0.00  0.00    +0.000 HD
ENDBRANCH   9  24
BRANCH  10  26
ATOM     26  O   UNL     1      17.002  -2.722  20.526  0.00  0.00    +0.000 OA
ATOM     27  H   UNL     1      17.294  -3.652  20.491  0.00  0.00    +0.000 HD
ENDBRANCH  10  26
TORSDOF 6
ENDMDL
