MODEL 1
REMARK VINA RESULT:      -6.5      0.000      0.000
REMARK  Name = 5289155_Peridinin.pdbqt.pdb
REMARK  13 active torsions:
REMARK  status: ('A' for Active; 'I' for Inactive)
REMARK    1  A    between atoms: C_1  and  C_3
REMARK    2  A    between atoms: C_3  and  C_25
REMARK    3  A    between atoms: C_6  and  C_12
REMARK    4  A    between atoms: C_11  and  C_14
REMARK    5  A    between atoms: C_19  and  O_23
REMARK    6  A    between atoms: C_26  and  C_28
REMARK    7  A    between atoms: C_27  and  C_31
REMARK    8  A    between atoms: C_29  and  C_31
REMARK    9  A    between atoms: C_29  and  C_42
REMARK   10  A    between atoms: C_33  and  O_43
REMARK   11  A    between atoms: C_35  and  O_45
REMARK   12  A    between atoms: C_37  and  C_41
REMARK   13  A    between atoms: O_45  and  C_47
REMARK                            x       y       z     vdW  Elec       q    Type
REMARK                         _______ _______ _______ _____ _____    ______ ____
ROOT
ATOM      1  C   UNL     1      27.971   8.599  20.040  0.00  0.00    +0.000 C 
ENDROOT
BRANCH   1   2
ATOM      2  C   UNL     1      28.237   9.853  20.232  0.00  0.00    +0.000 C 
ATOM      3  C   UNL     1      28.269  10.412  21.621  0.00  0.00    +0.000 C 
ATOM      4  O   UNL     1      28.279  11.168  16.876  0.00  0.00    +0.000 OA
ATOM      5  O   UNL     1      28.109  12.546  15.020  0.00  0.00    +0.000 OA
ATOM      6  C   UNL     1      29.023  13.360  17.103  0.00  0.00    +0.000 C 
ATOM      7  C   UNL     1      29.216  12.784  18.234  0.00  0.00    +0.000 C 
ATOM      8  C   UNL     1      28.428  12.363  16.181  0.00  0.00    +0.000 C 
ATOM      9  C   UNL     1      28.811  11.456  18.130  0.00  0.00    +0.000 C 
ATOM     10  C   UNL     1      28.535  10.689  19.133  0.00  0.00    +0.000 C 
BRANCH   6  12
ATOM     11  C   UNL     1      29.580  15.859  16.604  0.00  0.00    +0.000 C 
ATOM     12  C   UNL     1      29.324  14.709  16.839  0.00  0.00    +0.000 C 
BRANCH  11  14
ATOM     13  O   UNL     1      30.873  17.318  15.233  0.00  0.00    +0.000 OA
ATOM     14  C   UNL     1      29.894  17.248  16.310  0.00  0.00    +0.000 C 
ATOM     15  C   UNL     1      29.576  17.815  14.910  0.00  0.00    +0.000 C 
ATOM     16  C   UNL     1      30.081  18.264  17.491  0.00  0.00    +0.000 C 
ATOM     17  C   UNL     1      29.562  19.236  14.769  0.00  0.00    +0.000 C 
ATOM     18  C   UNL     1      30.075  19.608  16.906  0.00  0.00    +0.000 C 
ATOM     19  C   UNL     1      29.825  20.267  15.687  0.00  0.00    +0.000 C 
ATOM     20  C   UNL     1      28.866  17.014  13.815  0.00  0.00    +0.000 C 
ATOM     21  C   UNL     1      28.850  18.063  18.414  0.00  0.00    +0.000 C 
ATOM     22  C   UNL     1      31.412  17.897  18.182  0.00  0.00    +0.000 C 
BRANCH  19  23
ATOM     23  O   UNL     1      29.185  21.469  15.647  0.00  0.00    +0.000 OA
ATOM     24  H   UNL     1      29.022  21.832  16.536  0.00  0.00    +0.000 HD
ENDBRANCH  19  23
ENDBRANCH  11  14
ENDBRANCH   6  12
ENDBRANCH   1   2
BRANCH   1  25
ATOM     25  C   UNL     1      27.656   7.116  19.813  0.00  0.00    +0.000 C 
ATOM     26  C   UNL     1      27.408   5.955  19.640  0.00  0.00    +0.000 C 
BRANCH  26  28
ATOM     27  C   UNL     1      26.842   3.311  19.254  0.00  0.00    +0.000 C 
ATOM     28  C   UNL     1      27.090   4.472  19.427  0.00  0.00    +0.000 C 
BRANCH  27  29
ATOM     29  C   UNL     1      26.520   1.829  19.027  0.00  0.00    +0.000 C 
BRANCH  29  30
ATOM     30  C   UNL     1      26.244   0.579  18.826  0.00  0.00    +0.000 C 
ATOM     31  C   UNL     1      27.188  -0.489  19.288  0.00  0.00    +0.000 C 
BRANCH  30  33
ATOM     32  C   UNL     1      24.073  -0.083  17.516  0.00  0.00    +0.000 C 
ATOM     33  C   UNL     1      25.070   0.220  18.116  0.00  0.00    +0.000 C 
BRANCH  32  39
ATOM     34  C   UNL     1      21.724   0.482  16.849  0.00  0.00    +0.000 C 
ATOM     35  C   UNL     1      22.876  -1.732  16.114  0.00  0.00    +0.000 C 
ATOM     36  C   UNL     1      20.774   0.053  15.813  0.00  0.00    +0.000 C 
ATOM     37  C   UNL     1      20.614  -0.989  14.877  0.00  0.00    +0.000 C 
ATOM     38  C   UNL     1      21.755  -1.759  15.181  0.00  0.00    +0.000 C 
ATOM     39  C   UNL     1      22.978  -0.411  16.859  0.00  0.00    +0.000 C 
ATOM     40  C   UNL     1      22.145   1.951  16.537  0.00  0.00    +0.000 C 
ATOM     41  C   UNL     1      21.052   0.408  18.246  0.00  0.00    +0.000 C 
ATOM     42  C   UNL     1      22.816  -2.909  17.093  0.00  0.00    +0.000 C 
BRANCH  35  43
ATOM     43  O   UNL     1      24.057  -1.937  15.370  0.00  0.00    +0.000 OA
ATOM     44  H   UNL     1      23.956  -2.869  15.101  0.00  0.00    +0.000 HD
ENDBRANCH  35  43
BRANCH  37  45
ATOM     45  O   UNL     1      19.371  -1.596  14.749  0.00  0.00    +0.000 OA
BRANCH  45  47
ATOM     46  O   UNL     1      18.756  -3.062  13.024  0.00  0.00    +0.000 OA
ATOM     47  C   UNL     1      19.193  -2.018  13.473  0.00  0.00    +0.000 C 
ATOM     48  C   UNL     1      19.619  -1.035  12.441  0.00  0.00    +0.000 C 
ENDBRANCH  45  47
ENDBRANCH  37  45
ENDBRANCH  32  39
ENDBRANCH  30  33
ENDBRANCH  29  30
ENDBRANCH  27  29
ENDBRANCH  26  28
ENDBRANCH   1  25
TORSDOF 13
ENDMDL
MODEL 2
REMARK VINA RESULT:      -6.2     28.431     33.919
REMARK  Name = 5289155_Peridinin.pdbqt.pdb
REMARK  13 active torsions:
REMARK  status: ('A' for Active; 'I' for Inactive)
REMARK    1  A    between atoms: C_1  and  C_3
REMARK    2  A    between atoms: C_3  and  C_25
REMARK    3  A    between atoms: C_6  and  C_12
REMARK    4  A    between atoms: C_11  and  C_14
REMARK    5  A    between atoms: C_19  and  O_23
REMARK    6  A    between atoms: C_26  and  C_28
REMARK    7  A    between atoms: C_27  and  C_31
REMARK    8  A    between atoms: C_29  and  C_31
REMARK    9  A    between atoms: C_29  and  C_42
REMARK   10  A    between atoms: C_33  and  O_43
REMARK   11  A    between atoms: C_35  and  O_45
REMARK   12  A    between atoms: C_37  and  C_41
REMARK   13  A    between atoms: O_45  and  C_47
REMARK                            x       y       z     vdW  Elec       q    Type
REMARK                         _______ _______ _______ _____ _____    ______ ____
ROOT
ATOM      1  C   UNL     1      -3.696  15.346  17.326  0.00  0.00    +0.000 C 
ENDROOT
BRANCH   1   2
ATOM      2  C   UNL     1      -3.493  14.128  17.720  0.00  0.00    +0.000 C 
ATOM      3  C   UNL     1      -4.259  13.000  17.103  0.00  0.00    +0.000 C 
ATOM      4  O   UNL     1      -1.316  14.575  20.558  0.00  0.00    +0.000 OA
ATOM      5  O   UNL     1      -0.208  14.324  22.578  0.00  0.00    +0.000 OA
ATOM      6  C   UNL     1      -0.674  12.423  21.163  0.00  0.00    +0.000 C 
ATOM      7  C   UNL     1      -1.255  12.329  20.023  0.00  0.00    +0.000 C 
ATOM      8  C   UNL     1      -0.674  13.851  21.557  0.00  0.00    +0.000 C 
ATOM      9  C   UNL     1      -1.628  13.606  19.610  0.00  0.00    +0.000 C 
ATOM     10  C   UNL     1      -2.519  13.857  18.708  0.00  0.00    +0.000 C 
BRANCH   6  12
ATOM     11  C   UNL     1       0.270  10.389  22.496  0.00  0.00    +0.000 C 
ATOM     12  C   UNL     1      -0.161  11.328  21.883  0.00  0.00    +0.000 C 
BRANCH  11  14
ATOM     13  O   UNL     1       2.194   9.059  22.952  0.00  0.00    +0.000 OA
ATOM     14  C   UNL     1       0.779   9.249  23.242  0.00  0.00    +0.000 C 
ATOM     15  C   UNL     1       1.896   9.466  24.286  0.00  0.00    +0.000 C 
ATOM     16  C   UNL     1      -0.092   7.949  23.355  0.00  0.00    +0.000 C 
ATOM     17  C   UNL     1       2.117   8.420  25.232  0.00  0.00    +0.000 C 
ATOM     18  C   UNL     1       0.516   7.114  24.394  0.00  0.00    +0.000 C 
ATOM     19  C   UNL     1       1.513   7.160  25.387  0.00  0.00    +0.000 C 
ATOM     20  C   UNL     1       2.458  10.844  24.647  0.00  0.00    +0.000 C 
ATOM     21  C   UNL     1      -1.502   8.427  23.792  0.00  0.00    +0.000 C 
ATOM     22  C   UNL     1      -0.090   7.294  21.957  0.00  0.00    +0.000 C 
BRANCH  19  23
ATOM     23  O   UNL     1       1.332   6.577  26.605  0.00  0.00    +0.000 OA
ATOM     24  H   UNL     1       1.324   7.227  27.330  0.00  0.00    +0.000 HD
ENDBRANCH  19  23
ENDBRANCH  11  14
ENDBRANCH   6  12
ENDBRANCH   1   2
BRANCH   1  25
ATOM     25  C   UNL     1      -3.937  16.787  16.861  0.00  0.00    +0.000 C 
ATOM     26  C   UNL     1      -4.130  17.913  16.494  0.00  0.00    +0.000 C 
BRANCH  26  28
ATOM     27  C   UNL     1      -4.574  20.472  15.649  0.00  0.00    +0.000 C 
ATOM     28  C   UNL     1      -4.382  19.348  16.021  0.00  0.00    +0.000 C 
BRANCH  27  29
ATOM     29  C   UNL     1      -4.812  21.912  15.176  0.00  0.00    +0.000 C 
BRANCH  29  30
ATOM     30  C   UNL     1      -5.019  23.123  14.768  0.00  0.00    +0.000 C 
ATOM     31  C   UNL     1      -6.340  23.507  14.173  0.00  0.00    +0.000 C 
BRANCH  30  33
ATOM     32  C   UNL     1      -3.086  24.888  14.890  0.00  0.00    +0.000 C 
ATOM     33  C   UNL     1      -3.974  24.080  14.833  0.00  0.00    +0.000 C 
BRANCH  32  39
ATOM     34  C   UNL     1      -2.315  27.193  15.502  0.00  0.00    +0.000 C 
ATOM     35  C   UNL     1      -0.724  25.446  14.414  0.00  0.00    +0.000 C 
ATOM     36  C   UNL     1      -1.028  27.861  15.743  0.00  0.00    +0.000 C 
ATOM     37  C   UNL     1       0.348  27.634  15.536  0.00  0.00    +0.000 C 
ATOM     38  C   UNL     1       0.288  26.390  14.876  0.00  0.00    +0.000 C 
ATOM     39  C   UNL     1      -2.109  25.771  14.949  0.00  0.00    +0.000 C 
ATOM     40  C   UNL     1      -3.074  27.108  16.862  0.00  0.00    +0.000 C 
ATOM     41  C   UNL     1      -3.150  28.007  14.478  0.00  0.00    +0.000 C 
ATOM     42  C   UNL     1      -0.737  25.345  12.886  0.00  0.00    +0.000 C 
BRANCH  35  43
ATOM     43  O   UNL     1      -0.345  24.162  14.861  0.00  0.00    +0.000 OA
ATOM     44  H   UNL     1      -1.214  23.728  14.959  0.00  0.00    +0.000 HD
ENDBRANCH  35  43
BRANCH  37  45
ATOM     45  O   UNL     1       1.133  28.662  15.028  0.00  0.00    +0.000 OA
BRANCH  45  47
ATOM     46  O   UNL     1       0.437  28.623  12.789  0.00  0.00    +0.000 OA
ATOM     47  C   UNL     1       0.587  29.136  13.882  0.00  0.00    +0.000 C 
ATOM     48  C   UNL     1       0.095  30.538  13.977  0.00  0.00    +0.000 C 
ENDBRANCH  45  47
ENDBRANCH  37  45
ENDBRANCH  32  39
ENDBRANCH  30  33
ENDBRANCH  29  30
ENDBRANCH  27  29
ENDBRANCH  26  28
ENDBRANCH   1  25
TORSDOF 13
ENDMDL
MODEL 3
REMARK VINA RESULT:      -6.2      5.909      7.654
REMARK  Name = 5289155_Peridinin.pdbqt.pdb
REMARK  13 active torsions:
REMARK  status: ('A' for Active; 'I' for Inactive)
REMARK    1  A    between atoms: C_1  and  C_3
REMARK    2  A    between atoms: C_3  and  C_25
REMARK    3  A    between atoms: C_6  and  C_12
REMARK    4  A    between atoms: C_11  and  C_14
REMARK    5  A    between atoms: C_19  and  O_23
REMARK    6  A    between atoms: C_26  and  C_28
REMARK    7  A    between atoms: C_27  and  C_31
REMARK    8  A    between atoms: C_29  and  C_31
REMARK    9  A    between atoms: C_29  and  C_42
REMARK   10  A    between atoms: C_33  and  O_43
REMARK   11  A    between atoms: C_35  and  O_45
REMARK   12  A    between atoms: C_37  and  C_41
REMARK   13  A    between atoms: O_45  and  C_47
REMARK                            x       y       z     vdW  Elec       q    Type
REMARK                         _______ _______ _______ _____ _____    ______ ____
ROOT
ATOM      1  C   UNL     1      27.661   8.743  21.227  0.00  0.00    +0.000 C 
ENDROOT
BRANCH   1   2
ATOM      2  C   UNL     1      27.778   9.902  21.795  0.00  0.00    +0.000 C 
ATOM      3  C   UNL     1      29.069  10.655  21.710  0.00  0.00    +0.000 C 
ATOM      4  O   UNL     1      24.696  10.186  23.642  0.00  0.00    +0.000 OA
ATOM      5  O   UNL     1      23.084  10.721  25.220  0.00  0.00    +0.000 OA
ATOM      6  C   UNL     1      24.695  12.358  24.473  0.00  0.00    +0.000 C 
ATOM      7  C   UNL     1      25.652  12.288  23.620  0.00  0.00    +0.000 C 
ATOM      8  C   UNL     1      24.034  11.033  24.524  0.00  0.00    +0.000 C 
ATOM      9  C   UNL     1      25.666  11.007  23.075  0.00  0.00    +0.000 C 
ATOM     10  C   UNL     1      26.674  10.477  22.464  0.00  0.00    +0.000 C 
BRANCH   6  12
ATOM     11  C   UNL     1      24.104  14.495  25.848  0.00  0.00    +0.000 C 
ATOM     12  C   UNL     1      24.381  13.510  25.217  0.00  0.00    +0.000 C 
BRANCH  11  14
ATOM     13  O   UNL     1      22.370  15.624  27.031  0.00  0.00    +0.000 OA
ATOM     14  C   UNL     1      23.761  15.689  26.604  0.00  0.00    +0.000 C 
ATOM     15  C   UNL     1      23.332  15.553  28.080  0.00  0.00    +0.000 C 
ATOM     16  C   UNL     1      24.278  17.086  26.113  0.00  0.00    +0.000 C 
ATOM     17  C   UNL     1      23.351  16.738  28.877  0.00  0.00    +0.000 C 
ATOM     18  C   UNL     1      24.053  18.036  27.207  0.00  0.00    +0.000 C 
ATOM     19  C   UNL     1      23.666  18.070  28.560  0.00  0.00    +0.000 C 
ATOM     20  C   UNL     1      23.318  14.222  28.837  0.00  0.00    +0.000 C 
ATOM     21  C   UNL     1      25.796  16.903  25.850  0.00  0.00    +0.000 C 
ATOM     22  C   UNL     1      23.486  17.424  24.831  0.00  0.00    +0.000 C 
BRANCH  19  23
ATOM     23  O   UNL     1      24.258  18.917  29.448  0.00  0.00    +0.000 OA
ATOM     24  H   UNL     1      25.203  19.053  29.257  0.00  0.00    +0.000 HD
ENDBRANCH  19  23
ENDBRANCH  11  14
ENDBRANCH   6  12
ENDBRANCH   1   2
BRANCH   1  25
ATOM     25  C   UNL     1      27.522   7.372  20.555  0.00  0.00    +0.000 C 
ATOM     26  C   UNL     1      27.409   6.301  20.026  0.00  0.00    +0.000 C 
BRANCH  26  28
ATOM     27  C   UNL     1      27.139   3.869  18.812  0.00  0.00    +0.000 C 
ATOM     28  C   UNL     1      27.261   4.937  19.344  0.00  0.00    +0.000 C 
BRANCH  27  29
ATOM     29  C   UNL     1      26.978   2.502  18.136  0.00  0.00    +0.000 C 
BRANCH  29  30
ATOM     30  C   UNL     1      26.838   1.343  17.574  0.00  0.00    +0.000 C 
ATOM     31  C   UNL     1      28.042   0.533  17.198  0.00  0.00    +0.000 C 
BRANCH  30  33
ATOM     32  C   UNL     1      24.443   0.452  16.996  0.00  0.00    +0.000 C 
ATOM     33  C   UNL     1      25.542   0.860  17.263  0.00  0.00    +0.000 C 
BRANCH  32  39
ATOM     34  C   UNL     1      21.969   0.847  16.900  0.00  0.00    +0.000 C 
ATOM     35  C   UNL     1      23.037  -1.416  16.190  0.00  0.00    +0.000 C 
ATOM     36  C   UNL     1      20.816   0.245  16.216  0.00  0.00    +0.000 C 
ATOM     37  C   UNL     1      20.490  -0.926  15.502  0.00  0.00    +0.000 C 
ATOM     38  C   UNL     1      21.719  -1.611  15.595  0.00  0.00    +0.000 C 
ATOM     39  C   UNL     1      23.240   0.002  16.699  0.00  0.00    +0.000 C 
ATOM     40  C   UNL     1      22.199   2.267  16.296  0.00  0.00    +0.000 C 
ATOM     41  C   UNL     1      21.683   0.958  18.421  0.00  0.00    +0.000 C 
ATOM     42  C   UNL     1      23.306  -2.440  17.297  0.00  0.00    +0.000 C 
BRANCH  35  43
ATOM     43  O   UNL     1      23.999  -1.693  15.196  0.00  0.00    +0.000 OA
ATOM     44  H   UNL     1      23.573  -1.314  14.404  0.00  0.00    +0.000 HD
ENDBRANCH  35  43
BRANCH  37  45
ATOM     45  O   UNL     1      19.298  -1.580  15.787  0.00  0.00    +0.000 OA
BRANCH  45  47
ATOM     46  O   UNL     1      19.856  -2.911  17.635  0.00  0.00    +0.000 OA
ATOM     47  C   UNL     1      19.291  -1.987  17.079  0.00  0.00    +0.000 C 
ATOM     48  C   UNL     1      18.432  -1.164  17.973  0.00  0.00    +0.000 C 
ENDBRANCH  45  47
ENDBRANCH  37  45
ENDBRANCH  32  39
ENDBRANCH  30  33
ENDBRANCH  29  30
ENDBRANCH  27  29
ENDBRANCH  26  28
ENDBRANCH   1  25
TORSDOF 13
ENDMDL
MODEL 4
REMARK VINA RESULT:      -6.2      8.203     12.008
REMARK  Name = 5289155_Peridinin.pdbqt.pdb
REMARK  13 active torsions:
REMARK  status: ('A' for Active; 'I' for Inactive)
REMARK    1  A    between atoms: C_1  and  C_3
REMARK    2  A    between atoms: C_3  and  C_25
REMARK    3  A    between atoms: C_6  and  C_12
REMARK    4  A    between atoms: C_11  and  C_14
REMARK    5  A    between atoms: C_19  and  O_23
REMARK    6  A    between atoms: C_26  and  C_28
REMARK    7  A    between atoms: C_27  and  C_31
REMARK    8  A    between atoms: C_29  and  C_31
REMARK    9  A    between atoms: C_29  and  C_42
REMARK   10  A    between atoms: C_33  and  O_43
REMARK   11  A    between atoms: C_35  and  O_45
REMARK   12  A    between atoms: C_37  and  C_41
REMARK   13  A    between atoms: O_45  and  C_47
REMARK                            x       y       z     vdW  Elec       q    Type
REMARK                         _______ _______ _______ _____ _____    ______ ____
ROOT
ATOM      1  C   UNL     1      30.087  16.092  15.869  0.00  0.00    +0.000 C 
ENDROOT
BRANCH   1   2
ATOM      2  C   UNL     1      30.407  17.069  15.080  0.00  0.00    +0.000 C 
ATOM      3  C   UNL     1      31.345  16.837  13.936  0.00  0.00    +0.000 C 
ATOM      4  O   UNL     1      28.934  19.919  16.724  0.00  0.00    +0.000 OA
ATOM      5  O   UNL     1      28.482  22.054  17.504  0.00  0.00    +0.000 OA
ATOM      6  C   UNL     1      29.223  21.682  15.235  0.00  0.00    +0.000 C 
ATOM      7  C   UNL     1      29.518  20.608  14.599  0.00  0.00    +0.000 C 
ATOM      8  C   UNL     1      28.829  21.301  16.612  0.00  0.00    +0.000 C 
ATOM      9  C   UNL     1      29.327  19.523  15.449  0.00  0.00    +0.000 C 
ATOM     10  C   UNL     1      29.843  18.350  15.275  0.00  0.00    +0.000 C 
BRANCH   6  12
ATOM     11  C   UNL     1      29.365  24.077  14.209  0.00  0.00    +0.000 C 
ATOM     12  C   UNL     1      29.295  22.975  14.684  0.00  0.00    +0.000 C 
BRANCH  11  14
ATOM     13  O   UNL     1      30.443  25.415  12.558  0.00  0.00    +0.000 OA
ATOM     14  C   UNL     1      29.461  25.409  13.634  0.00  0.00    +0.000 C 
ATOM     15  C   UNL     1      29.093  25.620  12.150  0.00  0.00    +0.000 C 
ATOM     16  C   UNL     1      29.452  26.660  14.579  0.00  0.00    +0.000 C 
ATOM     17  C   UNL     1      28.856  26.961  11.719  0.00  0.00    +0.000 C 
ATOM     18  C   UNL     1      29.247  27.838  13.731  0.00  0.00    +0.000 C 
ATOM     19  C   UNL     1      28.927  28.186  12.405  0.00  0.00    +0.000 C 
ATOM     20  C   UNL     1      28.550  24.508  11.248  0.00  0.00    +0.000 C 
ATOM     21  C   UNL     1      28.245  26.455  15.533  0.00  0.00    +0.000 C 
ATOM     22  C   UNL     1      30.806  26.662  15.321  0.00  0.00    +0.000 C 
BRANCH  19  23
ATOM     23  O   UNL     1      28.105  29.235  12.124  0.00  0.00    +0.000 OA
ATOM     24  H   UNL     1      27.165  29.015  12.255  0.00  0.00    +0.000 HD
ENDBRANCH  19  23
ENDBRANCH  11  14
ENDBRANCH   6  12
ENDBRANCH   1   2
BRANCH   1  25
ATOM     25  C   UNL     1      29.706  14.936  16.801  0.00  0.00    +0.000 C 
ATOM     26  C   UNL     1      29.403  14.032  17.529  0.00  0.00    +0.000 C 
BRANCH  26  28
ATOM     27  C   UNL     1      28.706  11.969  19.178  0.00  0.00    +0.000 C 
ATOM     28  C   UNL     1      29.009  12.877  18.455  0.00  0.00    +0.000 C 
BRANCH  27  29
ATOM     29  C   UNL     1      28.322  10.804  20.099  0.00  0.00    +0.000 C 
BRANCH  29  30
ATOM     30  C   UNL     1      27.989   9.827  20.881  0.00  0.00    +0.000 C 
ATOM     31  C   UNL     1      28.363   8.418  20.533  0.00  0.00    +0.000 C 
BRANCH  30  33
ATOM     32  C   UNL     1      26.566  10.301  23.030  0.00  0.00    +0.000 C 
ATOM     33  C   UNL     1      27.220  10.082  22.045  0.00  0.00    +0.000 C 
BRANCH  32  39
ATOM     34  C   UNL     1      26.277  11.547  25.185  0.00  0.00    +0.000 C 
ATOM     35  C   UNL     1      24.560   9.770  24.374  0.00  0.00    +0.000 C 
ATOM     36  C   UNL     1      25.173  11.847  26.107  0.00  0.00    +0.000 C 
ATOM     37  C   UNL     1      23.854  11.422  26.367  0.00  0.00    +0.000 C 
ATOM     38  C   UNL     1      23.739  10.399  25.403  0.00  0.00    +0.000 C 
ATOM     39  C   UNL     1      25.845  10.537  24.107  0.00  0.00    +0.000 C 
ATOM     40  C   UNL     1      26.702  12.880  24.495  0.00  0.00    +0.000 C 
ATOM     41  C   UNL     1      27.476  10.952  25.971  0.00  0.00    +0.000 C 
ATOM     42  C   UNL     1      24.856   8.306  24.715  0.00  0.00    +0.000 C 
BRANCH  35  43
ATOM     43  O   UNL     1      23.795   9.721  23.189  0.00  0.00    +0.000 OA
ATOM     44  H   UNL     1      22.959   9.338  23.515  0.00  0.00    +0.000 HD
ENDBRANCH  35  43
BRANCH  37  45
ATOM     45  O   UNL     1      23.465  11.196  27.681  0.00  0.00    +0.000 OA
BRANCH  45  47
ATOM     46  O   UNL     1      24.991  12.229  29.132  0.00  0.00    +0.000 OA
ATOM     47  C   UNL     1      23.962  12.168  28.484  0.00  0.00    +0.000 C 
ATOM     48  C   UNL     1      23.089  13.367  28.602  0.00  0.00    +0.000 C 
ENDBRANCH  45  47
ENDBRANCH  37  45
ENDBRANCH  32  39
ENDBRANCH  30  33
ENDBRANCH  29  30
ENDBRANCH  27  29
ENDBRANCH  26  28
ENDBRANCH   1  25
TORSDOF 13
ENDMDL
MODEL 5
REMARK VINA RESULT:      -6.1     15.549     26.984
REMARK  Name = 5289155_Peridinin.pdbqt.pdb
REMARK  13 active torsions:
REMARK  status: ('A' for Active; 'I' for Inactive)
REMARK    1  A    between atoms: C_1  and  C_3
REMARK    2  A    between atoms: C_3  and  C_25
REMARK    3  A    between atoms: C_6  and  C_12
REMARK    4  A    between atoms: C_11  and  C_14
REMARK    5  A    between atoms: C_19  and  O_23
REMARK    6  A    between atoms: C_26  and  C_28
REMARK    7  A    between atoms: C_27  and  C_31
REMARK    8  A    between atoms: C_29  and  C_31
REMARK    9  A    between atoms: C_29  and  C_42
REMARK   10  A    between atoms: C_33  and  O_43
REMARK   11  A    between atoms: C_35  and  O_45
REMARK   12  A    between atoms: C_37  and  C_41
REMARK   13  A    between atoms: O_45  and  C_47
REMARK                            x       y       z     vdW  Elec       q    Type
REMARK                         _______ _______ _______ _____ _____    ______ ____
ROOT
ATOM      1  C   UNL     1      23.372  28.376  26.869  0.00  0.00    +0.000 C 
ENDROOT
BRANCH   1   2
ATOM      2  C   UNL     1      23.324  27.259  27.524  0.00  0.00    +0.000 C 
ATOM      3  C   UNL     1      23.263  27.264  29.020  0.00  0.00    +0.000 C 
ATOM      4  O   UNL     1      23.843  24.809  24.931  0.00  0.00    +0.000 OA
ATOM      5  O   UNL     1      24.438  22.905  23.751  0.00  0.00    +0.000 OA
ATOM      6  C   UNL     1      23.496  22.757  25.970  0.00  0.00    +0.000 C 
ATOM      7  C   UNL     1      23.095  23.660  26.789  0.00  0.00    +0.000 C 
ATOM      8  C   UNL     1      23.983  23.438  24.747  0.00  0.00    +0.000 C 
ATOM      9  C   UNL     1      23.257  24.906  26.190  0.00  0.00    +0.000 C 
ATOM     10  C   UNL     1      23.290  26.031  26.825  0.00  0.00    +0.000 C 
BRANCH   6  12
ATOM     11  C   UNL     1      23.468  20.197  26.473  0.00  0.00    +0.000 C 
ATOM     12  C   UNL     1      23.476  21.376  26.240  0.00  0.00    +0.000 C 
BRANCH  11  14
ATOM     13  O   UNL     1      24.770  18.367  27.271  0.00  0.00    +0.000 OA
ATOM     14  C   UNL     1      23.470  18.770  26.751  0.00  0.00    +0.000 C 
ATOM     15  C   UNL     1      23.692  18.282  28.199  0.00  0.00    +0.000 C 
ATOM     16  C   UNL     1      22.786  17.786  25.739  0.00  0.00    +0.000 C 
ATOM     17  C   UNL     1      23.338  16.931  28.494  0.00  0.00    +0.000 C 
ATOM     18  C   UNL     1      22.668  16.490  26.414  0.00  0.00    +0.000 C 
ATOM     19  C   UNL     1      22.836  15.900  27.681  0.00  0.00    +0.000 C 
ATOM     20  C   UNL     1      23.836  19.227  29.396  0.00  0.00    +0.000 C 
ATOM     21  C   UNL     1      21.384  18.386  25.455  0.00  0.00    +0.000 C 
ATOM     22  C   UNL     1      23.686  17.748  24.485  0.00  0.00    +0.000 C 
BRANCH  19  23
ATOM     23  O   UNL     1      21.974  14.952  28.144  0.00  0.00    +0.000 OA
ATOM     24  H   UNL     1      22.327  14.050  28.047  0.00  0.00    +0.000 HD
ENDBRANCH  19  23
ENDBRANCH  11  14
ENDBRANCH   6  12
ENDBRANCH   1   2
BRANCH   1  25
ATOM     25  C   UNL     1      23.430  29.698  26.095  0.00  0.00    +0.000 C 
ATOM     26  C   UNL     1      23.470  30.735  25.492  0.00  0.00    +0.000 C 
BRANCH  26  28
ATOM     27  C   UNL     1      23.552  33.101  24.130  0.00  0.00    +0.000 C 
ATOM     28  C   UNL     1      23.516  32.060  24.725  0.00  0.00    +0.000 C 
BRANCH  27  29
ATOM     29  C   UNL     1      23.598  34.435  23.375  0.00  0.00    +0.000 C 
BRANCH  29  30
ATOM     30  C   UNL     1      23.626  35.565  22.742  0.00  0.00    +0.000 C 
ATOM     31  C   UNL     1      24.146  36.798  23.416  0.00  0.00    +0.000 C 
BRANCH  30  33
ATOM     32  C   UNL     1      22.677  35.717  20.304  0.00  0.00    +0.000 C 
ATOM     33  C   UNL     1      23.112  35.649  21.423  0.00  0.00    +0.000 C 
BRANCH  32  39
ATOM     34  C   UNL     1      23.102  35.780  17.834  0.00  0.00    +0.000 C 
ATOM     35  C   UNL     1      20.704  35.943  18.830  0.00  0.00    +0.000 C 
ATOM     36  C   UNL     1      22.321  35.559  16.609  0.00  0.00    +0.000 C 
ATOM     37  C   UNL     1      20.975  35.443  16.207  0.00  0.00    +0.000 C 
ATOM     38  C   UNL     1      20.337  35.654  17.448  0.00  0.00    +0.000 C 
ATOM     39  C   UNL     1      22.196  35.789  19.079  0.00  0.00    +0.000 C 
ATOM     40  C   UNL     1      24.135  34.619  17.962  0.00  0.00    +0.000 C 
ATOM     41  C   UNL     1      23.843  37.142  17.751  0.00  0.00    +0.000 C 
ATOM     42  C   UNL     1      20.218  37.331  19.258  0.00  0.00    +0.000 C 
BRANCH  35  43
ATOM     43  O   UNL     1      20.001  35.040  19.655  0.00  0.00    +0.000 OA
ATOM     44  H   UNL     1      19.871  35.576  20.460  0.00  0.00    +0.000 HD
ENDBRANCH  35  43
BRANCH  37  45
ATOM     45  O   UNL     1      20.547  36.121  15.073  0.00  0.00    +0.000 OA
BRANCH  45  47
ATOM     46  O   UNL     1      21.259  35.143  13.063  0.00  0.00    +0.000 OA
ATOM     47  C   UNL     1      20.512  35.274  14.015  0.00  0.00    +0.000 C 
ATOM     48  C   UNL     1      19.346  34.349  14.014  0.00  0.00    +0.000 C 
ENDBRANCH  45  47
ENDBRANCH  37  45
ENDBRANCH  32  39
ENDBRANCH  30  33
ENDBRANCH  29  30
ENDBRANCH  27  29
ENDBRANCH  26  28
ENDBRANCH   1  25
TORSDOF 13
ENDMDL
MODEL 6
REMARK VINA RESULT:      -6.0     23.251     31.233
REMARK  Name = 5289155_Peridinin.pdbqt.pdb
REMARK  13 active torsions:
REMARK  status: ('A' for Active; 'I' for Inactive)
REMARK    1  A    between atoms: C_1  and  C_3
REMARK    2  A    between atoms: C_3  and  C_25
REMARK    3  A    between atoms: C_6  and  C_12
REMARK    4  A    between atoms: C_11  and  C_14
REMARK    5  A    between atoms: C_19  and  O_23
REMARK    6  A    between atoms: C_26  and  C_28
REMARK    7  A    between atoms: C_27  and  C_31
REMARK    8  A    between atoms: C_29  and  C_31
REMARK    9  A    between atoms: C_29  and  C_42
REMARK   10  A    between atoms: C_33  and  O_43
REMARK   11  A    between atoms: C_35  and  O_45
REMARK   12  A    between atoms: C_37  and  C_41
REMARK   13  A    between atoms: O_45  and  C_47
REMARK                            x       y       z     vdW  Elec       q    Type
REMARK                         _______ _______ _______ _____ _____    ______ ____
ROOT
ATOM      1  C   UNL     1       7.891  25.013  29.932  0.00  0.00    +0.000 C 
ENDROOT
BRANCH   1   2
ATOM      2  C   UNL     1       7.277  23.898  30.177  0.00  0.00    +0.000 C 
ATOM      3  C   UNL     1       5.805  23.893  30.453  0.00  0.00    +0.000 C 
ATOM      4  O   UNL     1       9.995  21.542  30.414  0.00  0.00    +0.000 OA
ATOM      5  O   UNL     1      11.337  19.736  30.971  0.00  0.00    +0.000 OA
ATOM      6  C   UNL     1       8.969  19.461  30.578  0.00  0.00    +0.000 C 
ATOM      7  C   UNL     1       8.054  20.301  30.257  0.00  0.00    +0.000 C 
ATOM      8  C   UNL     1      10.248  20.202  30.685  0.00  0.00    +0.000 C 
ATOM      9  C   UNL     1       8.635  21.559  30.118  0.00  0.00    +0.000 C 
ATOM     10  C   UNL     1       7.988  22.677  30.147  0.00  0.00    +0.000 C 
BRANCH   6  12
ATOM     11  C   UNL     1       8.544  16.920  30.990  0.00  0.00    +0.000 C 
ATOM     12  C   UNL     1       8.744  18.090  30.797  0.00  0.00    +0.000 C 
BRANCH  11  14
ATOM     13  O   UNL     1       8.311  14.778  29.972  0.00  0.00    +0.000 OA
ATOM     14  C   UNL     1       8.295  15.508  31.232  0.00  0.00    +0.000 C 
ATOM     15  C   UNL     1       9.381  14.475  30.864  0.00  0.00    +0.000 C 
ATOM     16  C   UNL     1       7.199  15.085  32.271  0.00  0.00    +0.000 C 
ATOM     17  C   UNL     1       9.259  13.170  31.430  0.00  0.00    +0.000 C 
ATOM     18  C   UNL     1       7.384  13.655  32.533  0.00  0.00    +0.000 C 
ATOM     19  C   UNL     1       8.283  12.605  32.268  0.00  0.00    +0.000 C 
ATOM     20  C   UNL     1      10.761  14.857  30.320  0.00  0.00    +0.000 C 
ATOM     21  C   UNL     1       7.489  15.918  33.549  0.00  0.00    +0.000 C 
ATOM     22  C   UNL     1       5.834  15.425  31.635  0.00  0.00    +0.000 C 
BRANCH  19  23
ATOM     23  O   UNL     1       8.577  11.666  33.211  0.00  0.00    +0.000 OA
ATOM     24  H   UNL     1       9.479  11.312  33.113  0.00  0.00    +0.000 HD
ENDBRANCH  19  23
ENDBRANCH  11  14
ENDBRANCH   6  12
ENDBRANCH   1   2
BRANCH   1  25
ATOM     25  C   UNL     1       8.617  26.332  29.642  0.00  0.00    +0.000 C 
ATOM     26  C   UNL     1       9.183  27.364  29.409  0.00  0.00    +0.000 C 
BRANCH  26  28
ATOM     27  C   UNL     1      10.465  29.712  28.861  0.00  0.00    +0.000 C 
ATOM     28  C   UNL     1       9.904  28.681  29.105  0.00  0.00    +0.000 C 
BRANCH  27  29
ATOM     29  C   UNL     1      11.182  31.030  28.542  0.00  0.00    +0.000 C 
BRANCH  29  30
ATOM     30  C   UNL     1      11.798  32.138  28.275  0.00  0.00    +0.000 C 
ATOM     31  C   UNL     1      11.981  33.178  29.339  0.00  0.00    +0.000 C 
BRANCH  30  33
ATOM     32  C   UNL     1      12.635  32.610  25.838  0.00  0.00    +0.000 C 
ATOM     33  C   UNL     1      12.252  32.394  26.957  0.00  0.00    +0.000 C 
BRANCH  32  39
ATOM     34  C   UNL     1      14.439  33.443  24.310  0.00  0.00    +0.000 C 
ATOM     35  C   UNL     1      12.144  32.607  23.414  0.00  0.00    +0.000 C 
ATOM     36  C   UNL     1      14.769  33.325  22.883  0.00  0.00    +0.000 C 
ATOM     37  C   UNL     1      14.165  32.917  21.676  0.00  0.00    +0.000 C 
ATOM     38  C   UNL     1      12.877  32.594  22.153  0.00  0.00    +0.000 C 
ATOM     39  C   UNL     1      13.050  32.851  24.610  0.00  0.00    +0.000 C 
ATOM     40  C   UNL     1      15.515  32.657  25.119  0.00  0.00    +0.000 C 
ATOM     41  C   UNL     1      14.443  34.936  24.732  0.00  0.00    +0.000 C 
ATOM     42  C   UNL     1      10.996  33.621  23.380  0.00  0.00    +0.000 C 
BRANCH  35  43
ATOM     43  O   UNL     1      11.517  31.351  23.556  0.00  0.00    +0.000 OA
ATOM     44  H   UNL     1      11.367  31.319  24.519  0.00  0.00    +0.000 HD
ENDBRANCH  35  43
BRANCH  37  45
ATOM     45  O   UNL     1      14.317  33.707  20.543  0.00  0.00    +0.000 OA
BRANCH  45  47
ATOM     46  O   UNL     1      13.127  35.616  21.207  0.00  0.00    +0.000 OA
ATOM     47  C   UNL     1      14.124  35.011  20.861  0.00  0.00    +0.000 C 
ATOM     48  C   UNL     1      15.348  35.851  20.753  0.00  0.00    +0.000 C 
ENDBRANCH  45  47
ENDBRANCH  37  45
ENDBRANCH  32  39
ENDBRANCH  30  33
ENDBRANCH  29  30
ENDBRANCH  27  29
ENDBRANCH  26  28
ENDBRANCH   1  25
TORSDOF 13
ENDMDL
MODEL 7
REMARK VINA RESULT:      -6.0     23.165     26.384
REMARK  Name = 5289155_Peridinin.pdbqt.pdb
REMARK  13 active torsions:
REMARK  status: ('A' for Active; 'I' for Inactive)
REMARK    1  A    between atoms: C_1  and  C_3
REMARK    2  A    between atoms: C_3  and  C_25
REMARK    3  A    between atoms: C_6  and  C_12
REMARK    4  A    between atoms: C_11  and  C_14
REMARK    5  A    between atoms: C_19  and  O_23
REMARK    6  A    between atoms: C_26  and  C_28
REMARK    7  A    between atoms: C_27  and  C_31
REMARK    8  A    between atoms: C_29  and  C_31
REMARK    9  A    between atoms: C_29  and  C_42
REMARK   10  A    between atoms: C_33  and  O_43
REMARK   11  A    between atoms: C_35  and  O_45
REMARK   12  A    between atoms: C_37  and  C_41
REMARK   13  A    between atoms: O_45  and  C_47
REMARK                            x       y       z     vdW  Elec       q    Type
REMARK                         _______ _______ _______ _____ _____    ______ ____
ROOT
ATOM      1  C   UNL     1       9.460  26.407  27.203  0.00  0.00    +0.000 C 
ENDROOT
BRANCH   1   2
ATOM      2  C   UNL     1       9.898  27.402  26.498  0.00  0.00    +0.000 C 
ATOM      3  C   UNL     1       9.629  27.459  25.026  0.00  0.00    +0.000 C 
ATOM      4  O   UNL     1      11.970  29.179  28.852  0.00  0.00    +0.000 OA
ATOM      5  O   UNL     1      13.622  30.478  29.831  0.00  0.00    +0.000 OA
ATOM      6  C   UNL     1      12.581  31.135  27.752  0.00  0.00    +0.000 C 
ATOM      7  C   UNL     1      11.660  30.586  27.048  0.00  0.00    +0.000 C 
ATOM      8  C   UNL     1      12.819  30.277  28.937  0.00  0.00    +0.000 C 
ATOM      9  C   UNL     1      11.243  29.424  27.691  0.00  0.00    +0.000 C 
ATOM     10  C   UNL     1      10.602  28.457  27.123  0.00  0.00    +0.000 C 
BRANCH   6  12
ATOM     11  C   UNL     1      13.783  33.360  27.111  0.00  0.00    +0.000 C 
ATOM     12  C   UNL     1      13.234  32.333  27.408  0.00  0.00    +0.000 C 
BRANCH  11  14
ATOM     13  O   UNL     1      13.860  35.711  27.494  0.00  0.00    +0.000 OA
ATOM     14  C   UNL     1      14.439  34.605  26.744  0.00  0.00    +0.000 C 
ATOM     15  C   UNL     1      15.212  35.398  27.819  0.00  0.00    +0.000 C 
ATOM     16  C   UNL     1      14.778  34.883  25.238  0.00  0.00    +0.000 C 
ATOM     17  C   UNL     1      16.123  36.399  27.364  0.00  0.00    +0.000 C 
ATOM     18  C   UNL     1      15.690  36.030  25.208  0.00  0.00    +0.000 C 
ATOM     19  C   UNL     1      16.445  36.847  26.071  0.00  0.00    +0.000 C 
ATOM     20  C   UNL     1      15.400  34.908  29.258  0.00  0.00    +0.000 C 
ATOM     21  C   UNL     1      15.490  33.603  24.726  0.00  0.00    +0.000 C 
ATOM     22  C   UNL     1      13.434  35.145  24.525  0.00  0.00    +0.000 C 
BRANCH  19  23
ATOM     23  O   UNL     1      17.692  37.279  25.732  0.00  0.00    +0.000 OA
ATOM     24  H   UNL     1      17.696  37.784  24.899  0.00  0.00    +0.000 HD
ENDBRANCH  19  23
ENDBRANCH  11  14
ENDBRANCH   6  12
ENDBRANCH   1   2
BRANCH   1  25
ATOM     25  C   UNL     1       8.941  25.230  28.037  0.00  0.00    +0.000 C 
ATOM     26  C   UNL     1       8.540  24.307  28.690  0.00  0.00    +0.000 C 
BRANCH  26  28
ATOM     27  C   UNL     1       7.644  22.197  30.175  0.00  0.00    +0.000 C 
ATOM     28  C   UNL     1       8.035  23.126  29.525  0.00  0.00    +0.000 C 
BRANCH  27  29
ATOM     29  C   UNL     1       7.146  21.005  31.002  0.00  0.00    +0.000 C 
BRANCH  29  30
ATOM     30  C   UNL     1       6.720  20.006  31.708  0.00  0.00    +0.000 C 
ATOM     31  C   UNL     1       5.655  20.208  32.743  0.00  0.00    +0.000 C 
BRANCH  30  33
ATOM     32  C   UNL     1       7.797  17.637  31.396  0.00  0.00    +0.000 C 
ATOM     33  C   UNL     1       7.303  18.724  31.541  0.00  0.00    +0.000 C 
BRANCH  32  39
ATOM     34  C   UNL     1       7.606  15.146  31.590  0.00  0.00    +0.000 C 
ATOM     35  C   UNL     1       9.776  16.304  30.743  0.00  0.00    +0.000 C 
ATOM     36  C   UNL     1       8.301  13.974  31.039  0.00  0.00    +0.000 C 
ATOM     37  C   UNL     1       9.496  13.664  30.359  0.00  0.00    +0.000 C 
ATOM     38  C   UNL     1      10.078  14.947  30.303  0.00  0.00    +0.000 C 
ATOM     39  C   UNL     1       8.345  16.449  31.237  0.00  0.00    +0.000 C 
ATOM     40  C   UNL     1       6.173  15.188  30.975  0.00  0.00    +0.000 C 
ATOM     41  C   UNL     1       7.516  15.030  33.135  0.00  0.00    +0.000 C 
ATOM     42  C   UNL     1      10.772  16.782  31.804  0.00  0.00    +0.000 C 
BRANCH  35  43
ATOM     43  O   UNL     1       9.975  17.164  29.642  0.00  0.00    +0.000 OA
ATOM     44  H   UNL     1       9.440  17.937  29.902  0.00  0.00    +0.000 HD
ENDBRANCH  35  43
BRANCH  37  45
ATOM     45  O   UNL     1      10.245  12.570  30.774  0.00  0.00    +0.000 OA
BRANCH  45  47
ATOM     46  O   UNL     1      12.181  13.447  31.765  0.00  0.00    +0.000 OA
ATOM     47  C   UNL     1      11.077  12.935  31.779  0.00  0.00    +0.000 C 
ATOM     48  C   UNL     1      10.551  12.646  33.141  0.00  0.00    +0.000 C 
ENDBRANCH  45  47
ENDBRANCH  37  45
ENDBRANCH  32  39
ENDBRANCH  30  33
ENDBRANCH  29  30
ENDBRANCH  27  29
ENDBRANCH  26  28
ENDBRANCH   1  25
TORSDOF 13
ENDMDL
MODEL 8
REMARK VINA RESULT:      -5.9     24.079     31.291
REMARK  Name = 5289155_Peridinin.pdbqt.pdb
REMARK  13 active torsions:
REMARK  status: ('A' for Active; 'I' for Inactive)
REMARK    1  A    between atoms: C_1  and  C_3
REMARK    2  A    between atoms: C_3  and  C_25
REMARK    3  A    between atoms: C_6  and  C_12
REMARK    4  A    between atoms: C_11  and  C_14
REMARK    5  A    between atoms: C_19  and  O_23
REMARK    6  A    between atoms: C_26  and  C_28
REMARK    7  A    between atoms: C_27  and  C_31
REMARK    8  A    between atoms: C_29  and  C_31
REMARK    9  A    between atoms: C_29  and  C_42
REMARK   10  A    between atoms: C_33  and  O_43
REMARK   11  A    between atoms: C_35  and  O_45
REMARK   12  A    between atoms: C_37  and  C_41
REMARK   13  A    between atoms: O_45  and  C_47
REMARK                            x       y       z     vdW  Elec       q    Type
REMARK                         _______ _______ _______ _____ _____    ______ ____
ROOT
ATOM      1  C   UNL     1      11.623  23.256  30.150  0.00  0.00    +0.000 C 
ENDROOT
BRANCH   1   2
ATOM      2  C   UNL     1      11.508  21.988  30.393  0.00  0.00    +0.000 C 
ATOM      3  C   UNL     1      12.706  21.094  30.310  0.00  0.00    +0.000 C 
ATOM      4  O   UNL     1       7.942  21.569  30.700  0.00  0.00    +0.000 OA
ATOM      5  O   UNL     1       5.788  20.712  30.674  0.00  0.00    +0.000 OA
ATOM      6  C   UNL     1       7.658  19.373  31.412  0.00  0.00    +0.000 C 
ATOM      7  C   UNL     1       8.909  19.637  31.516  0.00  0.00    +0.000 C 
ATOM      8  C   UNL     1       6.978  20.586  30.899  0.00  0.00    +0.000 C 
ATOM      9  C   UNL     1       9.117  20.958  31.127  0.00  0.00    +0.000 C 
ATOM     10  C   UNL     1      10.258  21.451  30.775  0.00  0.00    +0.000 C 
BRANCH   6  12
ATOM     11  C   UNL     1       6.586  17.068  32.002  0.00  0.00    +0.000 C 
ATOM     12  C   UNL     1       7.082  18.128  31.726  0.00  0.00    +0.000 C 
BRANCH  11  14
ATOM     13  O   UNL     1       5.156  15.935  33.536  0.00  0.00    +0.000 OA
ATOM     14  C   UNL     1       5.986  15.790  32.347  0.00  0.00    +0.000 C 
ATOM     15  C   UNL     1       4.449  15.647  32.332  0.00  0.00    +0.000 C 
ATOM     16  C   UNL     1       6.847  14.482  32.251  0.00  0.00    +0.000 C 
ATOM     17  C   UNL     1       3.916  14.323  32.323  0.00  0.00    +0.000 C 
ATOM     18  C   UNL     1       5.921  13.350  32.349  0.00  0.00    +0.000 C 
ATOM     19  C   UNL     1       4.543  13.065  32.359  0.00  0.00    +0.000 C 
ATOM     20  C   UNL     1       3.501  16.768  31.894  0.00  0.00    +0.000 C 
ATOM     21  C   UNL     1       7.517  14.524  30.852  0.00  0.00    +0.000 C 
ATOM     22  C   UNL     1       7.871  14.543  33.406  0.00  0.00    +0.000 C 
BRANCH  19  23
ATOM     23  O   UNL     1       4.037  11.973  31.721  0.00  0.00    +0.000 OA
ATOM     24  H   UNL     1       4.634  11.640  31.026  0.00  0.00    +0.000 HD
ENDBRANCH  19  23
ENDBRANCH  11  14
ENDBRANCH   6  12
ENDBRANCH   1   2
BRANCH   1  25
ATOM     25  C   UNL     1      11.760  24.755  29.861  0.00  0.00    +0.000 C 
ATOM     26  C   UNL     1      11.873  25.928  29.637  0.00  0.00    +0.000 C 
BRANCH  26  28
ATOM     27  C   UNL     1      12.148  28.597  29.121  0.00  0.00    +0.000 C 
ATOM     28  C   UNL     1      12.025  27.425  29.350  0.00  0.00    +0.000 C 
BRANCH  27  29
ATOM     29  C   UNL     1      12.312  30.093  28.826  0.00  0.00    +0.000 C 
BRANCH  29  30
ATOM     30  C   UNL     1      12.458  31.354  28.570  0.00  0.00    +0.000 C 
ATOM     31  C   UNL     1      12.389  32.364  29.675  0.00  0.00    +0.000 C 
BRANCH  30  33
ATOM     32  C   UNL     1      12.775  32.158  26.097  0.00  0.00    +0.000 C 
ATOM     33  C   UNL     1      12.629  31.788  27.231  0.00  0.00    +0.000 C 
BRANCH  32  39
ATOM     34  C   UNL     1      14.182  33.358  24.403  0.00  0.00    +0.000 C 
ATOM     35  C   UNL     1      11.877  32.314  23.798  0.00  0.00    +0.000 C 
ATOM     36  C   UNL     1      14.272  33.416  22.938  0.00  0.00    +0.000 C 
ATOM     37  C   UNL     1      13.519  33.045  21.805  0.00  0.00    +0.000 C 
ATOM     38  C   UNL     1      12.379  32.513  22.443  0.00  0.00    +0.000 C 
ATOM     39  C   UNL     1      12.942  32.564  24.854  0.00  0.00    +0.000 C 
ATOM     40  C   UNL     1      15.464  32.648  24.936  0.00  0.00    +0.000 C 
ATOM     41  C   UNL     1      14.089  34.793  24.986  0.00  0.00    +0.000 C 
ATOM     42  C   UNL     1      10.632  33.167  24.063  0.00  0.00    +0.000 C 
BRANCH  35  43
ATOM     43  O   UNL     1      11.431  30.979  23.896  0.00  0.00    +0.000 OA
ATOM     44  H   UNL     1      11.527  30.814  24.853  0.00  0.00    +0.000 HD
ENDBRANCH  35  43
BRANCH  37  45
ATOM     45  O   UNL     1      13.382  33.949  20.759  0.00  0.00    +0.000 OA
BRANCH  45  47
ATOM     46  O   UNL     1      13.775  32.600  18.881  0.00  0.00    +0.000 OA
ATOM     47  C   UNL     1      14.040  33.492  19.666  0.00  0.00    +0.000 C 
ATOM     48  C   UNL     1      15.318  34.200  19.384  0.00  0.00    +0.000 C 
ENDBRANCH  45  47
ENDBRANCH  37  45
ENDBRANCH  32  39
ENDBRANCH  30  33
ENDBRANCH  29  30
ENDBRANCH  27  29
ENDBRANCH  26  28
ENDBRANCH   1  25
TORSDOF 13
ENDMDL
MODEL 9
REMARK VINA RESULT:      -5.9     23.463     29.557
REMARK  Name = 5289155_Peridinin.pdbqt.pdb
REMARK  13 active torsions:
REMARK  status: ('A' for Active; 'I' for Inactive)
REMARK    1  A    between atoms: C_1  and  C_3
REMARK    2  A    between atoms: C_3  and  C_25
REMARK    3  A    between atoms: C_6  and  C_12
REMARK    4  A    between atoms: C_11  and  C_14
REMARK    5  A    between atoms: C_19  and  O_23
REMARK    6  A    between atoms: C_26  and  C_28
REMARK    7  A    between atoms: C_27  and  C_31
REMARK    8  A    between atoms: C_29  and  C_31
REMARK    9  A    between atoms: C_29  and  C_42
REMARK   10  A    between atoms: C_33  and  O_43
REMARK   11  A    between atoms: C_35  and  O_45
REMARK   12  A    between atoms: C_37  and  C_41
REMARK   13  A    between atoms: O_45  and  C_47
REMARK                            x       y       z     vdW  Elec       q    Type
REMARK                         _______ _______ _______ _____ _____    ______ ____
ROOT
ATOM      1  C   UNL     1      17.995  34.129   9.405  0.00  0.00    +0.000 C 
ENDROOT
BRANCH   1   2
ATOM      2  C   UNL     1      18.897  33.901   8.502  0.00  0.00    +0.000 C 
ATOM      3  C   UNL     1      19.316  34.991   7.564  0.00  0.00    +0.000 C 
ATOM      4  O   UNL     1      19.396  30.342   8.773  0.00  0.00    +0.000 OA
ATOM      5  O   UNL     1      19.853  28.115   8.321  0.00  0.00    +0.000 OA
ATOM      6  C   UNL     1      21.201  29.885   7.378  0.00  0.00    +0.000 C 
ATOM      7  C   UNL     1      21.137  31.161   7.495  0.00  0.00    +0.000 C 
ATOM      8  C   UNL     1      20.107  29.299   8.189  0.00  0.00    +0.000 C 
ATOM      9  C   UNL     1      20.085  31.475   8.351  0.00  0.00    +0.000 C 
ATOM     10  C   UNL     1      19.515  32.633   8.424  0.00  0.00    +0.000 C 
BRANCH   6  12
ATOM     11  C   UNL     1      22.964  28.637   5.915  0.00  0.00    +0.000 C 
ATOM     12  C   UNL     1      22.150  29.207   6.591  0.00  0.00    +0.000 C 
BRANCH  11  14
ATOM     13  O   UNL     1      25.262  28.561   5.285  0.00  0.00    +0.000 OA
ATOM     14  C   UNL     1      23.950  27.957   5.091  0.00  0.00    +0.000 C 
ATOM     15  C   UNL     1      25.129  27.227   5.769  0.00  0.00    +0.000 C 
ATOM     16  C   UNL     1      23.579  27.550   3.622  0.00  0.00    +0.000 C 
ATOM     17  C   UNL     1      25.860  26.290   4.977  0.00  0.00    +0.000 C 
ATOM     18  C   UNL     1      24.621  26.629   3.156  0.00  0.00    +0.000 C 
ATOM     19  C   UNL     1      25.732  25.908   3.631  0.00  0.00    +0.000 C 
ATOM     20  C   UNL     1      25.286  27.107   7.288  0.00  0.00    +0.000 C 
ATOM     21  C   UNL     1      22.211  26.824   3.722  0.00  0.00    +0.000 C 
ATOM     22  C   UNL     1      23.503  28.859   2.807  0.00  0.00    +0.000 C 
BRANCH  19  23
ATOM     23  O   UNL     1      25.999  24.645   3.196  0.00  0.00    +0.000 OA
ATOM     24  H   UNL     1      25.935  23.986   3.911  0.00  0.00    +0.000 HD
ENDBRANCH  19  23
ENDBRANCH  11  14
ENDBRANCH   6  12
ENDBRANCH   1   2
BRANCH   1  25
ATOM     25  C   UNL     1      16.929  34.397  10.473  0.00  0.00    +0.000 C 
ATOM     26  C   UNL     1      16.093  34.612  11.306  0.00  0.00    +0.000 C 
BRANCH  26  28
ATOM     27  C   UNL     1      14.185  35.118  13.194  0.00  0.00    +0.000 C 
ATOM     28  C   UNL     1      15.023  34.893  12.366  0.00  0.00    +0.000 C 
BRANCH  27  29
ATOM     29  C   UNL     1      13.115  35.413  14.252  0.00  0.00    +0.000 C 
BRANCH  29  30
ATOM     30  C   UNL     1      12.210  35.673  15.143  0.00  0.00    +0.000 C 
ATOM     31  C   UNL     1      10.885  36.242  14.733  0.00  0.00    +0.000 C 
BRANCH  30  33
ATOM     32  C   UNL     1      12.729  35.301  17.684  0.00  0.00    +0.000 C 
ATOM     33  C   UNL     1      12.493  35.471  16.517  0.00  0.00    +0.000 C 
BRANCH  32  39
ATOM     34  C   UNL     1      12.313  35.938  20.072  0.00  0.00    +0.000 C 
ATOM     35  C   UNL     1      14.014  34.084  19.412  0.00  0.00    +0.000 C 
ATOM     36  C   UNL     1      12.528  35.332  21.393  0.00  0.00    +0.000 C 
ATOM     37  C   UNL     1      13.243  34.266  21.976  0.00  0.00    +0.000 C 
ATOM     38  C   UNL     1      13.906  33.772  20.833  0.00  0.00    +0.000 C 
ATOM     39  C   UNL     1      12.985  35.109  18.962  0.00  0.00    +0.000 C 
ATOM     40  C   UNL     1      10.776  35.990  19.810  0.00  0.00    +0.000 C 
ATOM     41  C   UNL     1      12.904  37.373  20.045  0.00  0.00    +0.000 C 
ATOM     42  C   UNL     1      15.432  34.535  19.046  0.00  0.00    +0.000 C 
BRANCH  35  43
ATOM     43  O   UNL     1      13.817  32.885  18.695  0.00  0.00    +0.000 OA
ATOM     44  H   UNL     1      14.658  32.420  18.862  0.00  0.00    +0.000 HD
ENDBRANCH  35  43
BRANCH  37  45
ATOM     45  O   UNL     1      13.945  34.488  23.154  0.00  0.00    +0.000 OA
BRANCH  45  47
ATOM     46  O   UNL     1      14.782  32.471  24.010  0.00  0.00    +0.000 OA
ATOM     47  C   UNL     1      13.956  33.358  23.903  0.00  0.00    +0.000 C 
ATOM     48  C   UNL     1      12.736  33.165  24.733  0.00  0.00    +0.000 C 
ENDBRANCH  45  47
ENDBRANCH  37  45
ENDBRANCH  32  39
ENDBRANCH  30  33
ENDBRANCH  29  30
ENDBRANCH  27  29
ENDBRANCH  26  28
ENDBRANCH   1  25
TORSDOF 13
ENDMDL
