MODEL 1
REMARK VINA RESULT:      -6.1      0.000      0.000
REMARK  Name = 5318517_Andrographolide.pdbqt.pdb
REMARK  6 active torsions:
REMARK  status: ('A' for Active; 'I' for Inactive)
REMARK    1  A    between atoms: C_3  and  C_16
REMARK    2  A    between atoms: C_4  and  C_19
REMARK    3  A    between atoms: C_6  and  O_14
REMARK    4  A    between atoms: C_16  and  O_17
REMARK    5  A    between atoms: C_22  and  C_23
REMARK    6  A    between atoms: C_24  and  O_27
REMARK                            x       y       z     vdW  Elec       q    Type
REMARK                         _______ _______ _______ _____ _____    ______ ____
ROOT
ATOM      1  C   UNL     1       8.805  18.640  31.154  0.00  0.00    +0.000 C 
ATOM      2  C   UNL     1       8.569  17.100  31.187  0.00  0.00    +0.000 C 
ATOM      3  C   UNL     1       9.621  16.090  30.694  0.00  0.00    +0.000 C 
ATOM      4  C   UNL     1       7.548  19.542  30.997  0.00  0.00    +0.000 C 
ATOM      5  C   UNL     1       9.712  18.850  30.029  0.00  0.00    +0.000 C 
ATOM      6  C   UNL     1      10.658  16.598  29.647  0.00  0.00    +0.000 C 
ATOM      7  C   UNL     1       7.281  16.730  31.668  0.00  0.00    +0.000 C 
ATOM      8  C   UNL     1      10.624  17.951  29.265  0.00  0.00    +0.000 C 
ATOM      9  C   UNL     1       9.499  19.028  32.496  0.00  0.00    +0.000 C 
ATOM     10  C   UNL     1       6.166  17.713  31.826  0.00  0.00    +0.000 C 
ATOM     11  C   UNL     1       6.248  19.085  31.509  0.00  0.00    +0.000 C 
ATOM     12  C   UNL     1       8.860  14.907  29.993  0.00  0.00    +0.000 C 
ATOM     13  C   UNL     1       5.114  19.788  31.475  0.00  0.00    +0.000 C 
ENDROOT
BRANCH   6  14
ATOM     14  O   UNL     1      11.715  15.798  29.251  0.00  0.00    +0.000 OA
ATOM     15  H   UNL     1      12.562  16.279  29.248  0.00  0.00    +0.000 HD
ENDBRANCH   6  14
BRANCH   4  16
ATOM     16  C   UNL     1       7.673  20.872  30.470  0.00  0.00    +0.000 C 
ATOM     17  C   UNL     1       7.795  22.290  29.905  0.00  0.00    +0.000 C 
BRANCH  17  20
ATOM     18  O   UNL     1       7.196  25.574  28.665  0.00  0.00    +0.000 OA
ATOM     19  O   UNL     1       5.541  23.946  28.891  0.00  0.00    +0.000 OA
ATOM     20  C   UNL     1       7.893  23.492  29.432  0.00  0.00    +0.000 C 
ATOM     21  C   UNL     1       9.076  24.310  29.344  0.00  0.00    +0.000 C 
ATOM     22  C   UNL     1       6.701  24.310  28.975  0.00  0.00    +0.000 C 
ATOM     23  C   UNL     1       8.498  25.501  28.900  0.00  0.00    +0.000 C 
BRANCH  21  24
ATOM     24  O   UNL     1      10.042  24.231  30.307  0.00  0.00    +0.000 OA
ATOM     25  H   UNL     1      10.934  24.345  29.935  0.00  0.00    +0.000 HD
ENDBRANCH  21  24
ENDBRANCH  17  20
ENDBRANCH   4  16
BRANCH   3  26
ATOM     26  C   UNL     1      10.361  15.591  31.887  0.00  0.00    +0.000 C 
BRANCH  26  27
ATOM     27  O   UNL     1      11.014  15.136  32.961  0.00  0.00    +0.000 OA
ATOM     28  H   UNL     1      10.906  15.747  33.712  0.00  0.00    +0.000 HD
ENDBRANCH  26  27
ENDBRANCH   3  26
TORSDOF 6
ENDMDL
MODEL 2
REMARK VINA RESULT:      -5.9     11.902     13.505
REMARK  Name = 5318517_Andrographolide.pdbqt.pdb
REMARK  6 active torsions:
REMARK  status: ('A' for Active; 'I' for Inactive)
REMARK    1  A    between atoms: C_3  and  C_16
REMARK    2  A    between atoms: C_4  and  C_19
REMARK    3  A    between atoms: C_6  and  O_14
REMARK    4  A    between atoms: C_16  and  O_17
REMARK    5  A    between atoms: C_22  and  C_23
REMARK    6  A    between atoms: C_24  and  O_27
REMARK                            x       y       z     vdW  Elec       q    Type
REMARK                         _______ _______ _______ _____ _____    ______ ____
ROOT
ATOM      1  C   UNL     1       0.036  11.821  23.346  0.00  0.00    +0.000 C 
ATOM      2  C   UNL     1       0.891  10.518  23.400  0.00  0.00    +0.000 C 
ATOM      3  C   UNL     1       1.856  10.207  24.558  0.00  0.00    +0.000 C 
ATOM      4  C   UNL     1      -0.331  12.364  21.936  0.00  0.00    +0.000 C 
ATOM      5  C   UNL     1       0.827  12.810  24.071  0.00  0.00    +0.000 C 
ATOM      6  C   UNL     1       2.411  11.420  25.364  0.00  0.00    +0.000 C 
ATOM      7  C   UNL     1       0.725   9.680  22.260  0.00  0.00    +0.000 C 
ATOM      8  C   UNL     1       1.954  12.711  25.043  0.00  0.00    +0.000 C 
ATOM      9  C   UNL     1      -1.297  11.527  24.099  0.00  0.00    +0.000 C 
ATOM     10  C   UNL     1       0.051  10.143  21.009  0.00  0.00    +0.000 C 
ATOM     11  C   UNL     1      -0.472  11.437  20.805  0.00  0.00    +0.000 C 
ATOM     12  C   UNL     1       3.117   9.491  23.953  0.00  0.00    +0.000 C 
ATOM     13  C   UNL     1      -0.828  11.779  19.565  0.00  0.00    +0.000 C 
ENDROOT
BRANCH   6  14
ATOM     14  O   UNL     1       3.177  11.224  26.500  0.00  0.00    +0.000 OA
ATOM     15  H   UNL     1       2.944  11.844  27.214  0.00  0.00    +0.000 HD
ENDBRANCH   6  14
BRANCH   4  16
ATOM     16  C   UNL     1      -0.658  13.751  21.759  0.00  0.00    +0.000 C 
ATOM     17  C   UNL     1      -0.996  15.232  21.565  0.00  0.00    +0.000 C 
BRANCH  17  20
ATOM     18  O   UNL     1      -0.969  18.789  21.372  0.00  0.00    +0.000 OA
ATOM     19  O   UNL     1       0.635  17.534  22.510  0.00  0.00    +0.000 OA
ATOM     20  C   UNL     1      -1.282  16.484  21.391  0.00  0.00    +0.000 C 
ATOM     21  C   UNL     1      -2.398  17.040  20.668  0.00  0.00    +0.000 C 
ATOM     22  C   UNL     1      -0.387  17.618  21.852  0.00  0.00    +0.000 C 
ATOM     23  C   UNL     1      -2.057  18.393  20.729  0.00  0.00    +0.000 C 
BRANCH  21  24
ATOM     24  O   UNL     1      -2.879  16.412  19.555  0.00  0.00    +0.000 OA
ATOM     25  H   UNL     1      -2.955  17.023  18.800  0.00  0.00    +0.000 HD
ENDBRANCH  21  24
ENDBRANCH  17  20
ENDBRANCH   4  16
BRANCH   3  26
ATOM     26  C   UNL     1       1.149   9.296  25.502  0.00  0.00    +0.000 C 
BRANCH  26  27
ATOM     27  O   UNL     1       0.526   8.476  26.354  0.00  0.00    +0.000 OA
ATOM     28  H   UNL     1       0.216   8.967  27.137  0.00  0.00    +0.000 HD
ENDBRANCH  26  27
ENDBRANCH   3  26
TORSDOF 6
ENDMDL
MODEL 3
REMARK VINA RESULT:      -5.9      5.810      9.734
REMARK  Name = 5318517_Andrographolide.pdbqt.pdb
REMARK  6 active torsions:
REMARK  status: ('A' for Active; 'I' for Inactive)
REMARK    1  A    between atoms: C_3  and  C_16
REMARK    2  A    between atoms: C_4  and  C_19
REMARK    3  A    between atoms: C_6  and  O_14
REMARK    4  A    between atoms: C_16  and  O_17
REMARK    5  A    between atoms: C_22  and  C_23
REMARK    6  A    between atoms: C_24  and  O_27
REMARK                            x       y       z     vdW  Elec       q    Type
REMARK                         _______ _______ _______ _____ _____    ______ ____
ROOT
ATOM      1  C   UNL     1      10.034  27.231  28.954  0.00  0.00    +0.000 C 
ATOM      2  C   UNL     1       8.869  26.456  29.641  0.00  0.00    +0.000 C 
ATOM      3  C   UNL     1       8.137  25.287  28.958  0.00  0.00    +0.000 C 
ATOM      4  C   UNL     1      10.224  28.720  29.358  0.00  0.00    +0.000 C 
ATOM      5  C   UNL     1       9.749  27.135  27.525  0.00  0.00    +0.000 C 
ATOM      6  C   UNL     1       8.153  25.250  27.400  0.00  0.00    +0.000 C 
ATOM      7  C   UNL     1       8.526  26.964  30.926  0.00  0.00    +0.000 C 
ATOM      8  C   UNL     1       8.886  26.232  26.710  0.00  0.00    +0.000 C 
ATOM      9  C   UNL     1      11.355  26.478  29.300  0.00  0.00    +0.000 C 
ATOM     10  C   UNL     1       9.012  28.286  31.428  0.00  0.00    +0.000 C 
ATOM     11  C   UNL     1       9.833  29.173  30.701  0.00  0.00    +0.000 C 
ATOM     12  C   UNL     1       6.620  25.371  29.361  0.00  0.00    +0.000 C 
ATOM     13  C   UNL     1       9.990  30.410  31.175  0.00  0.00    +0.000 C 
ENDROOT
BRANCH   6  14
ATOM     14  O   UNL     1       7.635  24.167  26.712  0.00  0.00    +0.000 OA
ATOM     15  H   UNL     1       6.703  23.999  26.936  0.00  0.00    +0.000 HD
ENDBRANCH   6  14
BRANCH   4  16
ATOM     16  C   UNL     1      10.895  29.630  28.473  0.00  0.00    +0.000 C 
ATOM     17  C   UNL     1      11.602  30.601  27.523  0.00  0.00    +0.000 C 
BRANCH  17  20
ATOM     18  O   UNL     1      13.913  32.725  25.840  0.00  0.00    +0.000 OA
ATOM     19  O   UNL     1      14.274  31.833  27.964  0.00  0.00    +0.000 OA
ATOM     20  C   UNL     1      12.195  31.430  26.722  0.00  0.00    +0.000 C 
ATOM     21  C   UNL     1      11.737  31.891  25.435  0.00  0.00    +0.000 C 
ATOM     22  C   UNL     1      13.581  31.989  26.974  0.00  0.00    +0.000 C 
ATOM     23  C   UNL     1      12.862  32.618  25.041  0.00  0.00    +0.000 C 
BRANCH  21  24
ATOM     24  O   UNL     1      11.027  31.059  24.617  0.00  0.00    +0.000 OA
ATOM     25  H   UNL     1      11.542  30.271  24.369  0.00  0.00    +0.000 HD
ENDBRANCH  21  24
ENDBRANCH  17  20
ENDBRANCH   4  16
BRANCH   3  26
ATOM     26  C   UNL     1       8.735  24.020  29.468  0.00  0.00    +0.000 C 
BRANCH  26  27
ATOM     27  O   UNL     1       9.279  22.891  29.931  0.00  0.00    +0.000 OA
ATOM     28  H   UNL     1       9.030  22.748  30.862  0.00  0.00    +0.000 HD
ENDBRANCH  26  27
ENDBRANCH   3  26
TORSDOF 6
ENDMDL
MODEL 4
REMARK VINA RESULT:      -5.7     15.154     17.118
REMARK  Name = 5318517_Andrographolide.pdbqt.pdb
REMARK  6 active torsions:
REMARK  status: ('A' for Active; 'I' for Inactive)
REMARK    1  A    between atoms: C_3  and  C_16
REMARK    2  A    between atoms: C_4  and  C_19
REMARK    3  A    between atoms: C_6  and  O_14
REMARK    4  A    between atoms: C_16  and  O_17
REMARK    5  A    between atoms: C_22  and  C_23
REMARK    6  A    between atoms: C_24  and  O_27
REMARK                            x       y       z     vdW  Elec       q    Type
REMARK                         _______ _______ _______ _____ _____    ______ ____
ROOT
ATOM      1  C   UNL     1      24.574  14.234  25.889  0.00  0.00    +0.000 C 
ATOM      2  C   UNL     1      24.938  12.943  26.683  0.00  0.00    +0.000 C 
ATOM      3  C   UNL     1      23.992  11.732  26.774  0.00  0.00    +0.000 C 
ATOM      4  C   UNL     1      25.194  15.568  26.392  0.00  0.00    +0.000 C 
ATOM      5  C   UNL     1      23.117  14.307  25.952  0.00  0.00    +0.000 C 
ATOM      6  C   UNL     1      22.470  12.004  26.576  0.00  0.00    +0.000 C 
ATOM      7  C   UNL     1      26.197  13.016  27.345  0.00  0.00    +0.000 C 
ATOM      8  C   UNL     1      22.053  13.309  26.258  0.00  0.00    +0.000 C 
ATOM      9  C   UNL     1      25.049  14.019  24.419  0.00  0.00    +0.000 C 
ATOM     10  C   UNL     1      26.943  14.299  27.521  0.00  0.00    +0.000 C 
ATOM     11  C   UNL     1      26.494  15.561  27.079  0.00  0.00    +0.000 C 
ATOM     12  C   UNL     1      24.127  11.125  28.218  0.00  0.00    +0.000 C 
ATOM     13  C   UNL     1      27.144  16.642  27.512  0.00  0.00    +0.000 C 
ENDROOT
BRANCH   6  14
ATOM     14  O   UNL     1      21.566  10.957  26.510  0.00  0.00    +0.000 OA
ATOM     15  H   UNL     1      20.720  11.172  26.942  0.00  0.00    +0.000 HD
ENDBRANCH   6  14
BRANCH   4  16
ATOM     16  C   UNL     1      24.567  16.821  26.078  0.00  0.00    +0.000 C 
ATOM     17  C   UNL     1      23.900  18.155  25.732  0.00  0.00    +0.000 C 
BRANCH  17  20
ATOM     18  O   UNL     1      22.916  21.568  25.470  0.00  0.00    +0.000 OA
ATOM     19  O   UNL     1      24.322  20.742  27.139  0.00  0.00    +0.000 OA
ATOM     20  C   UNL     1      23.328  19.279  25.435  0.00  0.00    +0.000 C 
ATOM     21  C   UNL     1      22.422  19.547  24.347  0.00  0.00    +0.000 C 
ATOM     22  C   UNL     1      23.619  20.581  26.157  0.00  0.00    +0.000 C 
ATOM     23  C   UNL     1      22.294  20.930  24.491  0.00  0.00    +0.000 C 
BRANCH  21  24
ATOM     24  O   UNL     1      22.572  18.903  23.151  0.00  0.00    +0.000 OA
ATOM     25  H   UNL     1      23.510  18.784  22.920  0.00  0.00    +0.000 HD
ENDBRANCH  21  24
ENDBRANCH  17  20
ENDBRANCH   4  16
BRANCH   3  26
ATOM     26  C   UNL     1      24.431  10.738  25.755  0.00  0.00    +0.000 C 
BRANCH  26  27
ATOM     27  O   UNL     1      24.813   9.844  24.837  0.00  0.00    +0.000 OA
ATOM     28  H   UNL     1      24.393  10.033  23.979  0.00  0.00    +0.000 HD
ENDBRANCH  26  27
ENDBRANCH   3  26
TORSDOF 6
ENDMDL
MODEL 5
REMARK VINA RESULT:      -5.6     14.467     18.174
REMARK  Name = 5318517_Andrographolide.pdbqt.pdb
REMARK  6 active torsions:
REMARK  status: ('A' for Active; 'I' for Inactive)
REMARK    1  A    between atoms: C_3  and  C_16
REMARK    2  A    between atoms: C_4  and  C_19
REMARK    3  A    between atoms: C_6  and  O_14
REMARK    4  A    between atoms: C_16  and  O_17
REMARK    5  A    between atoms: C_22  and  C_23
REMARK    6  A    between atoms: C_24  and  O_27
REMARK                            x       y       z     vdW  Elec       q    Type
REMARK                         _______ _______ _______ _____ _____    ______ ____
ROOT
ATOM      1  C   UNL     1      23.848  17.849  26.711  0.00  0.00    +0.000 C 
ATOM      2  C   UNL     1      24.125  19.350  27.027  0.00  0.00    +0.000 C 
ATOM      3  C   UNL     1      23.227  20.486  26.503  0.00  0.00    +0.000 C 
ATOM      4  C   UNL     1      25.081  16.902  26.663  0.00  0.00    +0.000 C 
ATOM      5  C   UNL     1      23.180  17.863  25.413  0.00  0.00    +0.000 C 
ATOM      6  C   UNL     1      22.406  20.202  25.209  0.00  0.00    +0.000 C 
ATOM      7  C   UNL     1      25.301  19.564  27.800  0.00  0.00    +0.000 C 
ATOM      8  C   UNL     1      22.471  18.919  24.636  0.00  0.00    +0.000 C 
ATOM      9  C   UNL     1      22.887  17.315  27.817  0.00  0.00    +0.000 C 
ATOM     10  C   UNL     1      26.329  18.499  28.017  0.00  0.00    +0.000 C 
ATOM     11  C   UNL     1      26.266  17.196  27.482  0.00  0.00    +0.000 C 
ATOM     12  C   UNL     1      24.153  21.707  26.154  0.00  0.00    +0.000 C 
ATOM     13  C   UNL     1      27.360  16.436  27.559  0.00  0.00    +0.000 C 
ENDROOT
BRANCH   6  14
ATOM     14  O   UNL     1      21.476  21.116  24.745  0.00  0.00    +0.000 OA
ATOM     15  H   UNL     1      21.522  21.964  25.223  0.00  0.00    +0.000 HD
ENDBRANCH   6  14
BRANCH   4  16
ATOM     16  C   UNL     1      25.020  15.673  25.923  0.00  0.00    +0.000 C 
ATOM     17  C   UNL     1      24.955  14.357  25.143  0.00  0.00    +0.000 C 
BRANCH  17  20
ATOM     18  O   UNL     1      23.930  11.358  23.517  0.00  0.00    +0.000 OA
ATOM     19  O   UNL     1      22.593  12.553  25.009  0.00  0.00    +0.000 OA
ATOM     20  C   UNL     1      24.891  13.242  24.485  0.00  0.00    +0.000 C 
ATOM     21  C   UNL     1      25.901  12.660  23.638  0.00  0.00    +0.000 C 
ATOM     22  C   UNL     1      23.642  12.386  24.411  0.00  0.00    +0.000 C 
ATOM     23  C   UNL     1      25.178  11.579  23.130  0.00  0.00    +0.000 C 
BRANCH  21  24
ATOM     24  O   UNL     1      26.723  13.459  22.896  0.00  0.00    +0.000 OA
ATOM     25  H   UNL     1      27.600  13.056  22.767  0.00  0.00    +0.000 HD
ENDBRANCH  21  24
ENDBRANCH  17  20
ENDBRANCH   4  16
BRANCH   3  26
ATOM     26  C   UNL     1      22.280  20.852  27.593  0.00  0.00    +0.000 C 
BRANCH  26  27
ATOM     27  O   UNL     1      21.423  21.172  28.567  0.00  0.00    +0.000 OA
ATOM     28  H   UNL     1      21.171  20.380  29.076  0.00  0.00    +0.000 HD
ENDBRANCH  26  27
ENDBRANCH   3  26
TORSDOF 6
ENDMDL
MODEL 6
REMARK VINA RESULT:      -5.5     18.271     21.107
REMARK  Name = 5318517_Andrographolide.pdbqt.pdb
REMARK  6 active torsions:
REMARK  status: ('A' for Active; 'I' for Inactive)
REMARK    1  A    between atoms: C_3  and  C_16
REMARK    2  A    between atoms: C_4  and  C_19
REMARK    3  A    between atoms: C_6  and  O_14
REMARK    4  A    between atoms: C_16  and  O_17
REMARK    5  A    between atoms: C_22  and  C_23
REMARK    6  A    between atoms: C_24  and  O_27
REMARK                            x       y       z     vdW  Elec       q    Type
REMARK                         _______ _______ _______ _____ _____    ______ ____
ROOT
ATOM      1  C   UNL     1      -1.773  25.933  15.097  0.00  0.00    +0.000 C 
ATOM      2  C   UNL     1      -1.971  27.441  15.436  0.00  0.00    +0.000 C 
ATOM      3  C   UNL     1      -2.065  27.959  16.883  0.00  0.00    +0.000 C 
ATOM      4  C   UNL     1      -2.360  25.433  13.746  0.00  0.00    +0.000 C 
ATOM      5  C   UNL     1      -2.398  25.220  16.207  0.00  0.00    +0.000 C 
ATOM      6  C   UNL     1      -2.542  26.948  17.969  0.00  0.00    +0.000 C 
ATOM      7  C   UNL     1      -2.100  28.273  14.287  0.00  0.00    +0.000 C 
ATOM      8  C   UNL     1      -2.788  25.616  17.590  0.00  0.00    +0.000 C 
ATOM      9  C   UNL     1      -0.237  25.665  15.070  0.00  0.00    +0.000 C 
ATOM     10  C   UNL     1      -2.337  27.725  12.917  0.00  0.00    +0.000 C 
ATOM     11  C   UNL     1      -2.474  26.355  12.607  0.00  0.00    +0.000 C 
ATOM     12  C   UNL     1      -3.116  29.128  16.906  0.00  0.00    +0.000 C 
ATOM     13  C   UNL     1      -2.917  26.031  11.392  0.00  0.00    +0.000 C 
ENDROOT
BRANCH   6  14
ATOM     14  O   UNL     1      -2.528  27.291  19.310  0.00  0.00    +0.000 OA
ATOM     15  H   UNL     1      -1.629  27.476  19.635  0.00  0.00    +0.000 HD
ENDBRANCH   6  14
BRANCH   4  16
ATOM     16  C   UNL     1      -2.674  24.044  13.565  0.00  0.00    +0.000 C 
ATOM     17  C   UNL     1      -3.004  22.559  13.381  0.00  0.00    +0.000 C 
BRANCH  17  20
ATOM     18  O   UNL     1      -4.349  19.270  13.619  0.00  0.00    +0.000 OA
ATOM     19  O   UNL     1      -4.660  20.923  15.235  0.00  0.00    +0.000 OA
ATOM     20  C   UNL     1      -3.290  21.304  13.233  0.00  0.00    +0.000 C 
ATOM     21  C   UNL     1      -2.932  20.443  12.134  0.00  0.00    +0.000 C 
ATOM     22  C   UNL     1      -4.181  20.531  14.185  0.00  0.00    +0.000 C 
ATOM     23  C   UNL     1      -3.645  19.300  12.498  0.00  0.00    +0.000 C 
BRANCH  21  24
ATOM     24  O   UNL     1      -2.862  20.941  10.863  0.00  0.00    +0.000 OA
ATOM     25  H   UNL     1      -2.227  21.675  10.797  0.00  0.00    +0.000 HD
ENDBRANCH  21  24
ENDBRANCH  17  20
ENDBRANCH   4  16
BRANCH   3  26
ATOM     26  C   UNL     1      -0.719  28.469  17.269  0.00  0.00    +0.000 C 
BRANCH  26  27
ATOM     27  O   UNL     1       0.487  28.919  17.626  0.00  0.00    +0.000 OA
ATOM     28  H   UNL     1       0.704  28.636  18.533  0.00  0.00    +0.000 HD
ENDBRANCH  26  27
ENDBRANCH   3  26
TORSDOF 6
ENDMDL
MODEL 7
REMARK VINA RESULT:      -5.5     22.185     25.547
REMARK  Name = 5318517_Andrographolide.pdbqt.pdb
REMARK  6 active torsions:
REMARK  status: ('A' for Active; 'I' for Inactive)
REMARK    1  A    between atoms: C_3  and  C_16
REMARK    2  A    between atoms: C_4  and  C_19
REMARK    3  A    between atoms: C_6  and  O_14
REMARK    4  A    between atoms: C_16  and  O_17
REMARK    5  A    between atoms: C_22  and  C_23
REMARK    6  A    between atoms: C_24  and  O_27
REMARK                            x       y       z     vdW  Elec       q    Type
REMARK                         _______ _______ _______ _____ _____    ______ ____
ROOT
ATOM      1  C   UNL     1      29.540  14.289  16.640  0.00  0.00    +0.000 C 
ATOM      2  C   UNL     1      28.879  13.985  15.261  0.00  0.00    +0.000 C 
ATOM      3  C   UNL     1      28.582  15.084  14.225  0.00  0.00    +0.000 C 
ATOM      4  C   UNL     1      29.180  13.340  17.818  0.00  0.00    +0.000 C 
ATOM      5  C   UNL     1      29.127  15.653  16.954  0.00  0.00    +0.000 C 
ATOM      6  C   UNL     1      28.402  16.536  14.762  0.00  0.00    +0.000 C 
ATOM      7  C   UNL     1      28.539  12.614  15.081  0.00  0.00    +0.000 C 
ATOM      8  C   UNL     1      28.588  16.777  16.135  0.00  0.00    +0.000 C 
ATOM      9  C   UNL     1      31.084  14.219  16.434  0.00  0.00    +0.000 C 
ATOM     10  C   UNL     1      28.528  11.631  16.207  0.00  0.00    +0.000 C 
ATOM     11  C   UNL     1      28.827  11.938  17.551  0.00  0.00    +0.000 C 
ATOM     12  C   UNL     1      27.224  14.724  13.521  0.00  0.00    +0.000 C 
ATOM     13  C   UNL     1      28.546  11.022  18.479  0.00  0.00    +0.000 C 
ENDROOT
BRANCH   6  14
ATOM     14  O   UNL     1      28.265  17.602  13.889  0.00  0.00    +0.000 OA
ATOM     15  H   UNL     1      29.082  17.778  13.390  0.00  0.00    +0.000 HD
ENDBRANCH   6  14
BRANCH   4  16
ATOM     16  C   UNL     1      29.313  13.790  19.175  0.00  0.00    +0.000 C 
ATOM     17  C   UNL     1      29.444  14.272  20.622  0.00  0.00    +0.000 C 
BRANCH  17  20
ATOM     18  O   UNL     1      30.585  15.299  23.836  0.00  0.00    +0.000 OA
ATOM     19  O   UNL     1      31.934  14.248  22.250  0.00  0.00    +0.000 OA
ATOM     20  C   UNL     1      29.549  14.674  21.850  0.00  0.00    +0.000 C 
ATOM     21  C   UNL     1      28.525  15.265  22.674  0.00  0.00    +0.000 C 
ATOM     22  C   UNL     1      30.857  14.685  22.616  0.00  0.00    +0.000 C 
ATOM     23  C   UNL     1      29.295  15.596  23.792  0.00  0.00    +0.000 C 
BRANCH  21  24
ATOM     24  O   UNL     1      27.578  16.078  22.119  0.00  0.00    +0.000 OA
ATOM     25  H   UNL     1      27.067  16.553  22.798  0.00  0.00    +0.000 HD
ENDBRANCH  21  24
ENDBRANCH  17  20
ENDBRANCH   4  16
BRANCH   3  26
ATOM     26  C   UNL     1      29.693  15.081  13.233  0.00  0.00    +0.000 C 
BRANCH  26  27
ATOM     27  O   UNL     1      30.696  15.069  12.349  0.00  0.00    +0.000 OA
ATOM     28  H   UNL     1      30.499  15.660  11.599  0.00  0.00    +0.000 HD
ENDBRANCH  26  27
ENDBRANCH   3  26
TORSDOF 6
ENDMDL
MODEL 8
REMARK VINA RESULT:      -5.5     13.199     16.440
REMARK  Name = 5318517_Andrographolide.pdbqt.pdb
REMARK  6 active torsions:
REMARK  status: ('A' for Active; 'I' for Inactive)
REMARK    1  A    between atoms: C_3  and  C_16
REMARK    2  A    between atoms: C_4  and  C_19
REMARK    3  A    between atoms: C_6  and  O_14
REMARK    4  A    between atoms: C_16  and  O_17
REMARK    5  A    between atoms: C_22  and  C_23
REMARK    6  A    between atoms: C_24  and  O_27
REMARK                            x       y       z     vdW  Elec       q    Type
REMARK                         _______ _______ _______ _____ _____    ______ ____
ROOT
ATOM      1  C   UNL     1      23.247  13.512  26.303  0.00  0.00    +0.000 C 
ATOM      2  C   UNL     1      24.394  12.867  25.466  0.00  0.00    +0.000 C 
ATOM      3  C   UNL     1      24.778  11.382  25.595  0.00  0.00    +0.000 C 
ATOM      4  C   UNL     1      23.381  15.027  26.629  0.00  0.00    +0.000 C 
ATOM      5  C   UNL     1      23.213  12.737  27.540  0.00  0.00    +0.000 C 
ATOM      6  C   UNL     1      24.434  10.673  26.939  0.00  0.00    +0.000 C 
ATOM      7  C   UNL     1      25.070  13.790  24.619  0.00  0.00    +0.000 C 
ATOM      8  C   UNL     1      23.737  11.395  27.925  0.00  0.00    +0.000 C 
ATOM      9  C   UNL     1      21.926  13.318  25.498  0.00  0.00    +0.000 C 
ATOM     10  C   UNL     1      24.911  15.270  24.747  0.00  0.00    +0.000 C 
ATOM     11  C   UNL     1      24.106  15.915  25.709  0.00  0.00    +0.000 C 
ATOM     12  C   UNL     1      26.339  11.276  25.450  0.00  0.00    +0.000 C 
ATOM     13  C   UNL     1      24.246  17.233  25.859  0.00  0.00    +0.000 C 
ENDROOT
BRANCH   6  14
ATOM     14  O   UNL     1      24.623   9.310  27.090  0.00  0.00    +0.000 OA
ATOM     15  H   UNL     1      23.978   8.913  27.702  0.00  0.00    +0.000 HD
ENDBRANCH   6  14
BRANCH   4  16
ATOM     16  C   UNL     1      22.691  15.587  27.757  0.00  0.00    +0.000 C 
ATOM     17  C   UNL     1      21.957  16.195  28.955  0.00  0.00    +0.000 C 
BRANCH  17  20
ATOM     18  O   UNL     1      19.883  18.124  31.115  0.00  0.00    +0.000 OA
ATOM     19  O   UNL     1      20.367  18.709  28.909  0.00  0.00    +0.000 OA
ATOM     20  C   UNL     1      21.329  16.711  29.964  0.00  0.00    +0.000 C 
ATOM     21  C   UNL     1      21.207  16.173  31.295  0.00  0.00    +0.000 C 
ATOM     22  C   UNL     1      20.491  17.971  29.871  0.00  0.00    +0.000 C 
ATOM     23  C   UNL     1      20.314  17.100  31.836  0.00  0.00    +0.000 C 
BRANCH  21  24
ATOM     24  O   UNL     1      21.132  14.822  31.488  0.00  0.00    +0.000 OA
ATOM     25  H   UNL     1      20.399  14.583  32.083  0.00  0.00    +0.000 HD
ENDBRANCH  21  24
ENDBRANCH  17  20
ENDBRANCH   4  16
BRANCH   3  26
ATOM     26  C   UNL     1      24.107  10.645  24.486  0.00  0.00    +0.000 C 
BRANCH  26  27
ATOM     27  O   UNL     1      23.507   9.973  23.499  0.00  0.00    +0.000 OA
ATOM     28  H   UNL     1      22.539  10.026  23.588  0.00  0.00    +0.000 HD
ENDBRANCH  26  27
ENDBRANCH   3  26
TORSDOF 6
ENDMDL
MODEL 9
REMARK VINA RESULT:      -5.3     28.202     29.603
REMARK  Name = 5318517_Andrographolide.pdbqt.pdb
REMARK  6 active torsions:
REMARK  status: ('A' for Active; 'I' for Inactive)
REMARK    1  A    between atoms: C_3  and  C_16
REMARK    2  A    between atoms: C_4  and  C_19
REMARK    3  A    between atoms: C_6  and  O_14
REMARK    4  A    between atoms: C_16  and  O_17
REMARK    5  A    between atoms: C_22  and  C_23
REMARK    6  A    between atoms: C_24  and  O_27
REMARK                            x       y       z     vdW  Elec       q    Type
REMARK                         _______ _______ _______ _____ _____    ______ ____
ROOT
ATOM      1  C   UNL     1      14.317  17.867   1.376  0.00  0.00    +0.000 C 
ATOM      2  C   UNL     1      13.425  16.649   1.764  0.00  0.00    +0.000 C 
ATOM      3  C   UNL     1      11.891  16.740   1.850  0.00  0.00    +0.000 C 
ATOM      4  C   UNL     1      15.757  17.900   1.961  0.00  0.00    +0.000 C 
ATOM      5  C   UNL     1      13.567  19.034   1.833  0.00  0.00    +0.000 C 
ATOM      6  C   UNL     1      11.277  18.147   2.119  0.00  0.00    +0.000 C 
ATOM      7  C   UNL     1      14.167  15.474   2.072  0.00  0.00    +0.000 C 
ATOM      8  C   UNL     1      12.138  19.256   2.197  0.00  0.00    +0.000 C 
ATOM      9  C   UNL     1      14.440  17.870  -0.179  0.00  0.00    +0.000 C 
ATOM     10  C   UNL     1      15.644  15.490   2.305  0.00  0.00    +0.000 C 
ATOM     11  C   UNL     1      16.455  16.643   2.266  0.00  0.00    +0.000 C 
ATOM     12  C   UNL     1      11.424  15.840   3.051  0.00  0.00    +0.000 C 
ATOM     13  C   UNL     1      17.704  16.544   2.725  0.00  0.00    +0.000 C 
ENDROOT
BRANCH   6  14
ATOM     14  O   UNL     1       9.907  18.341   2.080  0.00  0.00    +0.000 OA
ATOM     15  H   UNL     1       9.527  18.474   2.967  0.00  0.00    +0.000 HD
ENDBRANCH   6  14
BRANCH   4  16
ATOM     16  C   UNL     1      16.459  19.146   2.086  0.00  0.00    +0.000 C 
ATOM     17  C   UNL     1      17.213  20.473   2.211  0.00  0.00    +0.000 C 
BRANCH  17  20
ATOM     18  O   UNL     1      18.156  23.886   2.599  0.00  0.00    +0.000 OA
ATOM     19  O   UNL     1      15.966  23.174   2.231  0.00  0.00    +0.000 OA
ATOM     20  C   UNL     1      17.848  21.599   2.309  0.00  0.00    +0.000 C 
ATOM     21  C   UNL     1      19.264  21.799   2.485  0.00  0.00    +0.000 C 
ATOM     22  C   UNL     1      17.155  22.946   2.364  0.00  0.00    +0.000 C 
ATOM     23  C   UNL     1      19.278  23.185   2.662  0.00  0.00    +0.000 C 
BRANCH  21  24
ATOM     24  O   UNL     1      19.998  20.917   3.227  0.00  0.00    +0.000 OA
ATOM     25  H   UNL     1      20.505  21.366   3.926  0.00  0.00    +0.000 HD
ENDBRANCH  21  24
ENDBRANCH  17  20
ENDBRANCH   4  16
BRANCH   3  26
ATOM     26  C   UNL     1      11.335  16.219   0.570  0.00  0.00    +0.000 C 
BRANCH  26  27
ATOM     27  O   UNL     1      10.847  15.745  -0.580  0.00  0.00    +0.000 OA
ATOM     28  H   UNL     1      11.377  14.990  -0.893  0.00  0.00    +0.000 HD
ENDBRANCH  26  27
ENDBRANCH   3  26
TORSDOF 6
ENDMDL
