MODEL 1
REMARK VINA RESULT:      -6.7      0.000      0.000
REMARK  Name = 5326018_Caulerpin.pdbqt.pdb
REMARK  4 active torsions:
REMARK  status: ('A' for Active; 'I' for Inactive)
REMARK    1  A    between atoms: C_11  and  C_26
REMARK    2  A    between atoms: C_12  and  C_30
REMARK    3  A    between atoms: C_26  and  O_27
REMARK    4  A    between atoms: C_30  and  O_31
REMARK                            x       y       z     vdW  Elec       q    Type
REMARK                         _______ _______ _______ _____ _____    ______ ____
ROOT
ATOM      1  N   UNL     1      20.370  27.101   3.175  0.00  0.00    +0.000 N 
ATOM      2  N   UNL     1      21.889  30.766   8.366  0.00  0.00    +0.000 N 
ATOM      3  C   UNL     1      21.953  27.862   4.527  0.00  0.00    +0.000 C 
ATOM      4  C   UNL     1      20.422  30.302   6.770  0.00  0.00    +0.000 C 
ATOM      5  C   UNL     1      20.654  28.100   4.083  0.00  0.00    +0.000 C 
ATOM      6  C   UNL     1      21.760  30.167   7.130  0.00  0.00    +0.000 C 
ATOM      7  C   UNL     1      22.481  26.747   3.833  0.00  0.00    +0.000 A 
ATOM      8  C   UNL     1      19.749  31.047   7.768  0.00  0.00    +0.000 A 
ATOM      9  C   UNL     1      21.470  26.292   2.987  0.00  0.00    +0.000 A 
ATOM     10  C   UNL     1      20.692  31.330   8.755  0.00  0.00    +0.000 A 
ATOM     11  C   UNL     1      19.671  29.080   4.461  0.00  0.00    +0.000 C 
ATOM     12  C   UNL     1      22.867  29.498   6.496  0.00  0.00    +0.000 C 
ATOM     13  C   UNL     1      19.880  29.730   5.577  0.00  0.00    +0.000 C 
ATOM     14  C   UNL     1      22.578  28.647   5.546  0.00  0.00    +0.000 C 
ATOM     15  C   UNL     1      23.712  26.066   3.849  0.00  0.00    +0.000 A 
ATOM     16  C   UNL     1      18.427  31.496   7.943  0.00  0.00    +0.000 A 
ATOM     17  C   UNL     1      21.628  25.184   2.146  0.00  0.00    +0.000 A 
ATOM     18  C   UNL     1      20.382  32.048   9.915  0.00  0.00    +0.000 A 
ATOM     19  C   UNL     1      23.889  24.962   3.012  0.00  0.00    +0.000 A 
ATOM     20  C   UNL     1      18.101  32.219   9.092  0.00  0.00    +0.000 A 
ATOM     21  C   UNL     1      22.863  24.533   2.176  0.00  0.00    +0.000 A 
ATOM     22  C   UNL     1      19.065  32.489  10.058  0.00  0.00    +0.000 A 
ATOM     23  H   UNL     1      19.489  26.946   2.702  0.00  0.00    +0.000 HD
ATOM     24  H   UNL     1      22.722  30.799   8.940  0.00  0.00    +0.000 HD
ENDROOT
BRANCH  11  26
ATOM     25  O   UNL     1      17.541  28.787   3.411  0.00  0.00    +0.000 OA
ATOM     26  C   UNL     1      18.509  29.505   3.627  0.00  0.00    +0.000 C 
BRANCH  26  27
ATOM     27  O   UNL     1      18.718  30.785   3.201  0.00  0.00    +0.000 OA
ATOM     28  C   UNL     1      18.306  31.129   1.905  0.00  0.00    +0.000 C 
ENDBRANCH  26  27
ENDBRANCH  11  26
BRANCH  12  30
ATOM     29  O   UNL     1      24.767  30.021   7.855  0.00  0.00    +0.000 OA
ATOM     30  C   UNL     1      24.310  29.790   6.742  0.00  0.00    +0.000 C 
BRANCH  30  31
ATOM     31  O   UNL     1      24.979  29.727   5.554  0.00  0.00    +0.000 OA
ATOM     32  C   UNL     1      26.208  29.050   5.521  0.00  0.00    +0.000 C 
ENDBRANCH  30  31
ENDBRANCH  12  30
TORSDOF 4
ENDMDL
MODEL 2
REMARK VINA RESULT:      -6.6     20.269     23.763
REMARK  Name = 5326018_Caulerpin.pdbqt.pdb
REMARK  4 active torsions:
REMARK  status: ('A' for Active; 'I' for Inactive)
REMARK    1  A    between atoms: C_11  and  C_26
REMARK    2  A    between atoms: C_12  and  C_30
REMARK    3  A    between atoms: C_26  and  O_27
REMARK    4  A    between atoms: C_30  and  O_31
REMARK                            x       y       z     vdW  Elec       q    Type
REMARK                         _______ _______ _______ _____ _____    ______ ____
ROOT
ATOM      1  N   UNL     1      -1.495  25.846  15.696  0.00  0.00    +0.000 N 
ATOM      2  N   UNL     1       1.231  30.057  11.509  0.00  0.00    +0.000 N 
ATOM      3  C   UNL     1      -1.413  26.636  13.627  0.00  0.00    +0.000 C 
ATOM      4  C   UNL     1       0.835  29.512  13.621  0.00  0.00    +0.000 C 
ATOM      5  C   UNL     1      -1.091  26.933  14.949  0.00  0.00    +0.000 C 
ATOM      6  C   UNL     1       0.404  29.301  12.314  0.00  0.00    +0.000 C 
ATOM      7  C   UNL     1      -2.077  25.386  13.583  0.00  0.00    +0.000 A 
ATOM      8  C   UNL     1       1.891  30.456  13.612  0.00  0.00    +0.000 A 
ATOM      9  C   UNL     1      -2.120  24.915  14.895  0.00  0.00    +0.000 A 
ATOM     10  C   UNL     1       2.117  30.785  12.276  0.00  0.00    +0.000 A 
ATOM     11  C   UNL     1      -0.407  28.049  15.547  0.00  0.00    +0.000 C 
ATOM     12  C   UNL     1      -0.610  28.442  11.760  0.00  0.00    +0.000 C 
ATOM     13  C   UNL     1       0.269  28.830  14.743  0.00  0.00    +0.000 C 
ATOM     14  C   UNL     1      -1.072  27.495  12.535  0.00  0.00    +0.000 C 
ATOM     15  C   UNL     1      -2.631  24.597  12.558  0.00  0.00    +0.000 A 
ATOM     16  C   UNL     1       2.692  31.053  14.604  0.00  0.00    +0.000 A 
ATOM     17  C   UNL     1      -2.697  23.687  15.239  0.00  0.00    +0.000 A 
ATOM     18  C   UNL     1       3.106  31.690  11.876  0.00  0.00    +0.000 A 
ATOM     19  C   UNL     1      -3.216  23.373  12.886  0.00  0.00    +0.000 A 
ATOM     20  C   UNL     1       3.679  31.962  14.222  0.00  0.00    +0.000 A 
ATOM     21  C   UNL     1      -3.248  22.929  14.204  0.00  0.00    +0.000 A 
ATOM     22  C   UNL     1       3.879  32.274  12.881  0.00  0.00    +0.000 A 
ATOM     23  H   UNL     1      -1.360  25.712  16.690  0.00  0.00    +0.000 HD
ATOM     24  H   UNL     1       1.227  30.090  10.497  0.00  0.00    +0.000 HD
ENDROOT
BRANCH  11  26
ATOM     25  O   UNL     1       0.432  28.919  17.612  0.00  0.00    +0.000 OA
ATOM     26  C   UNL     1      -0.510  28.461  16.977  0.00  0.00    +0.000 C 
BRANCH  26  27
ATOM     27  O   UNL     1      -1.792  28.262  17.401  0.00  0.00    +0.000 OA
ATOM     28  C   UNL     1      -2.691  29.336  17.325  0.00  0.00    +0.000 C 
ENDBRANCH  26  27
ENDBRANCH  11  26
BRANCH  12  30
ATOM     29  O   UNL     1      -2.407  29.050  10.301  0.00  0.00    +0.000 OA
ATOM     30  C   UNL     1      -1.266  28.624  10.432  0.00  0.00    +0.000 C 
BRANCH  30  31
ATOM     31  O   UNL     1      -0.385  28.265   9.454  0.00  0.00    +0.000 OA
ATOM     32  C   UNL     1      -0.823  27.377   8.460  0.00  0.00    +0.000 C 
ENDBRANCH  30  31
ENDBRANCH  12  30
TORSDOF 4
ENDMDL
MODEL 3
REMARK VINA RESULT:      -6.6     26.333     28.806
REMARK  Name = 5326018_Caulerpin.pdbqt.pdb
REMARK  4 active torsions:
REMARK  status: ('A' for Active; 'I' for Inactive)
REMARK    1  A    between atoms: C_11  and  C_26
REMARK    2  A    between atoms: C_12  and  C_30
REMARK    3  A    between atoms: C_26  and  O_27
REMARK    4  A    between atoms: C_30  and  O_31
REMARK                            x       y       z     vdW  Elec       q    Type
REMARK                         _______ _______ _______ _____ _____    ______ ____
ROOT
ATOM      1  N   UNL     1      12.750  19.095  31.020  0.00  0.00    +0.000 N 
ATOM      2  N   UNL     1       7.809  23.348  30.589  0.00  0.00    +0.000 N 
ATOM      3  C   UNL     1      12.111  21.190  30.683  0.00  0.00    +0.000 C 
ATOM      4  C   UNL     1       8.464  21.231  30.528  0.00  0.00    +0.000 C 
ATOM      5  C   UNL     1      11.666  19.870  30.663  0.00  0.00    +0.000 C 
ATOM      6  C   UNL     1       8.915  22.543  30.408  0.00  0.00    +0.000 C 
ATOM      7  C   UNL     1      13.493  21.207  30.990  0.00  0.00    +0.000 A 
ATOM      8  C   UNL     1       7.061  21.240  30.720  0.00  0.00    +0.000 A 
ATOM      9  C   UNL     1      13.870  19.880  31.192  0.00  0.00    +0.000 A 
ATOM     10  C   UNL     1       6.675  22.580  30.750  0.00  0.00    +0.000 A 
ATOM     11  C   UNL     1      10.369  19.294  30.429  0.00  0.00    +0.000 C 
ATOM     12  C   UNL     1      10.230  23.098  30.222  0.00  0.00    +0.000 C 
ATOM     13  C   UNL     1       9.343  20.104  30.479  0.00  0.00    +0.000 C 
ATOM     14  C   UNL     1      11.245  22.303  30.443  0.00  0.00    +0.000 C 
ATOM     15  C   UNL     1      14.461  22.219  31.134  0.00  0.00    +0.000 A 
ATOM     16  C   UNL     1       6.080  20.246  30.888  0.00  0.00    +0.000 A 
ATOM     17  C   UNL     1      15.176  19.507  31.530  0.00  0.00    +0.000 A 
ATOM     18  C   UNL     1       5.347  22.981  30.937  0.00  0.00    +0.000 A 
ATOM     19  C   UNL     1      15.770  21.863  31.465  0.00  0.00    +0.000 A 
ATOM     20  C   UNL     1       4.750  20.628  31.070  0.00  0.00    +0.000 A 
ATOM     21  C   UNL     1      16.118  20.530  31.658  0.00  0.00    +0.000 A 
ATOM     22  C   UNL     1       4.394  21.972  31.092  0.00  0.00    +0.000 A 
ATOM     23  H   UNL     1      12.758  18.092  31.157  0.00  0.00    +0.000 HD
ATOM     24  H   UNL     1       7.794  24.360  30.619  0.00  0.00    +0.000 HD
ENDROOT
BRANCH  11  26
ATOM     25  O   UNL     1       9.213  17.199  30.477  0.00  0.00    +0.000 OA
ATOM     26  C   UNL     1      10.112  17.886  30.007  0.00  0.00    +0.000 C 
BRANCH  26  27
ATOM     27  O   UNL     1      11.007  17.548  29.034  0.00  0.00    +0.000 OA
ATOM     28  C   UNL     1      11.492  16.232  29.006  0.00  0.00    +0.000 C 
ENDBRANCH  26  27
ENDBRANCH  11  26
BRANCH  12  30
ATOM     29  O   UNL     1      11.371  25.201  30.160  0.00  0.00    +0.000 OA
ATOM     30  C   UNL     1      10.528  24.455  29.677  0.00  0.00    +0.000 C 
BRANCH  30  31
ATOM     31  O   UNL     1       9.738  24.673  28.586  0.00  0.00    +0.000 OA
ATOM     32  C   UNL     1       9.464  26.000  28.220  0.00  0.00    +0.000 C 
ENDBRANCH  30  31
ENDBRANCH  12  30
TORSDOF 4
ENDMDL
MODEL 4
REMARK VINA RESULT:      -6.5     26.859     28.477
REMARK  Name = 5326018_Caulerpin.pdbqt.pdb
REMARK  4 active torsions:
REMARK  status: ('A' for Active; 'I' for Inactive)
REMARK    1  A    between atoms: C_11  and  C_26
REMARK    2  A    between atoms: C_12  and  C_30
REMARK    3  A    between atoms: C_26  and  O_27
REMARK    4  A    between atoms: C_30  and  O_31
REMARK                            x       y       z     vdW  Elec       q    Type
REMARK                         _______ _______ _______ _____ _____    ______ ____
ROOT
ATOM      1  N   UNL     1      13.322  19.315  29.923  0.00  0.00    +0.000 N 
ATOM      2  N   UNL     1       8.212  23.384  30.051  0.00  0.00    +0.000 N 
ATOM      3  C   UNL     1      11.138  19.565  30.207  0.00  0.00    +0.000 C 
ATOM      4  C   UNL     1      10.413  23.142  30.168  0.00  0.00    +0.000 C 
ATOM      5  C   UNL     1      12.351  20.250  30.215  0.00  0.00    +0.000 C 
ATOM      6  C   UNL     1       9.206  22.460  30.299  0.00  0.00    +0.000 C 
ATOM      7  C   UNL     1      11.386  18.191  29.973  0.00  0.00    +0.000 A 
ATOM      8  C   UNL     1      10.145  24.507  29.902  0.00  0.00    +0.000 A 
ATOM      9  C   UNL     1      12.764  18.060  29.803  0.00  0.00    +0.000 A 
ATOM     10  C   UNL     1       8.758  24.633  29.838  0.00  0.00    +0.000 A 
ATOM     11  C   UNL     1      12.670  21.643  30.386  0.00  0.00    +0.000 C 
ATOM     12  C   UNL     1       8.904  21.075  30.548  0.00  0.00    +0.000 C 
ATOM     13  C   UNL     1      11.683  22.495  30.274  0.00  0.00    +0.000 C 
ATOM     14  C   UNL     1       9.879  20.218  30.389  0.00  0.00    +0.000 C 
ATOM     15  C   UNL     1      10.576  17.044  29.870  0.00  0.00    +0.000 A 
ATOM     16  C   UNL     1      10.941  25.648  29.691  0.00  0.00    +0.000 A 
ATOM     17  C   UNL     1      13.381  16.832  29.539  0.00  0.00    +0.000 A 
ATOM     18  C   UNL     1       8.119  25.851  29.578  0.00  0.00    +0.000 A 
ATOM     19  C   UNL     1      11.177  15.810  29.612  0.00  0.00    +0.000 A 
ATOM     20  C   UNL     1      10.321  26.871  29.435  0.00  0.00    +0.000 A 
ATOM     21  C   UNL     1      12.555  15.710  29.451  0.00  0.00    +0.000 A 
ATOM     22  C   UNL     1       8.934  26.968  29.381  0.00  0.00    +0.000 A 
ATOM     23  H   UNL     1      14.311  19.489  29.797  0.00  0.00    +0.000 HD
ATOM     24  H   UNL     1       7.216  23.208  30.011  0.00  0.00    +0.000 HD
ENDROOT
BRANCH  11  26
ATOM     25  O   UNL     1      15.027  21.520  30.778  0.00  0.00    +0.000 OA
ATOM     26  C   UNL     1      13.996  22.181  30.807  0.00  0.00    +0.000 C 
BRANCH  26  27
ATOM     27  O   UNL     1      13.843  23.483  31.184  0.00  0.00    +0.000 OA
ATOM     28  C   UNL     1      14.539  23.933  32.317  0.00  0.00    +0.000 C 
ENDBRANCH  26  27
ENDBRANCH  11  26
BRANCH  12  30
ATOM     29  O   UNL     1       6.746  21.280  31.563  0.00  0.00    +0.000 OA
ATOM     30  C   UNL     1       7.616  20.555  31.096  0.00  0.00    +0.000 C 
BRANCH  30  31
ATOM     31  O   UNL     1       7.595  19.198  30.956  0.00  0.00    +0.000 OA
ATOM     32  C   UNL     1       6.739  18.459  31.786  0.00  0.00    +0.000 C 
ENDBRANCH  30  31
ENDBRANCH  12  30
TORSDOF 4
ENDMDL
MODEL 5
REMARK VINA RESULT:      -6.5     35.428     36.988
REMARK  Name = 5326018_Caulerpin.pdbqt.pdb
REMARK  4 active torsions:
REMARK  status: ('A' for Active; 'I' for Inactive)
REMARK    1  A    between atoms: C_11  and  C_26
REMARK    2  A    between atoms: C_12  and  C_30
REMARK    3  A    between atoms: C_26  and  O_27
REMARK    4  A    between atoms: C_30  and  O_31
REMARK                            x       y       z     vdW  Elec       q    Type
REMARK                         _______ _______ _______ _____ _____    ______ ____
ROOT
ATOM      1  N   UNL     1       4.735   0.990  19.248  0.00  0.00    +0.000 N 
ATOM      2  N   UNL     1       8.490  -3.795  16.862  0.00  0.00    +0.000 N 
ATOM      3  C   UNL     1       6.008  -0.775  19.671  0.00  0.00    +0.000 C 
ATOM      4  C   UNL     1       6.912  -2.287  16.474  0.00  0.00    +0.000 C 
ATOM      5  C   UNL     1       5.269  -0.144  18.672  0.00  0.00    +0.000 C 
ATOM      6  C   UNL     1       7.544  -3.007  17.485  0.00  0.00    +0.000 C 
ATOM      7  C   UNL     1       5.865  -0.049  20.878  0.00  0.00    +0.000 A 
ATOM      8  C   UNL     1       7.436  -2.691  15.222  0.00  0.00    +0.000 A 
ATOM      9  C   UNL     1       5.058   1.050  20.587  0.00  0.00    +0.000 A 
ATOM     10  C   UNL     1       8.420  -3.641  15.493  0.00  0.00    +0.000 A 
ATOM     11  C   UNL     1       5.083  -0.443  17.277  0.00  0.00    +0.000 C 
ATOM     12  C   UNL     1       7.409  -2.979  18.918  0.00  0.00    +0.000 C 
ATOM     13  C   UNL     1       5.917  -1.295  16.737  0.00  0.00    +0.000 C 
ATOM     14  C   UNL     1       6.783  -1.952  19.434  0.00  0.00    +0.000 C 
ATOM     15  C   UNL     1       6.354  -0.205  22.188  0.00  0.00    +0.000 A 
ATOM     16  C   UNL     1       7.186  -2.335  13.884  0.00  0.00    +0.000 A 
ATOM     17  C   UNL     1       4.708   2.007  21.545  0.00  0.00    +0.000 A 
ATOM     18  C   UNL     1       9.172  -4.261  14.489  0.00  0.00    +0.000 A 
ATOM     19  C   UNL     1       6.009   0.738  23.159  0.00  0.00    +0.000 A 
ATOM     20  C   UNL     1       7.923  -2.948  12.869  0.00  0.00    +0.000 A 
ATOM     21  C   UNL     1       5.200   1.823  22.839  0.00  0.00    +0.000 A 
ATOM     22  C   UNL     1       8.896  -3.895  13.170  0.00  0.00    +0.000 A 
ATOM     23  H   UNL     1       4.189   1.704  18.783  0.00  0.00    +0.000 HD
ATOM     24  H   UNL     1       9.164  -4.403  17.312  0.00  0.00    +0.000 HD
ENDROOT
BRANCH  11  26
ATOM     25  O   UNL     1       3.104   0.826  16.834  0.00  0.00    +0.000 OA
ATOM     26  C   UNL     1       3.948   0.034  16.434  0.00  0.00    +0.000 C 
BRANCH  26  27
ATOM     27  O   UNL     1       4.049  -0.535  15.198  0.00  0.00    +0.000 OA
ATOM     28  C   UNL     1       3.004  -0.327  14.285  0.00  0.00    +0.000 C 
ENDBRANCH  26  27
ENDBRANCH  11  26
BRANCH  12  30
ATOM     29  O   UNL     1       8.555  -4.992  19.521  0.00  0.00    +0.000 OA
ATOM     30  C   UNL     1       7.806  -4.078  19.846  0.00  0.00    +0.000 C 
BRANCH  30  31
ATOM     31  O   UNL     1       7.223  -3.859  21.060  0.00  0.00    +0.000 OA
ATOM     32  C   UNL     1       6.640  -4.951  21.722  0.00  0.00    +0.000 C 
ENDBRANCH  30  31
ENDBRANCH  12  30
TORSDOF 4
ENDMDL
MODEL 6
REMARK VINA RESULT:      -6.5     18.376     21.327
REMARK  Name = 5326018_Caulerpin.pdbqt.pdb
REMARK  4 active torsions:
REMARK  status: ('A' for Active; 'I' for Inactive)
REMARK    1  A    between atoms: C_11  and  C_26
REMARK    2  A    between atoms: C_12  and  C_30
REMARK    3  A    between atoms: C_26  and  O_27
REMARK    4  A    between atoms: C_30  and  O_31
REMARK                            x       y       z     vdW  Elec       q    Type
REMARK                         _______ _______ _______ _____ _____    ______ ____
ROOT
ATOM      1  N   UNL     1       1.485  29.947  14.405  0.00  0.00    +0.000 N 
ATOM      2  N   UNL     1       2.271  31.621   8.138  0.00  0.00    +0.000 N 
ATOM      3  C   UNL     1       0.907  29.607  12.292  0.00  0.00    +0.000 C 
ATOM      4  C   UNL     1       2.517  32.183  10.268  0.00  0.00    +0.000 C 
ATOM      5  C   UNL     1       1.486  30.534  13.156  0.00  0.00    +0.000 C 
ATOM      6  C   UNL     1       1.822  31.334   9.411  0.00  0.00    +0.000 C 
ATOM      7  C   UNL     1       0.494  28.476  13.038  0.00  0.00    +0.000 A 
ATOM      8  C   UNL     1       3.346  33.037   9.501  0.00  0.00    +0.000 A 
ATOM      9  C   UNL     1       0.864  28.717  14.360  0.00  0.00    +0.000 A 
ATOM     10  C   UNL     1       3.170  32.667   8.168  0.00  0.00    +0.000 A 
ATOM     11  C   UNL     1       2.080  31.824  12.927  0.00  0.00    +0.000 C 
ATOM     12  C   UNL     1       0.877  30.276   9.658  0.00  0.00    +0.000 C 
ATOM     13  C   UNL     1       2.380  32.127  11.691  0.00  0.00    +0.000 C 
ATOM     14  C   UNL     1       0.803  29.822  10.882  0.00  0.00    +0.000 C 
ATOM     15  C   UNL     1      -0.143  27.262  12.720  0.00  0.00    +0.000 A 
ATOM     16  C   UNL     1       4.244  34.077   9.804  0.00  0.00    +0.000 A 
ATOM     17  C   UNL     1       0.625  27.803  15.392  0.00  0.00    +0.000 A 
ATOM     18  C   UNL     1       3.846  33.290   7.114  0.00  0.00    +0.000 A 
ATOM     19  C   UNL     1      -0.394  26.341  13.739  0.00  0.00    +0.000 A 
ATOM     20  C   UNL     1       4.922  34.714   8.764  0.00  0.00    +0.000 A 
ATOM     21  C   UNL     1      -0.016  26.610  15.050  0.00  0.00    +0.000 A 
ATOM     22  C   UNL     1       4.723  34.325   7.443  0.00  0.00    +0.000 A 
ATOM     23  H   UNL     1       1.885  30.329  15.253  0.00  0.00    +0.000 HD
ATOM     24  H   UNL     1       2.010  31.147   7.282  0.00  0.00    +0.000 HD
ENDROOT
BRANCH  11  26
ATOM     25  O   UNL     1       1.581  33.906  13.996  0.00  0.00    +0.000 OA
ATOM     26  C   UNL     1       2.260  32.888  13.958  0.00  0.00    +0.000 C 
BRANCH  26  27
ATOM     27  O   UNL     1       3.256  32.509  14.811  0.00  0.00    +0.000 OA
ATOM     28  C   UNL     1       4.164  33.486  15.247  0.00  0.00    +0.000 C 
ENDBRANCH  26  27
ENDBRANCH  11  26
BRANCH  12  30
ATOM     29  O   UNL     1      -1.313  29.690   8.890  0.00  0.00    +0.000 OA
ATOM     30  C   UNL     1      -0.109  29.749   8.670  0.00  0.00    +0.000 C 
BRANCH  30  31
ATOM     31  O   UNL     1       0.556  29.392   7.533  0.00  0.00    +0.000 OA
ATOM     32  C   UNL     1       1.132  28.113   7.476  0.00  0.00    +0.000 C 
ENDBRANCH  30  31
ENDBRANCH  12  30
TORSDOF 4
ENDMDL
MODEL 7
REMARK VINA RESULT:      -6.4     26.179     27.471
REMARK  Name = 5326018_Caulerpin.pdbqt.pdb
REMARK  4 active torsions:
REMARK  status: ('A' for Active; 'I' for Inactive)
REMARK    1  A    between atoms: C_11  and  C_26
REMARK    2  A    between atoms: C_12  and  C_30
REMARK    3  A    between atoms: C_26  and  O_27
REMARK    4  A    between atoms: C_30  and  O_31
REMARK                            x       y       z     vdW  Elec       q    Type
REMARK                         _______ _______ _______ _____ _____    ______ ____
ROOT
ATOM      1  N   UNL     1      27.316   9.033  21.334  0.00  0.00    +0.000 N 
ATOM      2  N   UNL     1      23.172  10.045  26.283  0.00  0.00    +0.000 N 
ATOM      3  C   UNL     1      26.112   8.153  22.973  0.00  0.00    +0.000 C 
ATOM      4  C   UNL     1      24.681  10.902  24.903  0.00  0.00    +0.000 C 
ATOM      5  C   UNL     1      26.684   9.340  22.521  0.00  0.00    +0.000 C 
ATOM      6  C   UNL     1      24.216   9.707  25.446  0.00  0.00    +0.000 C 
ATOM      7  C   UNL     1      26.459   7.106  22.086  0.00  0.00    +0.000 A 
ATOM      8  C   UNL     1      23.954  11.979  25.466  0.00  0.00    +0.000 A 
ATOM      9  C   UNL     1      27.218   7.684  21.069  0.00  0.00    +0.000 A 
ATOM     10  C   UNL     1      23.018  11.415  26.332  0.00  0.00    +0.000 A 
ATOM     11  C   UNL     1      26.635  10.687  23.025  0.00  0.00    +0.000 C 
ATOM     12  C   UNL     1      24.584   8.335  25.214  0.00  0.00    +0.000 C 
ATOM     13  C   UNL     1      25.716  10.953  23.917  0.00  0.00    +0.000 C 
ATOM     14  C   UNL     1      25.296   8.085  24.146  0.00  0.00    +0.000 C 
ATOM     15  C   UNL     1      26.189   5.726  22.033  0.00  0.00    +0.000 A 
ATOM     16  C   UNL     1      23.985  13.378  25.316  0.00  0.00    +0.000 A 
ATOM     17  C   UNL     1      27.730   6.947  19.995  0.00  0.00    +0.000 A 
ATOM     18  C   UNL     1      22.106  12.182  27.065  0.00  0.00    +0.000 A 
ATOM     19  C   UNL     1      26.698   4.975  20.971  0.00  0.00    +0.000 A 
ATOM     20  C   UNL     1      23.086  14.159  26.044  0.00  0.00    +0.000 A 
ATOM     21  C   UNL     1      27.455   5.578  19.973  0.00  0.00    +0.000 A 
ATOM     22  C   UNL     1      22.165  13.568  26.904  0.00  0.00    +0.000 A 
ATOM     23  H   UNL     1      27.786   9.681  20.714  0.00  0.00    +0.000 HD
ATOM     24  H   UNL     1      22.575   9.408  26.796  0.00  0.00    +0.000 HD
ENDROOT
BRANCH  11  26
ATOM     25  O   UNL     1      28.412  12.204  23.540  0.00  0.00    +0.000 OA
ATOM     26  C   UNL     1      27.621  11.762  22.715  0.00  0.00    +0.000 C 
BRANCH  26  27
ATOM     27  O   UNL     1      27.491  12.114  21.403  0.00  0.00    +0.000 OA
ATOM     28  C   UNL     1      28.285  13.162  20.914  0.00  0.00    +0.000 C 
ENDBRANCH  26  27
ENDBRANCH  11  26
BRANCH  12  30
ATOM     29  O   UNL     1      23.648   7.307  27.163  0.00  0.00    +0.000 OA
ATOM     30  C   UNL     1      24.333   7.202  26.152  0.00  0.00    +0.000 C 
BRANCH  30  31
ATOM     31  O   UNL     1      24.960   6.088  25.674  0.00  0.00    +0.000 OA
ATOM     32  C   UNL     1      24.279   4.863  25.739  0.00  0.00    +0.000 C 
ENDBRANCH  30  31
ENDBRANCH  12  30
TORSDOF 4
ENDMDL
MODEL 8
REMARK VINA RESULT:      -6.4     26.143     28.057
REMARK  Name = 5326018_Caulerpin.pdbqt.pdb
REMARK  4 active torsions:
REMARK  status: ('A' for Active; 'I' for Inactive)
REMARK    1  A    between atoms: C_11  and  C_26
REMARK    2  A    between atoms: C_12  and  C_30
REMARK    3  A    between atoms: C_26  and  O_27
REMARK    4  A    between atoms: C_30  and  O_31
REMARK                            x       y       z     vdW  Elec       q    Type
REMARK                         _______ _______ _______ _____ _____    ______ ____
ROOT
ATOM      1  N   UNL     1      23.110  10.237  26.265  0.00  0.00    +0.000 N 
ATOM      2  N   UNL     1      27.391   9.190  21.442  0.00  0.00    +0.000 N 
ATOM      3  C   UNL     1      24.703  11.067  24.966  0.00  0.00    +0.000 C 
ATOM      4  C   UNL     1      26.091   8.315  23.010  0.00  0.00    +0.000 C 
ATOM      5  C   UNL     1      24.169   9.878  25.457  0.00  0.00    +0.000 C 
ATOM      6  C   UNL     1      26.727   9.489  22.613  0.00  0.00    +0.000 C 
ATOM      7  C   UNL     1      24.002  12.157  25.535  0.00  0.00    +0.000 A 
ATOM      8  C   UNL     1      26.426   7.280  22.104  0.00  0.00    +0.000 A 
ATOM      9  C   UNL     1      23.011  11.610  26.349  0.00  0.00    +0.000 A 
ATOM     10  C   UNL     1      27.246   7.853  21.133  0.00  0.00    +0.000 A 
ATOM     11  C   UNL     1      24.488   8.498  25.198  0.00  0.00    +0.000 C 
ATOM     12  C   UNL     1      26.716  10.822  23.156  0.00  0.00    +0.000 C 
ATOM     13  C   UNL     1      25.230   8.249  24.150  0.00  0.00    +0.000 C 
ATOM     14  C   UNL     1      25.775  11.102  24.021  0.00  0.00    +0.000 C 
ATOM     15  C   UNL     1      24.096  13.557  25.427  0.00  0.00    +0.000 A 
ATOM     16  C   UNL     1      26.103   5.914  22.000  0.00  0.00    +0.000 A 
ATOM     17  C   UNL     1      22.105  12.394  27.072  0.00  0.00    +0.000 A 
ATOM     18  C   UNL     1      27.768   7.126  20.057  0.00  0.00    +0.000 A 
ATOM     19  C   UNL     1      23.204  14.355  26.146  0.00  0.00    +0.000 A 
ATOM     20  C   UNL     1      26.619   5.173  20.936  0.00  0.00    +0.000 A 
ATOM     21  C   UNL     1      22.228  13.781  26.953  0.00  0.00    +0.000 A 
ATOM     22  C   UNL     1      27.438   5.771  19.984  0.00  0.00    +0.000 A 
ATOM     23  H   UNL     1      22.469   9.611  26.736  0.00  0.00    +0.000 HD
ATOM     24  H   UNL     1      27.911   9.833  20.858  0.00  0.00    +0.000 HD
ENDROOT
BRANCH  11  26
ATOM     25  O   UNL     1      23.396   7.446  27.049  0.00  0.00    +0.000 OA
ATOM     26  C   UNL     1      24.156   7.352  26.092  0.00  0.00    +0.000 C 
BRANCH  26  27
ATOM     27  O   UNL     1      24.807   6.240  25.642  0.00  0.00    +0.000 OA
ATOM     28  C   UNL     1      24.263   4.983  25.947  0.00  0.00    +0.000 C 
ENDBRANCH  26  27
ENDBRANCH  11  26
BRANCH  12  30
ATOM     29  O   UNL     1      28.717  11.691  22.171  0.00  0.00    +0.000 OA
ATOM     30  C   UNL     1      27.757  11.863  22.913  0.00  0.00    +0.000 C 
BRANCH  30  31
ATOM     31  O   UNL     1      27.432  12.983  23.622  0.00  0.00    +0.000 OA
ATOM     32  C   UNL     1      28.009  14.203  23.236  0.00  0.00    +0.000 C 
ENDBRANCH  30  31
ENDBRANCH  12  30
TORSDOF 4
ENDMDL
MODEL 9
REMARK VINA RESULT:      -6.4     19.433     22.064
REMARK  Name = 5326018_Caulerpin.pdbqt.pdb
REMARK  4 active torsions:
REMARK  status: ('A' for Active; 'I' for Inactive)
REMARK    1  A    between atoms: C_11  and  C_26
REMARK    2  A    between atoms: C_12  and  C_30
REMARK    3  A    between atoms: C_26  and  O_27
REMARK    4  A    between atoms: C_30  and  O_31
REMARK                            x       y       z     vdW  Elec       q    Type
REMARK                         _______ _______ _______ _____ _____    ______ ____
ROOT
ATOM      1  N   UNL     1      23.570  21.235  24.353  0.00  0.00    +0.000 N 
ATOM      2  N   UNL     1      22.859  26.372  28.328  0.00  0.00    +0.000 N 
ATOM      3  C   UNL     1      23.208  21.969  26.413  0.00  0.00    +0.000 C 
ATOM      4  C   UNL     1      23.600  25.598  26.387  0.00  0.00    +0.000 C 
ATOM      5  C   UNL     1      23.714  22.338  25.169  0.00  0.00    +0.000 C 
ATOM      6  C   UNL     1      23.227  25.215  27.673  0.00  0.00    +0.000 C 
ATOM      7  C   UNL     1      22.816  20.609  26.367  0.00  0.00    +0.000 A 
ATOM      8  C   UNL     1      23.518  27.008  26.283  0.00  0.00    +0.000 A 
ATOM      9  C   UNL     1      23.058  20.171  25.066  0.00  0.00    +0.000 A 
ATOM     10  C   UNL     1      23.055  27.469  27.515  0.00  0.00    +0.000 A 
ATOM     11  C   UNL     1      24.226  23.587  24.669  0.00  0.00    +0.000 C 
ATOM     12  C   UNL     1      23.115  23.924  28.300  0.00  0.00    +0.000 C 
ATOM     13  C   UNL     1      23.972  24.657  25.376  0.00  0.00    +0.000 C 
ATOM     14  C   UNL     1      23.110  22.880  27.511  0.00  0.00    +0.000 C 
ATOM     15  C   UNL     1      22.262  19.709  27.296  0.00  0.00    +0.000 A 
ATOM     16  C   UNL     1      23.774  27.940  25.261  0.00  0.00    +0.000 A 
ATOM     17  C   UNL     1      22.777  18.868  24.641  0.00  0.00    +0.000 A 
ATOM     18  C   UNL     1      22.837  28.825  27.783  0.00  0.00    +0.000 A 
ATOM     19  C   UNL     1      21.981  18.402  26.890  0.00  0.00    +0.000 A 
ATOM     20  C   UNL     1      23.567  29.298  25.513  0.00  0.00    +0.000 A 
ATOM     21  C   UNL     1      22.236  17.993  25.585  0.00  0.00    +0.000 A 
ATOM     22  C   UNL     1      23.108  29.729  26.753  0.00  0.00    +0.000 A 
ATOM     23  H   UNL     1      23.788  21.180  23.367  0.00  0.00    +0.000 HD
ATOM     24  H   UNL     1      22.483  26.444  29.265  0.00  0.00    +0.000 HD
ENDROOT
BRANCH  11  26
ATOM     25  O   UNL     1      24.902  23.218  22.403  0.00  0.00    +0.000 OA
ATOM     26  C   UNL     1      25.125  23.742  23.488  0.00  0.00    +0.000 C 
BRANCH  26  27
ATOM     27  O   UNL     1      26.166  24.553  23.832  0.00  0.00    +0.000 OA
ATOM     28  C   UNL     1      27.365  24.436  23.113  0.00  0.00    +0.000 C 
ENDBRANCH  26  27
ENDBRANCH  11  26
BRANCH  12  30
ATOM     29  O   UNL     1      23.961  22.949  30.316  0.00  0.00    +0.000 OA
ATOM     30  C   UNL     1      23.135  23.672  29.771  0.00  0.00    +0.000 C 
BRANCH  30  31
ATOM     31  O   UNL     1      22.127  24.384  30.352  0.00  0.00    +0.000 OA
ATOM     32  C   UNL     1      20.813  23.913  30.208  0.00  0.00    +0.000 C 
ENDBRANCH  30  31
ENDBRANCH  12  30
TORSDOF 4
ENDMDL
