MODEL 1
REMARK VINA RESULT:      -3.5      0.000      0.000
REMARK  Name = 5350_Sulforaphane.pdbqt.pdb
REMARK  3 active torsions:
REMARK  status: ('A' for Active; 'I' for Inactive)
REMARK    1  A    between atoms: C_1  and  C_2
REMARK    2  A    between atoms: C_3  and  N_5
REMARK    3  A    between atoms: C_7  and  S_8
REMARK                            x       y       z     vdW  Elec       q    Type
REMARK                         _______ _______ _______ _____ _____    ______ ____
ROOT
ATOM      1  C   UNL     1       9.360  19.186  30.025  0.00  0.00    +0.000 C 
ATOM      2  C   UNL     1      10.352  18.041  29.794  0.00  0.00    +0.000 C 
ENDROOT
BRANCH   2   3
ATOM      3  S   UNL     1      11.490  16.722  29.531  0.00  0.00    +0.000 S 
ATOM      4  O   UNL     1      11.022  16.526  28.120  0.00  0.00    +0.000 OA
ATOM      5  C   UNL     1      10.376  15.502  30.140  0.00  0.00    +0.000 C 
ENDBRANCH   2   3
BRANCH   1   6
ATOM      6  C   UNL     1       8.371  20.332  30.257  0.00  0.00    +0.000 C 
ATOM      7  C   UNL     1       7.381  21.479  30.490  0.00  0.00    +0.000 C 
BRANCH   7   9
ATOM      8  S   UNL     1       6.724  24.449  28.775  0.00  0.00    +0.000 S 
ATOM      9  N   UNL     1       6.507  22.473  30.700  0.00  0.00    +0.000 NA
ATOM     10  C   UNL     1       6.615  23.300  29.874  0.00  0.00    +0.000 C 
ENDBRANCH   7   9
ENDBRANCH   1   6
TORSDOF 3
ENDMDL
MODEL 2
REMARK VINA RESULT:      -3.1     14.704     16.203
REMARK  Name = 5350_Sulforaphane.pdbqt.pdb
REMARK  3 active torsions:
REMARK  status: ('A' for Active; 'I' for Inactive)
REMARK    1  A    between atoms: C_1  and  C_2
REMARK    2  A    between atoms: C_3  and  N_5
REMARK    3  A    between atoms: C_7  and  S_8
REMARK                            x       y       z     vdW  Elec       q    Type
REMARK                         _______ _______ _______ _____ _____    ______ ____
ROOT
ATOM      1  C   UNL     1      23.654  13.102  25.503  0.00  0.00    +0.000 C 
ATOM      2  C   UNL     1      24.060  11.761  24.882  0.00  0.00    +0.000 C 
ENDROOT
BRANCH   2   3
ATOM      3  S   UNL     1      24.528  10.218  24.172  0.00  0.00    +0.000 S 
ATOM      4  O   UNL     1      23.298  10.177  23.316  0.00  0.00    +0.000 OA
ATOM      5  C   UNL     1      23.753   9.280  25.445  0.00  0.00    +0.000 C 
ENDBRANCH   2   3
BRANCH   1   6
ATOM      6  C   UNL     1      23.250  14.442  26.123  0.00  0.00    +0.000 C 
ATOM      7  C   UNL     1      22.846  15.785  26.744  0.00  0.00    +0.000 C 
BRANCH   7   9
ATOM      8  S   UNL     1      21.929  18.864  25.373  0.00  0.00    +0.000 S 
ATOM      9  N   UNL     1      22.486  16.952  27.296  0.00  0.00    +0.000 NA
ATOM     10  C   UNL     1      22.254  17.748  26.465  0.00  0.00    +0.000 C 
ENDBRANCH   7   9
ENDBRANCH   1   6
TORSDOF 3
ENDMDL
MODEL 3
REMARK VINA RESULT:      -3.1      7.608      8.167
REMARK  Name = 5350_Sulforaphane.pdbqt.pdb
REMARK  3 active torsions:
REMARK  status: ('A' for Active; 'I' for Inactive)
REMARK    1  A    between atoms: C_1  and  C_2
REMARK    2  A    between atoms: C_3  and  N_5
REMARK    3  A    between atoms: C_7  and  S_8
REMARK                            x       y       z     vdW  Elec       q    Type
REMARK                         _______ _______ _______ _____ _____    ______ ____
ROOT
ATOM      1  C   UNL     1       5.061  24.314  29.386  0.00  0.00    +0.000 C 
ATOM      2  C   UNL     1       3.772  23.991  30.150  0.00  0.00    +0.000 C 
ENDROOT
BRANCH   2   3
ATOM      3  S   UNL     1       2.294  23.619  31.033  0.00  0.00    +0.000 S 
ATOM      4  O   UNL     1       1.780  25.019  30.870  0.00  0.00    +0.000 OA
ATOM      5  C   UNL     1       3.010  23.995  32.597  0.00  0.00    +0.000 C 
ENDBRANCH   2   3
BRANCH   1   6
ATOM      6  C   UNL     1       6.349  24.634  28.621  0.00  0.00    +0.000 C 
ATOM      7  C   UNL     1       7.638  24.954  27.856  0.00  0.00    +0.000 C 
BRANCH   7   9
ATOM      8  S   UNL     1       9.911  27.601  28.012  0.00  0.00    +0.000 S 
ATOM      9  N   UNL     1       8.761  25.226  27.177  0.00  0.00    +0.000 NA
ATOM     10  C   UNL     1       9.233  26.236  27.546  0.00  0.00    +0.000 C 
ENDBRANCH   7   9
ENDBRANCH   1   6
TORSDOF 3
ENDMDL
MODEL 4
REMARK VINA RESULT:      -3.1      3.830      3.875
REMARK  Name = 5350_Sulforaphane.pdbqt.pdb
REMARK  3 active torsions:
REMARK  status: ('A' for Active; 'I' for Inactive)
REMARK    1  A    between atoms: C_1  and  C_2
REMARK    2  A    between atoms: C_3  and  N_5
REMARK    3  A    between atoms: C_7  and  S_8
REMARK                            x       y       z     vdW  Elec       q    Type
REMARK                         _______ _______ _______ _____ _____    ______ ____
ROOT
ATOM      1  C   UNL     1      12.354  19.380  29.811  0.00  0.00    +0.000 C 
ATOM      2  C   UNL     1      12.146  17.876  29.605  0.00  0.00    +0.000 C 
ENDROOT
BRANCH   2   3
ATOM      3  S   UNL     1      11.912  16.146  29.367  0.00  0.00    +0.000 S 
ATOM      4  O   UNL     1      11.131  16.369  28.106  0.00  0.00    +0.000 OA
ATOM      5  C   UNL     1      10.448  16.104  30.344  0.00  0.00    +0.000 C 
ENDBRANCH   2   3
BRANCH   1   6
ATOM      6  C   UNL     1      12.560  20.884  30.014  0.00  0.00    +0.000 C 
ATOM      7  C   UNL     1      12.767  22.389  30.218  0.00  0.00    +0.000 C 
BRANCH   7   9
ATOM      8  S   UNL     1      10.599  25.109  29.904  0.00  0.00    +0.000 S 
ATOM      9  N   UNL     1      12.935  23.707  30.392  0.00  0.00    +0.000 NA
ATOM     10  C   UNL     1      11.934  24.283  30.181  0.00  0.00    +0.000 C 
ENDBRANCH   7   9
ENDBRANCH   1   6
TORSDOF 3
ENDMDL
MODEL 5
REMARK VINA RESULT:      -3.0     26.677     27.208
REMARK  Name = 5350_Sulforaphane.pdbqt.pdb
REMARK  3 active torsions:
REMARK  status: ('A' for Active; 'I' for Inactive)
REMARK    1  A    between atoms: C_1  and  C_2
REMARK    2  A    between atoms: C_3  and  N_5
REMARK    3  A    between atoms: C_7  and  S_8
REMARK                            x       y       z     vdW  Elec       q    Type
REMARK                         _______ _______ _______ _____ _____    ______ ____
ROOT
ATOM      1  C   UNL     1      23.334   1.508  17.334  0.00  0.00    +0.000 C 
ATOM      2  C   UNL     1      24.712   2.076  17.692  0.00  0.00    +0.000 C 
ENDROOT
BRANCH   2   3
ATOM      3  S   UNL     1      26.298   2.725  18.101  0.00  0.00    +0.000 S 
ATOM      4  O   UNL     1      26.149   3.852  17.122  0.00  0.00    +0.000 OA
ATOM      5  C   UNL     1      27.129   1.721  16.917  0.00  0.00    +0.000 C 
ENDBRANCH   2   3
BRANCH   1   6
ATOM      6  C   UNL     1      21.957   0.939  16.979  0.00  0.00    +0.000 C 
ATOM      7  C   UNL     1      20.579   0.370  16.625  0.00  0.00    +0.000 C 
BRANCH   7   9
ATOM      8  S   UNL     1      19.365  -1.197  13.749  0.00  0.00    +0.000 S 
ATOM      9  N   UNL     1      19.379  -0.135  16.305  0.00  0.00    +0.000 NA
ATOM     10  C   UNL     1      19.394  -0.581  15.219  0.00  0.00    +0.000 C 
ENDBRANCH   7   9
ENDBRANCH   1   6
TORSDOF 3
ENDMDL
MODEL 6
REMARK VINA RESULT:      -3.0     14.676     16.939
REMARK  Name = 5350_Sulforaphane.pdbqt.pdb
REMARK  3 active torsions:
REMARK  status: ('A' for Active; 'I' for Inactive)
REMARK    1  A    between atoms: C_1  and  C_2
REMARK    2  A    between atoms: C_3  and  N_5
REMARK    3  A    between atoms: C_7  and  S_8
REMARK                            x       y       z     vdW  Elec       q    Type
REMARK                         _______ _______ _______ _____ _____    ______ ____
ROOT
ATOM      1  C   UNL     1      22.728  14.994  26.462  0.00  0.00    +0.000 C 
ATOM      2  C   UNL     1      22.588  16.511  26.629  0.00  0.00    +0.000 C 
ENDROOT
BRANCH   2   3
ATOM      3  S   UNL     1      22.433  18.255  26.821  0.00  0.00    +0.000 S 
ATOM      4  O   UNL     1      21.131  18.114  27.552  0.00  0.00    +0.000 OA
ATOM      5  C   UNL     1      21.618  18.457  25.273  0.00  0.00    +0.000 C 
ENDBRANCH   2   3
BRANCH   1   6
ATOM      6  C   UNL     1      22.866  13.478  26.298  0.00  0.00    +0.000 C 
ATOM      7  C   UNL     1      23.005  11.959  26.134  0.00  0.00    +0.000 C 
BRANCH   7   9
ATOM      8  S   UNL     1      24.638   9.958  23.783  0.00  0.00    +0.000 S 
ATOM      9  N   UNL     1      23.113  10.631  25.993  0.00  0.00    +0.000 NA
ATOM     10  C   UNL     1      23.763  10.367  25.052  0.00  0.00    +0.000 C 
ENDBRANCH   7   9
ENDBRANCH   1   6
TORSDOF 3
ENDMDL
MODEL 7
REMARK VINA RESULT:      -2.9      4.991      5.033
REMARK  Name = 5350_Sulforaphane.pdbqt.pdb
REMARK  3 active torsions:
REMARK  status: ('A' for Active; 'I' for Inactive)
REMARK    1  A    between atoms: C_1  and  C_2
REMARK    2  A    between atoms: C_3  and  N_5
REMARK    3  A    between atoms: C_7  and  S_8
REMARK                            x       y       z     vdW  Elec       q    Type
REMARK                         _______ _______ _______ _____ _____    ______ ____
ROOT
ATOM      1  C   UNL     1      13.437  18.933  29.788  0.00  0.00    +0.000 C 
ATOM      2  C   UNL     1      13.639  17.422  29.630  0.00  0.00    +0.000 C 
ENDROOT
BRANCH   2   3
ATOM      3  S   UNL     1      13.867  15.684  29.449  0.00  0.00    +0.000 S 
ATOM      4  O   UNL     1      13.284  15.696  28.067  0.00  0.00    +0.000 OA
ATOM      5  C   UNL     1      12.310  15.300  30.174  0.00  0.00    +0.000 C 
ENDBRANCH   2   3
BRANCH   1   6
ATOM      6  C   UNL     1      13.237  20.442  29.948  0.00  0.00    +0.000 C 
ATOM      7  C   UNL     1      13.036  21.954  30.109  0.00  0.00    +0.000 C 
BRANCH   7   9
ATOM      8  S   UNL     1      13.807  24.178  32.689  0.00  0.00    +0.000 S 
ATOM      9  N   UNL     1      12.849  23.273  30.256  0.00  0.00    +0.000 NA
ATOM     10  C   UNL     1      13.262  23.637  31.292  0.00  0.00    +0.000 C 
ENDBRANCH   7   9
ENDBRANCH   1   6
TORSDOF 3
ENDMDL
MODEL 8
REMARK VINA RESULT:      -2.8      4.424      4.515
REMARK  Name = 5350_Sulforaphane.pdbqt.pdb
REMARK  3 active torsions:
REMARK  status: ('A' for Active; 'I' for Inactive)
REMARK    1  A    between atoms: C_1  and  C_2
REMARK    2  A    between atoms: C_3  and  N_5
REMARK    3  A    between atoms: C_7  and  S_8
REMARK                            x       y       z     vdW  Elec       q    Type
REMARK                         _______ _______ _______ _____ _____    ______ ____
ROOT
ATOM      1  C   UNL     1      11.485  17.492  29.881  0.00  0.00    +0.000 C 
ATOM      2  C   UNL     1      10.792  16.133  30.034  0.00  0.00    +0.000 C 
ENDROOT
BRANCH   2   3
ATOM      3  S   UNL     1      10.000  14.570  30.211  0.00  0.00    +0.000 S 
ATOM      4  O   UNL     1       8.639  15.180  30.051  0.00  0.00    +0.000 OA
ATOM      5  C   UNL     1       9.920  14.693  31.966  0.00  0.00    +0.000 C 
ENDBRANCH   2   3
BRANCH   1   6
ATOM      6  C   UNL     1      12.177  18.849  29.725  0.00  0.00    +0.000 C 
ATOM      7  C   UNL     1      12.870  20.208  29.569  0.00  0.00    +0.000 C 
BRANCH   7   9
ATOM      8  S   UNL     1      11.876  23.483  30.262  0.00  0.00    +0.000 S 
ATOM      9  N   UNL     1      13.481  21.391  29.422  0.00  0.00    +0.000 NA
ATOM     10  C   UNL     1      12.785  22.264  29.784  0.00  0.00    +0.000 C 
ENDBRANCH   7   9
ENDBRANCH   1   6
TORSDOF 3
ENDMDL
MODEL 9
REMARK VINA RESULT:      -2.8      6.341      9.144
REMARK  Name = 5350_Sulforaphane.pdbqt.pdb
REMARK  3 active torsions:
REMARK  status: ('A' for Active; 'I' for Inactive)
REMARK    1  A    between atoms: C_1  and  C_2
REMARK    2  A    between atoms: C_3  and  N_5
REMARK    3  A    between atoms: C_7  and  S_8
REMARK                            x       y       z     vdW  Elec       q    Type
REMARK                         _______ _______ _______ _____ _____    ______ ____
ROOT
ATOM      1  C   UNL     1       9.740  14.061  30.352  0.00  0.00    +0.000 C 
ATOM      2  C   UNL     1      10.354  15.447  30.131  0.00  0.00    +0.000 C 
ENDROOT
BRANCH   2   3
ATOM      3  S   UNL     1      11.060  17.041  29.873  0.00  0.00    +0.000 S 
ATOM      4  O   UNL     1      11.018  16.878  28.382  0.00  0.00    +0.000 OA
ATOM      5  C   UNL     1      12.712  16.438  29.959  0.00  0.00    +0.000 C 
ENDBRANCH   2   3
BRANCH   1   6
ATOM      6  C   UNL     1       9.128  12.674  30.573  0.00  0.00    +0.000 C 
ATOM      7  C   UNL     1       8.517  11.286  30.794  0.00  0.00    +0.000 C 
BRANCH   7   9
ATOM      8  S   UNL     1       9.315   8.115  29.569  0.00  0.00    +0.000 S 
ATOM      9  N   UNL     1       7.970  10.077  30.983  0.00  0.00    +0.000 NA
ATOM     10  C   UNL     1       8.554   9.260  30.376  0.00  0.00    +0.000 C 
ENDBRANCH   7   9
ENDBRANCH   1   6
TORSDOF 3
ENDMDL
