REMARK  Name = 5350_Sulforaphane.pdbqt.pdb
REMARK  3 active torsions:
REMARK  status: ('A' for Active; 'I' for Inactive)
REMARK    1  A    between atoms: C_1  and  C_2
REMARK    2  A    between atoms: C_3  and  N_5
REMARK    3  A    between atoms: C_7  and  S_8
REMARK                            x       y       z     vdW  Elec       q    Type
REMARK                         _______ _______ _______ _____ _____    ______ ____
ROOT
ATOM      1  C   UNL     1      -0.819   0.481   0.176  0.00  0.00    +0.000 C 
ATOM      2  C   UNL     1      -2.339   0.311   0.273  0.00  0.00    +0.000 C 
ENDROOT
BRANCH   2   3
ATOM      3  S   UNL     1      -4.086   0.115   0.389  0.00  0.00    +0.000 S 
ATOM      4  O   UNL     1      -3.947  -1.229   1.040  0.00  0.00    +0.000 OA
ATOM      5  C   UNL     1      -4.216  -0.602  -1.214  0.00  0.00    +0.000 C 
ENDBRANCH   2   3
BRANCH   1   6
ATOM      6  C   UNL     1       0.700   0.648   0.078  0.00  0.00    +0.000 C 
ATOM      7  C   UNL     1       2.221   0.815  -0.020  0.00  0.00    +0.000 C 
BRANCH   7   9
ATOM      8  S   UNL     1       4.853  -1.450  -0.392  0.00  0.00    +0.000 S 
ATOM      9  N   UNL     1       3.549   0.974  -0.104  0.00  0.00    +0.000 NA
ATOM     10  C   UNL     1       4.083  -0.064  -0.226  0.00  0.00    +0.000 C 
ENDBRANCH   7   9
ENDBRANCH   1   6
TORSDOF 3
