MODEL 1
REMARK VINA RESULT:      -4.6      0.000      0.000
REMARK  Name = 5357283_Methylferulate.pdbqt.pdb
REMARK  5 active torsions:
REMARK  status: ('A' for Active; 'I' for Inactive)
REMARK    1  A    between atoms: C_1  and  C_11
REMARK    2  A    between atoms: C_2  and  O_7
REMARK    3  A    between atoms: C_5  and  O_9
REMARK    4  A    between atoms: C_12  and  C_14
REMARK    5  A    between atoms: C_14  and  O_15
REMARK                            x       y       z     vdW  Elec       q    Type
REMARK                         _______ _______ _______ _____ _____    ______ ____
ROOT
ATOM      1  C   UNL     1       9.498  18.170  30.108  0.00  0.00    +0.000 A 
ATOM      2  C   UNL     1      11.191  16.603  29.359  0.00  0.00    +0.000 A 
ATOM      3  C   UNL     1      10.648  17.891  29.371  0.00  0.00    +0.000 A 
ATOM      4  C   UNL     1       8.879  17.162  30.844  0.00  0.00    +0.000 A 
ATOM      5  C   UNL     1      10.559  15.602  30.101  0.00  0.00    +0.000 A 
ATOM      6  C   UNL     1       9.409  15.875  30.841  0.00  0.00    +0.000 A 
ENDROOT
BRANCH   2   7
ATOM      7  O   UNL     1      12.319  16.245  28.660  0.00  0.00    +0.000 OA
ATOM      8  C   UNL     1      13.537  16.576  29.273  0.00  0.00    +0.000 C 
ENDBRANCH   2   7
BRANCH   5   9
ATOM      9  O   UNL     1      11.076  14.335  30.104  0.00  0.00    +0.000 OA
ATOM     10  H   UNL     1      10.429  13.733  29.693  0.00  0.00    +0.000 HD
ENDBRANCH   5   9
BRANCH   1  11
ATOM     11  C   UNL     1       8.957  19.489  30.108  0.00  0.00    +0.000 C 
ATOM     12  C   UNL     1       8.503  20.602  30.106  0.00  0.00    +0.000 C 
BRANCH  12  14
ATOM     13  O   UNL     1       8.610  22.860  29.627  0.00  0.00    +0.000 OA
ATOM     14  C   UNL     1       7.960  21.941  30.107  0.00  0.00    +0.000 C 
BRANCH  14  15
ATOM     15  O   UNL     1       6.723  21.972  30.683  0.00  0.00    +0.000 OA
ATOM     16  C   UNL     1       6.137  23.228  30.916  0.00  0.00    +0.000 C 
ENDBRANCH  14  15
ENDBRANCH  12  14
ENDBRANCH   1  11
TORSDOF 5
ENDMDL
MODEL 2
REMARK VINA RESULT:      -4.5      5.684      8.930
REMARK  Name = 5357283_Methylferulate.pdbqt.pdb
REMARK  5 active torsions:
REMARK  status: ('A' for Active; 'I' for Inactive)
REMARK    1  A    between atoms: C_1  and  C_11
REMARK    2  A    between atoms: C_2  and  O_7
REMARK    3  A    between atoms: C_5  and  O_9
REMARK    4  A    between atoms: C_12  and  C_14
REMARK    5  A    between atoms: C_14  and  O_15
REMARK                            x       y       z     vdW  Elec       q    Type
REMARK                         _______ _______ _______ _____ _____    ______ ____
ROOT
ATOM      1  C   UNL     1       8.888  25.631  27.908  0.00  0.00    +0.000 A 
ATOM      2  C   UNL     1      10.503  27.433  27.743  0.00  0.00    +0.000 A 
ATOM      3  C   UNL     1       9.894  26.411  28.477  0.00  0.00    +0.000 A 
ATOM      4  C   UNL     1       8.480  25.865  26.597  0.00  0.00    +0.000 A 
ATOM      5  C   UNL     1      10.083  27.656  26.429  0.00  0.00    +0.000 A 
ATOM      6  C   UNL     1       9.078  26.879  25.855  0.00  0.00    +0.000 A 
ENDROOT
BRANCH   2   7
ATOM      7  O   UNL     1      11.499  28.246  28.228  0.00  0.00    +0.000 OA
ATOM      8  C   UNL     1      12.350  27.656  29.176  0.00  0.00    +0.000 C 
ENDBRANCH   2   7
BRANCH   5   9
ATOM      9  O   UNL     1      10.668  28.652  25.694  0.00  0.00    +0.000 OA
ATOM     10  H   UNL     1      11.574  28.377  25.460  0.00  0.00    +0.000 HD
ENDBRANCH   5   9
BRANCH   1  11
ATOM     11  C   UNL     1       8.277  24.594  28.672  0.00  0.00    +0.000 C 
ATOM     12  C   UNL     1       7.761  23.719  29.315  0.00  0.00    +0.000 C 
BRANCH  12  14
ATOM     13  O   UNL     1       7.689  21.581  30.191  0.00  0.00    +0.000 OA
ATOM     14  C   UNL     1       7.137  22.669  30.086  0.00  0.00    +0.000 C 
BRANCH  14  15
ATOM     15  O   UNL     1       5.947  23.083  30.612  0.00  0.00    +0.000 OA
ATOM     16  C   UNL     1       4.965  23.557  29.725  0.00  0.00    +0.000 C 
ENDBRANCH  14  15
ENDBRANCH  12  14
ENDBRANCH   1  11
TORSDOF 5
ENDMDL
MODEL 3
REMARK VINA RESULT:      -4.2     22.640     24.554
REMARK  Name = 5357283_Methylferulate.pdbqt.pdb
REMARK  5 active torsions:
REMARK  status: ('A' for Active; 'I' for Inactive)
REMARK    1  A    between atoms: C_1  and  C_11
REMARK    2  A    between atoms: C_2  and  O_7
REMARK    3  A    between atoms: C_5  and  O_9
REMARK    4  A    between atoms: C_12  and  C_14
REMARK    5  A    between atoms: C_14  and  O_15
REMARK                            x       y       z     vdW  Elec       q    Type
REMARK                         _______ _______ _______ _____ _____    ______ ____
ROOT
ATOM      1  C   UNL     1      28.728  13.833  16.180  0.00  0.00    +0.000 A 
ATOM      2  C   UNL     1      28.545  16.189  15.635  0.00  0.00    +0.000 A 
ATOM      3  C   UNL     1      28.918  15.173  16.519  0.00  0.00    +0.000 A 
ATOM      4  C   UNL     1      28.162  13.496  14.953  0.00  0.00    +0.000 A 
ATOM      5  C   UNL     1      27.979  15.836  14.407  0.00  0.00    +0.000 A 
ATOM      6  C   UNL     1      27.786  14.499  14.064  0.00  0.00    +0.000 A 
ENDROOT
BRANCH   2   7
ATOM      7  O   UNL     1      28.698  17.531  15.890  0.00  0.00    +0.000 OA
ATOM      8  C   UNL     1      29.441  17.845  17.039  0.00  0.00    +0.000 C 
ENDBRANCH   2   7
BRANCH   5   9
ATOM      9  O   UNL     1      27.608  16.817  13.528  0.00  0.00    +0.000 OA
ATOM     10  H   UNL     1      27.418  16.407  12.664  0.00  0.00    +0.000 HD
ENDBRANCH   5   9
BRANCH   1  11
ATOM     11  C   UNL     1      29.113  12.810  17.095  0.00  0.00    +0.000 C 
ATOM     12  C   UNL     1      29.438  11.947  17.867  0.00  0.00    +0.000 C 
BRANCH  12  14
ATOM     13  O   UNL     1      31.018  10.739  19.043  0.00  0.00    +0.000 OA
ATOM     14  C   UNL     1      29.832  10.914  18.796  0.00  0.00    +0.000 C 
BRANCH  14  15
ATOM     15  O   UNL     1      28.745  10.249  19.286  0.00  0.00    +0.000 OA
ATOM     16  C   UNL     1      27.890  10.940  20.161  0.00  0.00    +0.000 C 
ENDBRANCH  14  15
ENDBRANCH  12  14
ENDBRANCH   1  11
TORSDOF 5
ENDMDL
MODEL 4
REMARK VINA RESULT:      -4.2     24.680     25.418
REMARK  Name = 5357283_Methylferulate.pdbqt.pdb
REMARK  5 active torsions:
REMARK  status: ('A' for Active; 'I' for Inactive)
REMARK    1  A    between atoms: C_1  and  C_11
REMARK    2  A    between atoms: C_2  and  O_7
REMARK    3  A    between atoms: C_5  and  O_9
REMARK    4  A    between atoms: C_12  and  C_14
REMARK    5  A    between atoms: C_14  and  O_15
REMARK                            x       y       z     vdW  Elec       q    Type
REMARK                         _______ _______ _______ _____ _____    ______ ____
ROOT
ATOM      1  C   UNL     1      19.712  -0.753  18.272  0.00  0.00    +0.000 A 
ATOM      2  C   UNL     1      19.841   0.037  15.982  0.00  0.00    +0.000 A 
ATOM      3  C   UNL     1      19.203  -0.713  16.974  0.00  0.00    +0.000 A 
ATOM      4  C   UNL     1      20.866  -0.041  18.591  0.00  0.00    +0.000 A 
ATOM      5  C   UNL     1      20.997   0.746  16.318  0.00  0.00    +0.000 A 
ATOM      6  C   UNL     1      21.511   0.709  17.613  0.00  0.00    +0.000 A 
ENDROOT
BRANCH   2   7
ATOM      7  O   UNL     1      19.406   0.130  14.682  0.00  0.00    +0.000 OA
ATOM      8  C   UNL     1      18.964  -1.073  14.108  0.00  0.00    +0.000 C 
ENDBRANCH   2   7
BRANCH   5   9
ATOM      9  O   UNL     1      21.636   1.487  15.361  0.00  0.00    +0.000 OA
ATOM     10  H   UNL     1      21.025   2.175  15.038  0.00  0.00    +0.000 HD
ENDBRANCH   5   9
BRANCH   1  11
ATOM     11  C   UNL     1      19.049  -1.524  19.271  0.00  0.00    +0.000 C 
ATOM     12  C   UNL     1      18.491  -2.175  20.114  0.00  0.00    +0.000 C 
BRANCH  12  14
ATOM     13  O   UNL     1      18.482  -3.664  21.882  0.00  0.00    +0.000 OA
ATOM     14  C   UNL     1      17.824  -2.961  21.126  0.00  0.00    +0.000 C 
BRANCH  14  15
ATOM     15  O   UNL     1      16.471  -2.783  21.077  0.00  0.00    +0.000 OA
ATOM     16  C   UNL     1      15.775  -3.333  19.986  0.00  0.00    +0.000 C 
ENDBRANCH  14  15
ENDBRANCH  12  14
ENDBRANCH   1  11
TORSDOF 5
ENDMDL
MODEL 5
REMARK VINA RESULT:      -4.2     23.782     24.761
REMARK  Name = 5357283_Methylferulate.pdbqt.pdb
REMARK  5 active torsions:
REMARK  status: ('A' for Active; 'I' for Inactive)
REMARK    1  A    between atoms: C_1  and  C_11
REMARK    2  A    between atoms: C_2  and  O_7
REMARK    3  A    between atoms: C_5  and  O_9
REMARK    4  A    between atoms: C_12  and  C_14
REMARK    5  A    between atoms: C_14  and  O_15
REMARK                            x       y       z     vdW  Elec       q    Type
REMARK                         _______ _______ _______ _____ _____    ______ ____
ROOT
ATOM      1  C   UNL     1       2.964  14.173   7.407  0.00  0.00    +0.000 A 
ATOM      2  C   UNL     1       1.382  13.490   9.114  0.00  0.00    +0.000 A 
ATOM      3  C   UNL     1       2.353  13.171   8.160  0.00  0.00    +0.000 A 
ATOM      4  C   UNL     1       2.611  15.506   7.601  0.00  0.00    +0.000 A 
ATOM      5  C   UNL     1       1.039  14.832   9.298  0.00  0.00    +0.000 A 
ATOM      6  C   UNL     1       1.646  15.838   8.548  0.00  0.00    +0.000 A 
ENDROOT
BRANCH   2   7
ATOM      7  O   UNL     1       0.733  12.565   9.896  0.00  0.00    +0.000 OA
ATOM      8  C   UNL     1       1.548  11.561  10.443  0.00  0.00    +0.000 C 
ENDBRANCH   2   7
BRANCH   5   9
ATOM      9  O   UNL     1       0.092  15.164  10.229  0.00  0.00    +0.000 OA
ATOM     10  H   UNL     1       0.198  14.584  11.005  0.00  0.00    +0.000 HD
ENDBRANCH   5   9
BRANCH   1  11
ATOM     11  C   UNL     1       3.950  13.829   6.437  0.00  0.00    +0.000 C 
ATOM     12  C   UNL     1       4.782  13.538   5.619  0.00  0.00    +0.000 C 
BRANCH  12  14
ATOM     13  O   UNL     1       6.528  12.236   4.846  0.00  0.00    +0.000 OA
ATOM     14  C   UNL     1       5.782  13.185   4.639  0.00  0.00    +0.000 C 
BRANCH  14  15
ATOM     15  O   UNL     1       5.736  14.022   3.561  0.00  0.00    +0.000 OA
ATOM     16  C   UNL     1       6.708  15.033   3.471  0.00  0.00    +0.000 C 
ENDBRANCH  14  15
ENDBRANCH  12  14
ENDBRANCH   1  11
TORSDOF 5
ENDMDL
MODEL 6
REMARK VINA RESULT:      -4.1     22.873     24.512
REMARK  Name = 5357283_Methylferulate.pdbqt.pdb
REMARK  5 active torsions:
REMARK  status: ('A' for Active; 'I' for Inactive)
REMARK    1  A    between atoms: C_1  and  C_11
REMARK    2  A    between atoms: C_2  and  O_7
REMARK    3  A    between atoms: C_5  and  O_9
REMARK    4  A    between atoms: C_12  and  C_14
REMARK    5  A    between atoms: C_14  and  O_15
REMARK                            x       y       z     vdW  Elec       q    Type
REMARK                         _______ _______ _______ _____ _____    ______ ____
ROOT
ATOM      1  C   UNL     1      28.537  13.614  15.734  0.00  0.00    +0.000 A 
ATOM      2  C   UNL     1      29.333  13.094  17.965  0.00  0.00    +0.000 A 
ATOM      3  C   UNL     1      29.076  14.024  16.953  0.00  0.00    +0.000 A 
ATOM      4  C   UNL     1      28.248  12.270  15.514  0.00  0.00    +0.000 A 
ATOM      5  C   UNL     1      29.038  11.749  17.730  0.00  0.00    +0.000 A 
ATOM      6  C   UNL     1      28.498  11.334  16.514  0.00  0.00    +0.000 A 
ENDROOT
BRANCH   2   7
ATOM      7  O   UNL     1      29.863  13.414  19.192  0.00  0.00    +0.000 OA
ATOM      8  C   UNL     1      29.005  14.114  20.054  0.00  0.00    +0.000 C 
ENDBRANCH   2   7
BRANCH   5   9
ATOM      9  O   UNL     1      29.281  10.824  18.710  0.00  0.00    +0.000 OA
ATOM     10  H   UNL     1      30.189  10.952  19.042  0.00  0.00    +0.000 HD
ENDBRANCH   5   9
BRANCH   1  11
ATOM     11  C   UNL     1      28.282  14.576  14.712  0.00  0.00    +0.000 C 
ATOM     12  C   UNL     1      28.069  15.386  13.850  0.00  0.00    +0.000 C 
BRANCH  12  14
ATOM     13  O   UNL     1      26.749  16.346  12.214  0.00  0.00    +0.000 OA
ATOM     14  C   UNL     1      27.817  16.359  12.812  0.00  0.00    +0.000 C 
BRANCH  14  15
ATOM     15  O   UNL     1      28.883  17.197  12.652  0.00  0.00    +0.000 OA
ATOM     16  C   UNL     1      29.292  17.498  11.342  0.00  0.00    +0.000 C 
ENDBRANCH  14  15
ENDBRANCH  12  14
ENDBRANCH   1  11
TORSDOF 5
ENDMDL
MODEL 7
REMARK VINA RESULT:      -4.1     19.425     20.578
REMARK  Name = 5357283_Methylferulate.pdbqt.pdb
REMARK  5 active torsions:
REMARK  status: ('A' for Active; 'I' for Inactive)
REMARK    1  A    between atoms: C_1  and  C_11
REMARK    2  A    between atoms: C_2  and  O_7
REMARK    3  A    between atoms: C_5  and  O_9
REMARK    4  A    between atoms: C_12  and  C_14
REMARK    5  A    between atoms: C_14  and  O_15
REMARK                            x       y       z     vdW  Elec       q    Type
REMARK                         _______ _______ _______ _____ _____    ______ ____
ROOT
ATOM      1  C   UNL     1      -0.043  27.909  15.089  0.00  0.00    +0.000 A 
ATOM      2  C   UNL     1      -1.549  26.654  16.516  0.00  0.00    +0.000 A 
ATOM      3  C   UNL     1      -0.885  27.843  16.198  0.00  0.00    +0.000 A 
ATOM      4  C   UNL     1       0.145  26.787  14.286  0.00  0.00    +0.000 A 
ATOM      5  C   UNL     1      -1.352  25.537  15.701  0.00  0.00    +0.000 A 
ATOM      6  C   UNL     1      -0.511  25.598  14.591  0.00  0.00    +0.000 A 
ENDROOT
BRANCH   2   7
ATOM      7  O   UNL     1      -2.395  26.504  17.589  0.00  0.00    +0.000 OA
ATOM      8  C   UNL     1      -3.003  27.683  18.046  0.00  0.00    +0.000 C 
ENDBRANCH   2   7
BRANCH   5   9
ATOM      9  O   UNL     1      -1.994  24.365  15.995  0.00  0.00    +0.000 OA
ATOM     10  H   UNL     1      -1.515  23.919  16.717  0.00  0.00    +0.000 HD
ENDBRANCH   5   9
BRANCH   1  11
ATOM     11  C   UNL     1       0.628  29.129  14.781  0.00  0.00    +0.000 C 
ATOM     12  C   UNL     1       1.193  30.159  14.522  0.00  0.00    +0.000 C 
BRANCH  12  14
ATOM     13  O   UNL     1       1.217  32.422  14.055  0.00  0.00    +0.000 OA
ATOM     14  C   UNL     1       1.868  31.398  14.213  0.00  0.00    +0.000 C 
BRANCH  14  15
ATOM     15  O   UNL     1       3.220  31.218  14.140  0.00  0.00    +0.000 OA
ATOM     16  C   UNL     1       3.834  31.352  12.883  0.00  0.00    +0.000 C 
ENDBRANCH  14  15
ENDBRANCH  12  14
ENDBRANCH   1  11
TORSDOF 5
ENDMDL
MODEL 8
REMARK VINA RESULT:      -3.9     21.787     23.887
REMARK  Name = 5357283_Methylferulate.pdbqt.pdb
REMARK  5 active torsions:
REMARK  status: ('A' for Active; 'I' for Inactive)
REMARK    1  A    between atoms: C_1  and  C_11
REMARK    2  A    between atoms: C_2  and  O_7
REMARK    3  A    between atoms: C_5  and  O_9
REMARK    4  A    between atoms: C_12  and  C_14
REMARK    5  A    between atoms: C_14  and  O_15
REMARK                            x       y       z     vdW  Elec       q    Type
REMARK                         _______ _______ _______ _____ _____    ______ ____
ROOT
ATOM      1  C   UNL     1      29.231  13.786  17.434  0.00  0.00    +0.000 A 
ATOM      2  C   UNL     1      28.240  13.204  15.298  0.00  0.00    +0.000 A 
ATOM      3  C   UNL     1      28.760  14.160  16.176  0.00  0.00    +0.000 A 
ATOM      4  C   UNL     1      29.187  12.450  17.827  0.00  0.00    +0.000 A 
ATOM      5  C   UNL     1      28.202  11.868  15.707  0.00  0.00    +0.000 A 
ATOM      6  C   UNL     1      28.672  11.489  16.963  0.00  0.00    +0.000 A 
ENDROOT
BRANCH   2   7
ATOM      7  O   UNL     1      27.756  13.488  14.044  0.00  0.00    +0.000 OA
ATOM      8  C   UNL     1      27.546  14.849  13.773  0.00  0.00    +0.000 C 
ENDBRANCH   2   7
BRANCH   5   9
ATOM      9  O   UNL     1      27.698  10.918  14.861  0.00  0.00    +0.000 OA
ATOM     10  H   UNL     1      26.805  10.671  15.165  0.00  0.00    +0.000 HD
ENDBRANCH   5   9
BRANCH   1  11
ATOM     11  C   UNL     1      29.757  14.774  18.317  0.00  0.00    +0.000 C 
ATOM     12  C   UNL     1      30.199  15.607  19.062  0.00  0.00    +0.000 C 
BRANCH  12  14
ATOM     13  O   UNL     1      31.568  17.402  19.557  0.00  0.00    +0.000 OA
ATOM     14  C   UNL     1      30.726  16.610  19.959  0.00  0.00    +0.000 C 
BRANCH  14  15
ATOM     15  O   UNL     1      30.164  16.508  21.199  0.00  0.00    +0.000 OA
ATOM     16  C   UNL     1      28.823  16.904  21.348  0.00  0.00    +0.000 C 
ENDBRANCH  14  15
ENDBRANCH  12  14
ENDBRANCH   1  11
TORSDOF 5
ENDMDL
MODEL 9
REMARK VINA RESULT:      -3.9     14.759     16.772
REMARK  Name = 5357283_Methylferulate.pdbqt.pdb
REMARK  5 active torsions:
REMARK  status: ('A' for Active; 'I' for Inactive)
REMARK    1  A    between atoms: C_1  and  C_11
REMARK    2  A    between atoms: C_2  and  O_7
REMARK    3  A    between atoms: C_5  and  O_9
REMARK    4  A    between atoms: C_12  and  C_14
REMARK    5  A    between atoms: C_14  and  O_15
REMARK                            x       y       z     vdW  Elec       q    Type
REMARK                         _______ _______ _______ _____ _____    ______ ____
ROOT
ATOM      1  C   UNL     1      14.000  32.496  23.965  0.00  0.00    +0.000 A 
ATOM      2  C   UNL     1      12.847  32.198  26.077  0.00  0.00    +0.000 A 
ATOM      3  C   UNL     1      12.827  32.260  24.681  0.00  0.00    +0.000 A 
ATOM      4  C   UNL     1      15.207  32.672  24.638  0.00  0.00    +0.000 A 
ATOM      5  C   UNL     1      14.065  32.377  26.739  0.00  0.00    +0.000 A 
ATOM      6  C   UNL     1      15.240  32.613  26.028  0.00  0.00    +0.000 A 
ENDROOT
BRANCH   2   7
ATOM      7  O   UNL     1      11.739  31.971  26.857  0.00  0.00    +0.000 OA
ATOM      8  C   UNL     1      10.768  32.985  26.835  0.00  0.00    +0.000 C 
ENDBRANCH   2   7
BRANCH   5   9
ATOM      9  O   UNL     1      14.105  32.319  28.106  0.00  0.00    +0.000 OA
ATOM     10  H   UNL     1      14.175  33.226  28.456  0.00  0.00    +0.000 HD
ENDBRANCH   5   9
BRANCH   1  11
ATOM     11  C   UNL     1      13.961  32.557  22.541  0.00  0.00    +0.000 C 
ATOM     12  C   UNL     1      13.929  32.610  21.340  0.00  0.00    +0.000 C 
BRANCH  12  14
ATOM     13  O   UNL     1      13.895  31.646  19.240  0.00  0.00    +0.000 OA
ATOM     14  C   UNL     1      13.890  32.678  19.898  0.00  0.00    +0.000 C 
BRANCH  14  15
ATOM     15  O   UNL     1      13.852  33.973  19.465  0.00  0.00    +0.000 OA
ATOM     16  C   UNL     1      13.729  34.202  18.084  0.00  0.00    +0.000 C 
ENDBRANCH  14  15
ENDBRANCH  12  14
ENDBRANCH   1  11
TORSDOF 5
ENDMDL
