MODEL 1
REMARK VINA RESULT:      -6.2      0.000      0.000
REMARK  Name = 5358691_Yuanhuacine.pdbqt.pdb
REMARK  12 active torsions:
REMARK  status: ('A' for Active; 'I' for Inactive)
REMARK    1  A    between atoms: C_9  and  C_48
REMARK    2  A    between atoms: C_13  and  C_23
REMARK    3  A    between atoms: C_14  and  O_26
REMARK    4  A    between atoms: C_15  and  O_28
REMARK    5  A    between atoms: C_16  and  O_39
REMARK    6  A    between atoms: C_17  and  C_30
REMARK    7  A    between atoms: C_31  and  C_32
REMARK    8  A    between atoms: C_33  and  C_34
REMARK    9  A    between atoms: C_35  and  C_36
REMARK   10  A    between atoms: O_39  and  C_41
REMARK   11  A    between atoms: C_41  and  C_42
REMARK   12  A    between atoms: C_48  and  O_49
REMARK                            x       y       z     vdW  Elec       q    Type
REMARK                         _______ _______ _______ _____ _____    ______ ____
ROOT
ATOM      1  O   UNL     1       6.658  23.471  33.501  0.00  0.00    +0.000 OA
ATOM      2  O   UNL     1       7.564  21.989  30.461  0.00  0.00    +0.000 OA
ATOM      3  O   UNL     1       9.283  21.905  32.095  0.00  0.00    +0.000 OA
ATOM      4  O   UNL     1       9.863  21.907  29.877  0.00  0.00    +0.000 OA
ATOM      5  O   UNL     1       3.284  26.034  30.475  0.00  0.00    +0.000 OA
ATOM      6  C   UNL     1       8.226  23.900  31.809  0.00  0.00    +0.000 C 
ATOM      7  C   UNL     1       7.452  23.442  30.565  0.00  0.00    +0.000 C 
ATOM      8  C   UNL     1       7.656  24.304  33.064  0.00  0.00    +0.000 C 
ATOM      9  C   UNL     1       6.381  24.878  33.496  0.00  0.00    +0.000 C 
ATOM     10  C   UNL     1       9.531  23.232  31.746  0.00  0.00    +0.000 C 
ATOM     11  C   UNL     1       5.992  23.766  30.656  0.00  0.00    +0.000 C 
ATOM     12  C   UNL     1       8.113  24.080  29.306  0.00  0.00    +0.000 C 
ATOM     13  C   UNL     1      10.239  23.224  30.369  0.00  0.00    +0.000 C 
ATOM     14  C   UNL     1       5.518  25.155  31.020  0.00  0.00    +0.000 C 
ATOM     15  C   UNL     1       5.455  25.461  32.488  0.00  0.00    +0.000 C 
ATOM     16  C   UNL     1       9.562  24.166  29.388  0.00  0.00    +0.000 C 
ATOM     17  C   UNL     1       8.870  21.460  30.798  0.00  0.00    +0.000 C 
ATOM     18  C   UNL     1       4.926  23.079  30.020  0.00  0.00    +0.000 C 
ATOM     19  C   UNL     1       7.419  24.381  27.977  0.00  0.00    +0.000 C 
ATOM     20  C   UNL     1       4.074  25.095  30.421  0.00  0.00    +0.000 C 
ATOM     21  C   UNL     1       3.838  23.742  29.819  0.00  0.00    +0.000 C 
ATOM     22  C   UNL     1       2.509  23.106  29.574  0.00  0.00    +0.000 C 
ENDROOT
BRANCH  13  23
ATOM     23  C   UNL     1      11.765  23.386  30.561  0.00  0.00    +0.000 C 
ATOM     24  C   UNL     1      12.816  22.638  29.742  0.00  0.00    +0.000 C 
ATOM     25  C   UNL     1      12.322  23.973  31.640  0.00  0.00    +0.000 C 
ENDBRANCH  13  23
BRANCH  14  26
ATOM     26  O   UNL     1       6.313  26.145  30.403  0.00  0.00    +0.000 OA
ATOM     27  H   UNL     1       7.241  25.839  30.446  0.00  0.00    +0.000 HD
ENDBRANCH  14  26
BRANCH  15  28
ATOM     28  O   UNL     1       4.594  26.490  32.881  0.00  0.00    +0.000 OA
ATOM     29  H   UNL     1       4.378  27.140  32.179  0.00  0.00    +0.000 HD
ENDBRANCH  15  28
BRANCH  17  30
ATOM     30  C   UNL     1       8.808  20.003  30.774  0.00  0.00    +0.000 C 
ATOM     31  C   UNL     1       8.758  18.803  30.754  0.00  0.00    +0.000 C 
BRANCH  31  32
ATOM     32  C   UNL     1       8.697  17.274  30.728  0.00  0.00    +0.000 C 
ATOM     33  C   UNL     1       8.650  16.075  30.709  0.00  0.00    +0.000 C 
BRANCH  33  34
ATOM     34  C   UNL     1       8.592  14.544  30.683  0.00  0.00    +0.000 C 
ATOM     35  C   UNL     1       8.534  13.015  30.657  0.00  0.00    +0.000 C 
BRANCH  35  36
ATOM     36  C   UNL     1       8.475  11.483  30.633  0.00  0.00    +0.000 C 
ATOM     37  C   UNL     1       8.417   9.953  30.610  0.00  0.00    +0.000 C 
ATOM     38  C   UNL     1       8.359   8.422  30.588  0.00  0.00    +0.000 C 
ENDBRANCH  35  36
ENDBRANCH  33  34
ENDBRANCH  31  32
ENDBRANCH  17  30
BRANCH  16  39
ATOM     39  O   UNL     1      10.221  25.065  28.534  0.00  0.00    +0.000 OA
BRANCH  39  41
ATOM     40  O   UNL     1       9.197  27.091  28.170  0.00  0.00    +0.000 OA
ATOM     41  C   UNL     1       9.965  26.381  28.798  0.00  0.00    +0.000 C 
BRANCH  41  42
ATOM     42  C   UNL     1      10.786  26.845  29.931  0.00  0.00    +0.000 A 
ATOM     43  C   UNL     1      10.237  27.039  31.198  0.00  0.00    +0.000 A 
ATOM     44  C   UNL     1      12.141  27.086  29.709  0.00  0.00    +0.000 A 
ATOM     45  C   UNL     1      11.046  27.477  32.244  0.00  0.00    +0.000 A 
ATOM     46  C   UNL     1      12.947  27.523  30.757  0.00  0.00    +0.000 A 
ATOM     47  C   UNL     1      12.399  27.718  32.023  0.00  0.00    +0.000 A 
ENDBRANCH  41  42
ENDBRANCH  39  41
ENDBRANCH  16  39
BRANCH   9  48
ATOM     48  C   UNL     1       6.278  25.362  34.866  0.00  0.00    +0.000 C 
BRANCH  48  49
ATOM     49  O   UNL     1       6.187  25.810  36.115  0.00  0.00    +0.000 OA
ATOM     50  H   UNL     1       5.359  25.505  36.526  0.00  0.00    +0.000 HD
ENDBRANCH  48  49
ENDBRANCH   9  48
TORSDOF 12
ENDMDL
MODEL 2
REMARK VINA RESULT:      -5.5      3.442      9.936
REMARK  Name = 5358691_Yuanhuacine.pdbqt.pdb
REMARK  12 active torsions:
REMARK  status: ('A' for Active; 'I' for Inactive)
REMARK    1  A    between atoms: C_9  and  C_48
REMARK    2  A    between atoms: C_13  and  C_23
REMARK    3  A    between atoms: C_14  and  O_26
REMARK    4  A    between atoms: C_15  and  O_28
REMARK    5  A    between atoms: C_16  and  O_39
REMARK    6  A    between atoms: C_17  and  C_30
REMARK    7  A    between atoms: C_31  and  C_32
REMARK    8  A    between atoms: C_33  and  C_34
REMARK    9  A    between atoms: C_35  and  C_36
REMARK   10  A    between atoms: O_39  and  C_41
REMARK   11  A    between atoms: C_41  and  C_42
REMARK   12  A    between atoms: C_48  and  O_49
REMARK                            x       y       z     vdW  Elec       q    Type
REMARK                         _______ _______ _______ _____ _____    ______ ____
ROOT
ATOM      1  O   UNL     1       9.490  26.085  28.811  0.00  0.00    +0.000 OA
ATOM      2  O   UNL     1      11.040  25.635  31.919  0.00  0.00    +0.000 OA
ATOM      3  O   UNL     1      12.367  24.902  30.092  0.00  0.00    +0.000 OA
ATOM      4  O   UNL     1      12.661  23.916  32.142  0.00  0.00    +0.000 OA
ATOM      5  O   UNL     1       5.165  25.989  31.710  0.00  0.00    +0.000 OA
ATOM      6  C   UNL     1      10.184  24.257  30.108  0.00  0.00    +0.000 C 
ATOM      7  C   UNL     1       9.920  24.783  31.526  0.00  0.00    +0.000 C 
ATOM      8  C   UNL     1       9.559  24.717  28.900  0.00  0.00    +0.000 C 
ATOM      9  C   UNL     1       8.284  25.351  28.560  0.00  0.00    +0.000 C 
ATOM     10  C   UNL     1      11.566  23.761  30.109  0.00  0.00    +0.000 C 
ATOM     11  C   UNL     1       8.681  25.622  31.597  0.00  0.00    +0.000 C 
ATOM     12  C   UNL     1       9.857  23.569  32.502  0.00  0.00    +0.000 C 
ATOM     13  C   UNL     1      11.995  22.910  31.328  0.00  0.00    +0.000 C 
ATOM     14  C   UNL     1       7.369  25.135  31.023  0.00  0.00    +0.000 C 
ATOM     15  C   UNL     1       7.175  25.358  29.552  0.00  0.00    +0.000 C 
ATOM     16  C   UNL     1      10.802  22.512  32.180  0.00  0.00    +0.000 C 
ATOM     17  C   UNL     1      12.340  25.150  31.503  0.00  0.00    +0.000 C 
ATOM     18  C   UNL     1       8.409  26.663  32.522  0.00  0.00    +0.000 C 
ATOM     19  C   UNL     1       9.097  23.515  33.828  0.00  0.00    +0.000 C 
ATOM     20  C   UNL     1       6.385  26.037  31.839  0.00  0.00    +0.000 C 
ATOM     21  C   UNL     1       7.168  26.940  32.744  0.00  0.00    +0.000 C 
ATOM     22  C   UNL     1       6.697  28.234  33.323  0.00  0.00    +0.000 C 
ENDROOT
BRANCH  13  23
ATOM     23  C   UNL     1      12.943  21.776  30.872  0.00  0.00    +0.000 C 
ATOM     24  C   UNL     1      14.140  21.281  31.682  0.00  0.00    +0.000 C 
ATOM     25  C   UNL     1      12.989  21.308  29.608  0.00  0.00    +0.000 C 
ENDBRANCH  13  23
BRANCH  14  26
ATOM     26  O   UNL     1       7.177  23.761  31.284  0.00  0.00    +0.000 OA
ATOM     27  H   UNL     1       8.059  23.368  31.439  0.00  0.00    +0.000 HD
ENDBRANCH  14  26
BRANCH  15  28
ATOM     28  O   UNL     1       5.857  25.388  29.088  0.00  0.00    +0.000 OA
ATOM     29  H   UNL     1       5.609  24.646  28.496  0.00  0.00    +0.000 HD
ENDBRANCH  15  28
BRANCH  17  30
ATOM     30  C   UNL     1      13.346  26.150  31.846  0.00  0.00    +0.000 C 
ATOM     31  C   UNL     1      14.172  26.973  32.129  0.00  0.00    +0.000 C 
BRANCH  31  32
ATOM     32  C   UNL     1      15.225  28.024  32.490  0.00  0.00    +0.000 C 
ATOM     33  C   UNL     1      16.051  28.849  32.774  0.00  0.00    +0.000 C 
BRANCH  33  34
ATOM     34  C   UNL     1      17.102  29.902  33.139  0.00  0.00    +0.000 C 
ATOM     35  C   UNL     1      18.152  30.954  33.504  0.00  0.00    +0.000 C 
BRANCH  35  36
ATOM     36  C   UNL     1      19.204  32.006  33.870  0.00  0.00    +0.000 C 
ATOM     37  C   UNL     1      20.255  33.059  34.235  0.00  0.00    +0.000 C 
ATOM     38  C   UNL     1      21.305  34.112  34.601  0.00  0.00    +0.000 C 
ENDBRANCH  35  36
ENDBRANCH  33  34
ENDBRANCH  31  32
ENDBRANCH  17  30
BRANCH  16  39
ATOM     39  O   UNL     1      10.568  21.232  32.710  0.00  0.00    +0.000 OA
BRANCH  39  41
ATOM     40  O   UNL     1       8.473  20.649  31.967  0.00  0.00    +0.000 OA
ATOM     41  C   UNL     1       9.681  20.480  31.994  0.00  0.00    +0.000 C 
BRANCH  41  42
ATOM     42  C   UNL     1      10.383  19.397  31.283  0.00  0.00    +0.000 A 
ATOM     43  C   UNL     1      11.434  18.696  31.876  0.00  0.00    +0.000 A 
ATOM     44  C   UNL     1       9.971  19.080  29.989  0.00  0.00    +0.000 A 
ATOM     45  C   UNL     1      12.072  17.677  31.172  0.00  0.00    +0.000 A 
ATOM     46  C   UNL     1      10.611  18.061  29.289  0.00  0.00    +0.000 A 
ATOM     47  C   UNL     1      11.660  17.361  29.880  0.00  0.00    +0.000 A 
ENDBRANCH  41  42
ENDBRANCH  39  41
ENDBRANCH  16  39
BRANCH   9  48
ATOM     48  C   UNL     1       7.929  25.459  27.151  0.00  0.00    +0.000 C 
BRANCH  48  49
ATOM     49  O   UNL     1       7.611  25.561  25.864  0.00  0.00    +0.000 OA
ATOM     50  H   UNL     1       7.723  26.478  25.557  0.00  0.00    +0.000 HD
ENDBRANCH  48  49
ENDBRANCH   9  48
TORSDOF 12
ENDMDL
MODEL 3
REMARK VINA RESULT:      -5.4      9.297     13.845
REMARK  Name = 5358691_Yuanhuacine.pdbqt.pdb
REMARK  12 active torsions:
REMARK  status: ('A' for Active; 'I' for Inactive)
REMARK    1  A    between atoms: C_9  and  C_48
REMARK    2  A    between atoms: C_13  and  C_23
REMARK    3  A    between atoms: C_14  and  O_26
REMARK    4  A    between atoms: C_15  and  O_28
REMARK    5  A    between atoms: C_16  and  O_39
REMARK    6  A    between atoms: C_17  and  C_30
REMARK    7  A    between atoms: C_31  and  C_32
REMARK    8  A    between atoms: C_33  and  C_34
REMARK    9  A    between atoms: C_35  and  C_36
REMARK   10  A    between atoms: O_39  and  C_41
REMARK   11  A    between atoms: C_41  and  C_42
REMARK   12  A    between atoms: C_48  and  O_49
REMARK                            x       y       z     vdW  Elec       q    Type
REMARK                         _______ _______ _______ _____ _____    ______ ____
ROOT
ATOM      1  O   UNL     1      10.499  34.159  23.034  0.00  0.00    +0.000 OA
ATOM      2  O   UNL     1      12.777  32.315  24.950  0.00  0.00    +0.000 OA
ATOM      3  O   UNL     1      11.142  33.435  26.256  0.00  0.00    +0.000 OA
ATOM      4  O   UNL     1      13.190  32.991  27.187  0.00  0.00    +0.000 OA
ATOM      5  O   UNL     1      14.385  34.082  19.567  0.00  0.00    +0.000 OA
ATOM      6  C   UNL     1      12.161  34.642  24.618  0.00  0.00    +0.000 C 
ATOM      7  C   UNL     1      13.197  33.554  24.302  0.00  0.00    +0.000 C 
ATOM      8  C   UNL     1      11.157  35.146  23.723  0.00  0.00    +0.000 C 
ATOM      9  C   UNL     1      11.013  35.258  22.271  0.00  0.00    +0.000 C 
ATOM     10  C   UNL     1      11.926  34.572  26.065  0.00  0.00    +0.000 C 
ATOM     11  C   UNL     1      13.293  33.273  22.833  0.00  0.00    +0.000 C 
ATOM     12  C   UNL     1      14.570  33.985  24.902  0.00  0.00    +0.000 C 
ATOM     13  C   UNL     1      13.178  34.429  26.964  0.00  0.00    +0.000 C 
ATOM     14  C   UNL     1      13.464  34.392  21.830  0.00  0.00    +0.000 C 
ATOM     15  C   UNL     1      12.203  35.080  21.395  0.00  0.00    +0.000 C 
ATOM     16  C   UNL     1      14.458  34.668  26.181  0.00  0.00    +0.000 C 
ATOM     17  C   UNL     1      12.216  32.488  26.274  0.00  0.00    +0.000 C 
ATOM     18  C   UNL     1      13.692  32.056  22.223  0.00  0.00    +0.000 C 
ATOM     19  C   UNL     1      15.949  33.558  24.400  0.00  0.00    +0.000 C 
ATOM     20  C   UNL     1      14.068  33.575  20.640  0.00  0.00    +0.000 C 
ATOM     21  C   UNL     1      14.164  32.128  21.024  0.00  0.00    +0.000 C 
ATOM     22  C   UNL     1      14.228  30.969  20.085  0.00  0.00    +0.000 C 
ENDROOT
BRANCH  13  23
ATOM     23  C   UNL     1      12.987  35.243  28.265  0.00  0.00    +0.000 C 
ATOM     24  C   UNL     1      13.315  34.716  29.661  0.00  0.00    +0.000 C 
ATOM     25  C   UNL     1      12.257  36.374  28.336  0.00  0.00    +0.000 C 
ENDBRANCH  13  23
BRANCH  14  26
ATOM     26  O   UNL     1      14.354  35.377  22.310  0.00  0.00    +0.000 OA
ATOM     27  H   UNL     1      14.621  35.111  23.212  0.00  0.00    +0.000 HD
ENDBRANCH  14  26
BRANCH  15  28
ATOM     28  O   UNL     1      12.238  35.740  20.164  0.00  0.00    +0.000 OA
ATOM     29  H   UNL     1      12.956  36.401  20.069  0.00  0.00    +0.000 HD
ENDBRANCH  15  28
BRANCH  17  30
ATOM     30  C   UNL     1      11.727  31.198  26.751  0.00  0.00    +0.000 C 
ATOM     31  C   UNL     1      11.326  30.137  27.142  0.00  0.00    +0.000 C 
BRANCH  31  32
ATOM     32  C   UNL     1      10.817  28.783  27.643  0.00  0.00    +0.000 C 
ATOM     33  C   UNL     1      10.416  27.721  28.035  0.00  0.00    +0.000 C 
BRANCH  33  34
ATOM     34  C   UNL     1       9.904  26.366  28.534  0.00  0.00    +0.000 C 
ATOM     35  C   UNL     1       9.390  25.013  29.033  0.00  0.00    +0.000 C 
BRANCH  35  36
ATOM     36  C   UNL     1       8.875  23.659  29.532  0.00  0.00    +0.000 C 
ATOM     37  C   UNL     1       8.362  22.305  30.031  0.00  0.00    +0.000 C 
ATOM     38  C   UNL     1       7.849  20.951  30.530  0.00  0.00    +0.000 C 
ENDBRANCH  35  36
ENDBRANCH  33  34
ENDBRANCH  31  32
ENDBRANCH  17  30
BRANCH  16  39
ATOM     39  O   UNL     1      15.544  35.448  26.612  0.00  0.00    +0.000 OA
BRANCH  39  41
ATOM     40  O   UNL     1      14.611  37.430  25.917  0.00  0.00    +0.000 OA
ATOM     41  C   UNL     1      15.578  36.705  26.080  0.00  0.00    +0.000 C 
BRANCH  41  42
ATOM     42  C   UNL     1      16.954  37.056  25.684  0.00  0.00    +0.000 A 
ATOM     43  C   UNL     1      17.384  36.945  24.362  0.00  0.00    +0.000 A 
ATOM     44  C   UNL     1      17.830  37.509  26.670  0.00  0.00    +0.000 A 
ATOM     45  C   UNL     1      18.691  37.289  24.027  0.00  0.00    +0.000 A 
ATOM     46  C   UNL     1      19.136  37.852  26.332  0.00  0.00    +0.000 A 
ATOM     47  C   UNL     1      19.566  37.741  25.011  0.00  0.00    +0.000 A 
ENDBRANCH  41  42
ENDBRANCH  39  41
ENDBRANCH  16  39
BRANCH   9  48
ATOM     48  C   UNL     1       9.909  36.054  21.753  0.00  0.00    +0.000 C 
BRANCH  48  49
ATOM     49  O   UNL     1       8.904  36.784  21.277  0.00  0.00    +0.000 OA
ATOM     50  H   UNL     1       8.224  36.914  21.960  0.00  0.00    +0.000 HD
ENDBRANCH  48  49
ENDBRANCH   9  48
TORSDOF 12
ENDMDL
MODEL 4
REMARK VINA RESULT:      -5.3     21.325     25.225
REMARK  Name = 5358691_Yuanhuacine.pdbqt.pdb
REMARK  12 active torsions:
REMARK  status: ('A' for Active; 'I' for Inactive)
REMARK    1  A    between atoms: C_9  and  C_48
REMARK    2  A    between atoms: C_13  and  C_23
REMARK    3  A    between atoms: C_14  and  O_26
REMARK    4  A    between atoms: C_15  and  O_28
REMARK    5  A    between atoms: C_16  and  O_39
REMARK    6  A    between atoms: C_17  and  C_30
REMARK    7  A    between atoms: C_31  and  C_32
REMARK    8  A    between atoms: C_33  and  C_34
REMARK    9  A    between atoms: C_35  and  C_36
REMARK   10  A    between atoms: O_39  and  C_41
REMARK   11  A    between atoms: C_41  and  C_42
REMARK   12  A    between atoms: C_48  and  O_49
REMARK                            x       y       z     vdW  Elec       q    Type
REMARK                         _______ _______ _______ _____ _____    ______ ____
ROOT
ATOM      1  O   UNL     1      26.295  13.445  25.777  0.00  0.00    +0.000 OA
ATOM      2  O   UNL     1      28.875  11.863  24.015  0.00  0.00    +0.000 OA
ATOM      3  O   UNL     1      29.373  14.110  24.594  0.00  0.00    +0.000 OA
ATOM      4  O   UNL     1      30.363  13.199  22.737  0.00  0.00    +0.000 OA
ATOM      5  O   UNL     1      23.383   9.815  23.441  0.00  0.00    +0.000 OA
ATOM      6  C   UNL     1      27.326  13.708  23.686  0.00  0.00    +0.000 C 
ATOM      7  C   UNL     1      27.645  12.249  23.327  0.00  0.00    +0.000 C 
ATOM      8  C   UNL     1      26.318  14.156  24.604  0.00  0.00    +0.000 C 
ATOM      9  C   UNL     1      25.045  13.628  25.099  0.00  0.00    +0.000 C 
ATOM     10  C   UNL     1      28.576  14.454  23.503  0.00  0.00    +0.000 C 
ATOM     11  C   UNL     1      26.572  11.307  23.781  0.00  0.00    +0.000 C 
ATOM     12  C   UNL     1      27.888  12.157  21.790  0.00  0.00    +0.000 C 
ATOM     13  C   UNL     1      29.386  14.145  22.220  0.00  0.00    +0.000 C 
ATOM     14  C   UNL     1      25.116  11.563  23.462  0.00  0.00    +0.000 C 
ATOM     15  C   UNL     1      24.394  12.491  24.394  0.00  0.00    +0.000 C 
ATOM     16  C   UNL     1      28.582  13.310  21.240  0.00  0.00    +0.000 C 
ATOM     17  C   UNL     1      29.894  12.892  24.049  0.00  0.00    +0.000 C 
ATOM     18  C   UNL     1      26.726   9.936  24.111  0.00  0.00    +0.000 C 
ATOM     19  C   UNL     1      27.682  10.919  20.916  0.00  0.00    +0.000 C 
ATOM     20  C   UNL     1      24.563  10.108  23.616  0.00  0.00    +0.000 C 
ATOM     21  C   UNL     1      25.678   9.189  24.017  0.00  0.00    +0.000 C 
ATOM     22  C   UNL     1      25.531   7.873  24.708  0.00  0.00    +0.000 C 
ENDROOT
BRANCH  13  23
ATOM     23  C   UNL     1      30.029  15.443  21.678  0.00  0.00    +0.000 C 
ATOM     24  C   UNL     1      29.235  16.669  21.227  0.00  0.00    +0.000 C 
ATOM     25  C   UNL     1      31.315  15.528  21.281  0.00  0.00    +0.000 C 
ENDBRANCH  13  23
BRANCH  14  26
ATOM     26  O   UNL     1      24.961  12.059  22.149  0.00  0.00    +0.000 OA
ATOM     27  H   UNL     1      24.002  12.156  21.987  0.00  0.00    +0.000 HD
ENDBRANCH  14  26
BRANCH  15  28
ATOM     28  O   UNL     1      23.002  12.376  24.446  0.00  0.00    +0.000 OA
ATOM     29  H   UNL     1      22.669  11.482  24.674  0.00  0.00    +0.000 HD
ENDBRANCH  15  28
BRANCH  17  30
ATOM     30  C   UNL     1      31.008  12.424  24.866  0.00  0.00    +0.000 C 
ATOM     31  C   UNL     1      31.927  12.039  25.536  0.00  0.00    +0.000 C 
BRANCH  31  32
ATOM     32  C   UNL     1      33.098  11.551  26.392  0.00  0.00    +0.000 C 
ATOM     33  C   UNL     1      34.017  11.169  27.063  0.00  0.00    +0.000 C 
BRANCH  33  34
ATOM     34  C   UNL     1      35.191  10.683  27.919  0.00  0.00    +0.000 C 
ATOM     35  C   UNL     1      36.365  10.198  28.774  0.00  0.00    +0.000 C 
BRANCH  35  36
ATOM     36  C   UNL     1      37.538   9.713  29.632  0.00  0.00    +0.000 C 
ATOM     37  C   UNL     1      38.712   9.229  30.488  0.00  0.00    +0.000 C 
ATOM     38  C   UNL     1      39.887   8.744  31.344  0.00  0.00    +0.000 C 
ENDBRANCH  35  36
ENDBRANCH  33  34
ENDBRANCH  31  32
ENDBRANCH  17  30
BRANCH  16  39
ATOM     39  O   UNL     1      28.496  13.535  19.856  0.00  0.00    +0.000 OA
BRANCH  39  41
ATOM     40  O   UNL     1      30.546  12.537  19.568  0.00  0.00    +0.000 OA
ATOM     41  C   UNL     1      29.480  12.932  19.126  0.00  0.00    +0.000 C 
BRANCH  41  42
ATOM     42  C   UNL     1      29.094  12.861  17.705  0.00  0.00    +0.000 A 
ATOM     43  C   UNL     1      28.734  11.654  17.106  0.00  0.00    +0.000 A 
ATOM     44  C   UNL     1      29.094  14.040  16.962  0.00  0.00    +0.000 A 
ATOM     45  C   UNL     1      28.374  11.628  15.761  0.00  0.00    +0.000 A 
ATOM     46  C   UNL     1      28.733  14.012  15.617  0.00  0.00    +0.000 A 
ATOM     47  C   UNL     1      28.373  12.807  15.018  0.00  0.00    +0.000 A 
ENDBRANCH  41  42
ENDBRANCH  39  41
ENDBRANCH  16  39
BRANCH   9  48
ATOM     48  C   UNL     1      24.192  14.517  25.876  0.00  0.00    +0.000 C 
BRANCH  48  49
ATOM     49  O   UNL     1      23.410  15.330  26.581  0.00  0.00    +0.000 OA
ATOM     50  H   UNL     1      22.871  14.821  27.211  0.00  0.00    +0.000 HD
ENDBRANCH  48  49
ENDBRANCH   9  48
TORSDOF 12
ENDMDL
MODEL 5
REMARK VINA RESULT:      -5.2     28.092     31.463
REMARK  Name = 5358691_Yuanhuacine.pdbqt.pdb
REMARK  12 active torsions:
REMARK  status: ('A' for Active; 'I' for Inactive)
REMARK    1  A    between atoms: C_9  and  C_48
REMARK    2  A    between atoms: C_13  and  C_23
REMARK    3  A    between atoms: C_14  and  O_26
REMARK    4  A    between atoms: C_15  and  O_28
REMARK    5  A    between atoms: C_16  and  O_39
REMARK    6  A    between atoms: C_17  and  C_30
REMARK    7  A    between atoms: C_31  and  C_32
REMARK    8  A    between atoms: C_33  and  C_34
REMARK    9  A    between atoms: C_35  and  C_36
REMARK   10  A    between atoms: O_39  and  C_41
REMARK   11  A    between atoms: C_41  and  C_42
REMARK   12  A    between atoms: C_48  and  O_49
REMARK                            x       y       z     vdW  Elec       q    Type
REMARK                         _______ _______ _______ _____ _____    ______ ____
ROOT
ATOM      1  O   UNL     1      11.280  11.298   4.950  0.00  0.00    +0.000 OA
ATOM      2  O   UNL     1       8.633  12.662   3.108  0.00  0.00    +0.000 OA
ATOM      3  O   UNL     1       8.084  10.606   4.160  0.00  0.00    +0.000 OA
ATOM      4  O   UNL     1       6.979  11.198   2.240  0.00  0.00    +0.000 OA
ATOM      5  O   UNL     1      14.142  14.214   1.722  0.00  0.00    +0.000 OA
ATOM      6  C   UNL     1      10.061  10.696   3.037  0.00  0.00    +0.000 C 
ATOM      7  C   UNL     1       9.779  12.074   2.420  0.00  0.00    +0.000 C 
ATOM      8  C   UNL     1      11.123  10.374   3.948  0.00  0.00    +0.000 C 
ATOM      9  C   UNL     1      12.457  10.908   4.229  0.00  0.00    +0.000 C 
ATOM     10  C   UNL     1       8.767  10.007   3.103  0.00  0.00    +0.000 C 
ATOM     11  C   UNL     1      10.930  13.018   2.594  0.00  0.00    +0.000 C 
ATOM     12  C   UNL     1       9.409  11.879   0.919  0.00  0.00    +0.000 C 
ATOM     13  C   UNL     1       7.864  10.110   1.850  0.00  0.00    +0.000 C 
ATOM     14  C   UNL     1      12.339  12.614   2.223  0.00  0.00    +0.000 C 
ATOM     15  C   UNL     1      13.096  11.843   3.264  0.00  0.00    +0.000 C 
ATOM     16  C   UNL     1       8.617  10.686   0.664  0.00  0.00    +0.000 C 
ATOM     17  C   UNL     1       7.575  11.724   3.424  0.00  0.00    +0.000 C 
ATOM     18  C   UNL     1      10.868  14.433   2.655  0.00  0.00    +0.000 C 
ATOM     19  C   UNL     1       9.594  12.907  -0.198  0.00  0.00    +0.000 C 
ATOM     20  C   UNL     1      12.970  14.035   2.041  0.00  0.00    +0.000 C 
ATOM     21  C   UNL     1      11.937  15.082   2.334  0.00  0.00    +0.000 C 
ATOM     22  C   UNL     1      12.203  16.496   2.735  0.00  0.00    +0.000 C 
ENDROOT
BRANCH  13  23
ATOM     23  C   UNL     1       7.118   8.773   1.627  0.00  0.00    +0.000 C 
ATOM     24  C   UNL     1       7.511   7.452   2.287  0.00  0.00    +0.000 C 
ATOM     25  C   UNL     1       6.236   8.569   0.627  0.00  0.00    +0.000 C 
ENDBRANCH  13  23
BRANCH  14  26
ATOM     26  O   UNL     1      12.357  11.863   1.027  0.00  0.00    +0.000 OA
ATOM     27  H   UNL     1      13.291  11.773   0.755  0.00  0.00    +0.000 HD
ENDBRANCH  14  26
BRANCH  15  28
ATOM     28  O   UNL     1      14.491  11.880   3.186  0.00  0.00    +0.000 OA
ATOM     29  H   UNL     1      14.930  12.420   3.877  0.00  0.00    +0.000 HD
ENDBRANCH  15  28
BRANCH  17  30
ATOM     30  C   UNL     1       6.557  12.412   4.213  0.00  0.00    +0.000 C 
ATOM     31  C   UNL     1       5.720  12.975   4.862  0.00  0.00    +0.000 C 
BRANCH  31  32
ATOM     32  C   UNL     1       4.651  13.693   5.691  0.00  0.00    +0.000 C 
ATOM     33  C   UNL     1       3.814  14.256   6.342  0.00  0.00    +0.000 C 
BRANCH  33  34
ATOM     34  C   UNL     1       2.747  14.975   7.173  0.00  0.00    +0.000 C 
ATOM     35  C   UNL     1       1.681  15.693   8.005  0.00  0.00    +0.000 C 
BRANCH  35  36
ATOM     36  C   UNL     1       0.615  16.411   8.839  0.00  0.00    +0.000 C 
ATOM     37  C   UNL     1      -0.452  17.129   9.671  0.00  0.00    +0.000 C 
ATOM     38  C   UNL     1      -1.520  17.846  10.503  0.00  0.00    +0.000 C 
ENDBRANCH  35  36
ENDBRANCH  33  34
ENDBRANCH  31  32
ENDBRANCH  17  30
BRANCH  16  39
ATOM     39  O   UNL     1       8.573  10.190  -0.650  0.00  0.00    +0.000 OA
BRANCH  39  41
ATOM     40  O   UNL     1      10.509  10.207  -1.887  0.00  0.00    +0.000 OA
ATOM     41  C   UNL     1       9.755   9.670  -1.095  0.00  0.00    +0.000 C 
BRANCH  41  42
ATOM     42  C   UNL     1       9.977   8.334  -0.513  0.00  0.00    +0.000 A 
ATOM     43  C   UNL     1      10.860   8.137   0.549  0.00  0.00    +0.000 A 
ATOM     44  C   UNL     1       9.276   7.255  -1.050  0.00  0.00    +0.000 A 
ATOM     45  C   UNL     1      11.041   6.859   1.072  0.00  0.00    +0.000 A 
ATOM     46  C   UNL     1       9.458   5.979  -0.525  0.00  0.00    +0.000 A 
ATOM     47  C   UNL     1      10.341   5.782   0.536  0.00  0.00    +0.000 A 
ENDBRANCH  41  42
ENDBRANCH  39  41
ENDBRANCH  16  39
BRANCH   9  48
ATOM     48  C   UNL     1      13.332  10.137   5.101  0.00  0.00    +0.000 C 
BRANCH  48  49
ATOM     49  O   UNL     1      14.127   9.432   5.902  0.00  0.00    +0.000 OA
ATOM     50  H   UNL     1      13.632   9.111   6.676  0.00  0.00    +0.000 HD
ENDBRANCH  48  49
ENDBRANCH   9  48
TORSDOF 12
ENDMDL
MODEL 6
REMARK VINA RESULT:      -5.1      6.648     12.709
REMARK  Name = 5358691_Yuanhuacine.pdbqt.pdb
REMARK  12 active torsions:
REMARK  status: ('A' for Active; 'I' for Inactive)
REMARK    1  A    between atoms: C_9  and  C_48
REMARK    2  A    between atoms: C_13  and  C_23
REMARK    3  A    between atoms: C_14  and  O_26
REMARK    4  A    between atoms: C_15  and  O_28
REMARK    5  A    between atoms: C_16  and  O_39
REMARK    6  A    between atoms: C_17  and  C_30
REMARK    7  A    between atoms: C_31  and  C_32
REMARK    8  A    between atoms: C_33  and  C_34
REMARK    9  A    between atoms: C_35  and  C_36
REMARK   10  A    between atoms: O_39  and  C_41
REMARK   11  A    between atoms: C_41  and  C_42
REMARK   12  A    between atoms: C_48  and  O_49
REMARK                            x       y       z     vdW  Elec       q    Type
REMARK                         _______ _______ _______ _____ _____    ______ ____
ROOT
ATOM      1  O   UNL     1      12.554  15.269  31.265  0.00  0.00    +0.000 OA
ATOM      2  O   UNL     1      10.390  14.704  33.959  0.00  0.00    +0.000 OA
ATOM      3  O   UNL     1      11.754  12.832  33.441  0.00  0.00    +0.000 OA
ATOM      4  O   UNL     1       9.713  12.478  34.425  0.00  0.00    +0.000 OA
ATOM      5  O   UNL     1       9.004  18.877  30.041  0.00  0.00    +0.000 OA
ATOM      6  C   UNL     1      10.721  13.871  31.699  0.00  0.00    +0.000 C 
ATOM      7  C   UNL     1       9.865  14.775  32.598  0.00  0.00    +0.000 C 
ATOM      8  C   UNL     1      11.720  14.303  30.763  0.00  0.00    +0.000 C 
ATOM      9  C   UNL     1      11.964  15.517  29.982  0.00  0.00    +0.000 C 
ATOM     10  C   UNL     1      10.847  12.593  32.410  0.00  0.00    +0.000 C 
ATOM     11  C   UNL     1       9.925  16.212  32.176  0.00  0.00    +0.000 C 
ATOM     12  C   UNL     1       8.404  14.231  32.602  0.00  0.00    +0.000 C 
ATOM     13  C   UNL     1       9.555  12.027  33.050  0.00  0.00    +0.000 C 
ATOM     14  C   UNL     1       9.692  16.618  30.738  0.00  0.00    +0.000 C 
ATOM     15  C   UNL     1      10.883  16.527  29.830  0.00  0.00    +0.000 C 
ATOM     16  C   UNL     1       8.323  12.780  32.579  0.00  0.00    +0.000 C 
ATOM     17  C   UNL     1      10.814  13.382  34.372  0.00  0.00    +0.000 C 
ATOM     18  C   UNL     1       9.739  17.350  33.002  0.00  0.00    +0.000 C 
ATOM     19  C   UNL     1       7.137  15.048  32.856  0.00  0.00    +0.000 C 
ATOM     20  C   UNL     1       9.297  18.116  30.959  0.00  0.00    +0.000 C 
ATOM     21  C   UNL     1       9.360  18.439  32.422  0.00  0.00    +0.000 C 
ATOM     22  C   UNL     1       9.523  19.798  33.019  0.00  0.00    +0.000 C 
ENDROOT
BRANCH  13  23
ATOM     23  C   UNL     1       9.533  10.486  32.917  0.00  0.00    +0.000 C 
ATOM     24  C   UNL     1       8.781   9.555  33.866  0.00  0.00    +0.000 C 
ATOM     25  C   UNL     1      10.389   9.794  32.138  0.00  0.00    +0.000 C 
ENDBRANCH  13  23
BRANCH  14  26
ATOM     26  O   UNL     1       8.645  15.868  30.159  0.00  0.00    +0.000 OA
ATOM     27  H   UNL     1       9.028  15.362  29.415  0.00  0.00    +0.000 HD
ENDBRANCH  14  26
BRANCH  15  28
ATOM     28  O   UNL     1      10.862  17.323  28.681  0.00  0.00    +0.000 OA
ATOM     29  H   UNL     1       9.972  17.635  28.410  0.00  0.00    +0.000 HD
ENDBRANCH  15  28
BRANCH  17  30
ATOM     30  C   UNL     1      11.428  13.477  35.693  0.00  0.00    +0.000 C 
ATOM     31  C   UNL     1      11.930  13.556  36.780  0.00  0.00    +0.000 C 
BRANCH  31  32
ATOM     32  C   UNL     1      12.570  13.656  38.167  0.00  0.00    +0.000 C 
ATOM     33  C   UNL     1      13.072  13.734  39.255  0.00  0.00    +0.000 C 
BRANCH  33  34
ATOM     34  C   UNL     1      13.712  13.831  40.643  0.00  0.00    +0.000 C 
ATOM     35  C   UNL     1      14.351  13.928  42.031  0.00  0.00    +0.000 C 
BRANCH  35  36
ATOM     36  C   UNL     1      14.991  14.023  43.420  0.00  0.00    +0.000 C 
ATOM     37  C   UNL     1      15.630  14.119  44.808  0.00  0.00    +0.000 C 
ATOM     38  C   UNL     1      16.270  14.217  46.197  0.00  0.00    +0.000 C 
ENDBRANCH  35  36
ENDBRANCH  33  34
ENDBRANCH  31  32
ENDBRANCH  17  30
BRANCH  16  39
ATOM     39  O   UNL     1       7.113  12.191  32.174  0.00  0.00    +0.000 OA
BRANCH  39  41
ATOM     40  O   UNL     1       6.825  12.901  30.008  0.00  0.00    +0.000 OA
ATOM     41  C   UNL     1       6.999  12.013  30.825  0.00  0.00    +0.000 C 
BRANCH  41  42
ATOM     42  C   UNL     1       7.070  10.579  30.490  0.00  0.00    +0.000 A 
ATOM     43  C   UNL     1       7.924  10.104  29.496  0.00  0.00    +0.000 A 
ATOM     44  C   UNL     1       6.256   9.695  31.197  0.00  0.00    +0.000 A 
ATOM     45  C   UNL     1       7.964   8.741  29.209  0.00  0.00    +0.000 A 
ATOM     46  C   UNL     1       6.299   8.334  30.909  0.00  0.00    +0.000 A 
ATOM     47  C   UNL     1       7.152   7.858  29.916  0.00  0.00    +0.000 A 
ENDBRANCH  41  42
ENDBRANCH  39  41
ENDBRANCH  16  39
BRANCH   9  48
ATOM     48  C   UNL     1      12.994  15.472  28.953  0.00  0.00    +0.000 C 
BRANCH  48  49
ATOM     49  O   UNL     1      13.935  15.436  28.014  0.00  0.00    +0.000 OA
ATOM     50  H   UNL     1      14.029  16.309  27.593  0.00  0.00    +0.000 HD
ENDBRANCH  48  49
ENDBRANCH   9  48
TORSDOF 12
ENDMDL
MODEL 7
REMARK VINA RESULT:      -5.1     28.921     31.872
REMARK  Name = 5358691_Yuanhuacine.pdbqt.pdb
REMARK  12 active torsions:
REMARK  status: ('A' for Active; 'I' for Inactive)
REMARK    1  A    between atoms: C_9  and  C_48
REMARK    2  A    between atoms: C_13  and  C_23
REMARK    3  A    between atoms: C_14  and  O_26
REMARK    4  A    between atoms: C_15  and  O_28
REMARK    5  A    between atoms: C_16  and  O_39
REMARK    6  A    between atoms: C_17  and  C_30
REMARK    7  A    between atoms: C_31  and  C_32
REMARK    8  A    between atoms: C_33  and  C_34
REMARK    9  A    between atoms: C_35  and  C_36
REMARK   10  A    between atoms: O_39  and  C_41
REMARK   11  A    between atoms: C_41  and  C_42
REMARK   12  A    between atoms: C_48  and  O_49
REMARK                            x       y       z     vdW  Elec       q    Type
REMARK                         _______ _______ _______ _____ _____    ______ ____
ROOT
ATOM      1  O   UNL     1      10.626   9.941  -0.338  0.00  0.00    +0.000 OA
ATOM      2  O   UNL     1      10.220  11.771   2.619  0.00  0.00    +0.000 OA
ATOM      3  O   UNL     1      10.593  13.136   0.714  0.00  0.00    +0.000 OA
ATOM      4  O   UNL     1      11.224  13.916   2.775  0.00  0.00    +0.000 OA
ATOM      5  O   UNL     1      11.995   6.167   2.979  0.00  0.00    +0.000 OA
ATOM      6  C   UNL     1      11.966  11.342   0.984  0.00  0.00    +0.000 C 
ATOM      7  C   UNL     1      11.446  11.010   2.390  0.00  0.00    +0.000 C 
ATOM      8  C   UNL     1      11.867  10.506  -0.179  0.00  0.00    +0.000 C 
ATOM      9  C   UNL     1      11.760   9.067  -0.426  0.00  0.00    +0.000 C 
ATOM     10  C   UNL     1      11.937  12.806   0.874  0.00  0.00    +0.000 C 
ATOM     11  C   UNL     1      11.098   9.560   2.536  0.00  0.00    +0.000 C 
ATOM     12  C   UNL     1      12.511  11.462   3.433  0.00  0.00    +0.000 C 
ATOM     13  C   UNL     1      12.469  13.601   2.091  0.00  0.00    +0.000 C 
ATOM     14  C   UNL     1      12.068   8.475   2.125  0.00  0.00    +0.000 C 
ATOM     15  C   UNL     1      12.060   8.106   0.670  0.00  0.00    +0.000 C 
ATOM     16  C   UNL     1      13.188  12.698   3.078  0.00  0.00    +0.000 C 
ATOM     17  C   UNL     1      10.246  13.125   2.103  0.00  0.00    +0.000 C 
ATOM     18  C   UNL     1      10.144   8.999   3.424  0.00  0.00    +0.000 C 
ATOM     19  C   UNL     1      12.714  10.872   4.829  0.00  0.00    +0.000 C 
ATOM     20  C   UNL     1      11.505   7.294   2.983  0.00  0.00    +0.000 C 
ATOM     21  C   UNL     1      10.307   7.761   3.753  0.00  0.00    +0.000 C 
ATOM     22  C   UNL     1       9.219   6.898   4.303  0.00  0.00    +0.000 C 
ENDROOT
BRANCH  13  23
ATOM     23  C   UNL     1      13.228  14.859   1.606  0.00  0.00    +0.000 C 
ATOM     24  C   UNL     1      14.224  14.866   0.447  0.00  0.00    +0.000 C 
ATOM     25  C   UNL     1      13.311  16.001   2.320  0.00  0.00    +0.000 C 
ENDBRANCH  13  23
BRANCH  14  26
ATOM     26  O   UNL     1      13.392   8.812   2.480  0.00  0.00    +0.000 OA
ATOM     27  H   UNL     1      13.342   9.403   3.258  0.00  0.00    +0.000 HD
ENDBRANCH  14  26
BRANCH  15  28
ATOM     28  O   UNL     1      12.540   6.837   0.339  0.00  0.00    +0.000 OA
ATOM     29  H   UNL     1      13.392   6.830  -0.148  0.00  0.00    +0.000 HD
ENDBRANCH  15  28
BRANCH  17  30
ATOM     30  C   UNL     1       8.929  13.724   2.288  0.00  0.00    +0.000 C 
ATOM     31  C   UNL     1       7.844  14.215   2.439  0.00  0.00    +0.000 C 
BRANCH  31  32
ATOM     32  C   UNL     1       6.460  14.840   2.633  0.00  0.00    +0.000 C 
ATOM     33  C   UNL     1       5.374  15.330   2.786  0.00  0.00    +0.000 C 
BRANCH  33  34
ATOM     34  C   UNL     1       3.989  15.953   2.984  0.00  0.00    +0.000 C 
ATOM     35  C   UNL     1       2.605  16.576   3.180  0.00  0.00    +0.000 C 
BRANCH  35  36
ATOM     36  C   UNL     1       1.219  17.200   3.375  0.00  0.00    +0.000 C 
ATOM     37  C   UNL     1      -0.167  17.822   3.570  0.00  0.00    +0.000 C 
ATOM     38  C   UNL     1      -1.554  18.443   3.766  0.00  0.00    +0.000 C 
ENDBRANCH  35  36
ENDBRANCH  33  34
ENDBRANCH  31  32
ENDBRANCH  17  30
BRANCH  16  39
ATOM     39  O   UNL     1      14.415  12.983   3.700  0.00  0.00    +0.000 OA
BRANCH  39  41
ATOM     40  O   UNL     1      15.601  11.668   2.234  0.00  0.00    +0.000 OA
ATOM     41  C   UNL     1      15.512  12.644   2.960  0.00  0.00    +0.000 C 
BRANCH  41  42
ATOM     42  C   UNL     1      16.604  13.606   3.193  0.00  0.00    +0.000 A 
ATOM     43  C   UNL     1      17.839  13.476   2.558  0.00  0.00    +0.000 A 
ATOM     44  C   UNL     1      16.376  14.664   4.072  0.00  0.00    +0.000 A 
ATOM     45  C   UNL     1      18.846  14.407   2.804  0.00  0.00    +0.000 A 
ATOM     46  C   UNL     1      17.384  15.593   4.315  0.00  0.00    +0.000 A 
ATOM     47  C   UNL     1      18.618  15.464   3.681  0.00  0.00    +0.000 A 
ENDBRANCH  41  42
ENDBRANCH  39  41
ENDBRANCH  16  39
BRANCH   9  48
ATOM     48  C   UNL     1      11.910   8.595  -1.795  0.00  0.00    +0.000 C 
BRANCH  48  49
ATOM     49  O   UNL     1      12.051   8.160  -3.045  0.00  0.00    +0.000 OA
ATOM     50  H   UNL     1      12.291   8.895  -3.635  0.00  0.00    +0.000 HD
ENDBRANCH  48  49
ENDBRANCH   9  48
TORSDOF 12
ENDMDL
MODEL 8
REMARK VINA RESULT:      -5.1     12.107     17.719
REMARK  Name = 5358691_Yuanhuacine.pdbqt.pdb
REMARK  12 active torsions:
REMARK  status: ('A' for Active; 'I' for Inactive)
REMARK    1  A    between atoms: C_9  and  C_48
REMARK    2  A    between atoms: C_13  and  C_23
REMARK    3  A    between atoms: C_14  and  O_26
REMARK    4  A    between atoms: C_15  and  O_28
REMARK    5  A    between atoms: C_16  and  O_39
REMARK    6  A    between atoms: C_17  and  C_30
REMARK    7  A    between atoms: C_31  and  C_32
REMARK    8  A    between atoms: C_33  and  C_34
REMARK    9  A    between atoms: C_35  and  C_36
REMARK   10  A    between atoms: O_39  and  C_41
REMARK   11  A    between atoms: C_41  and  C_42
REMARK   12  A    between atoms: C_48  and  O_49
REMARK                            x       y       z     vdW  Elec       q    Type
REMARK                         _______ _______ _______ _____ _____    ______ ____
ROOT
ATOM      1  O   UNL     1      19.388  18.978  30.156  0.00  0.00    +0.000 OA
ATOM      2  O   UNL     1      22.671  20.088  29.656  0.00  0.00    +0.000 OA
ATOM      3  O   UNL     1      21.521  19.613  27.634  0.00  0.00    +0.000 OA
ATOM      4  O   UNL     1      23.806  19.423  27.681  0.00  0.00    +0.000 OA
ATOM      5  O   UNL     1      21.267  17.641  34.826  0.00  0.00    +0.000 OA
ATOM      6  C   UNL     1      21.371  18.066  29.296  0.00  0.00    +0.000 C 
ATOM      7  C   UNL     1      22.421  18.749  30.184  0.00  0.00    +0.000 C 
ATOM      8  C   UNL     1      19.985  17.867  29.617  0.00  0.00    +0.000 C 
ATOM      9  C   UNL     1      19.207  17.736  30.850  0.00  0.00    +0.000 C 
ATOM     10  C   UNL     1      21.809  18.277  27.911  0.00  0.00    +0.000 C 
ATOM     11  C   UNL     1      21.947  18.913  31.596  0.00  0.00    +0.000 C 
ATOM     12  C   UNL     1      23.745  17.931  30.106  0.00  0.00    +0.000 C 
ATOM     13  C   UNL     1      23.313  18.055  27.620  0.00  0.00    +0.000 C 
ATOM     14  C   UNL     1      21.362  17.752  32.368  0.00  0.00    +0.000 C 
ATOM     15  C   UNL     1      19.904  17.482  32.140  0.00  0.00    +0.000 C 
ATOM     16  C   UNL     1      24.015  17.383  28.787  0.00  0.00    +0.000 C 
ATOM     17  C   UNL     1      22.710  20.167  28.210  0.00  0.00    +0.000 C 
ATOM     18  C   UNL     1      22.357  19.908  32.521  0.00  0.00    +0.000 C 
ATOM     19  C   UNL     1      24.833  17.870  31.179  0.00  0.00    +0.000 C 
ATOM     20  C   UNL     1      21.592  18.274  33.825  0.00  0.00    +0.000 C 
ATOM     21  C   UNL     1      22.228  19.631  33.775  0.00  0.00    +0.000 C 
ATOM     22  C   UNL     1      22.192  20.663  34.855  0.00  0.00    +0.000 C 
ENDROOT
BRANCH  13  23
ATOM     23  C   UNL     1      23.489  17.410  26.226  0.00  0.00    +0.000 C 
ATOM     24  C   UNL     1      24.824  17.311  25.489  0.00  0.00    +0.000 C 
ATOM     25  C   UNL     1      22.460  17.128  25.400  0.00  0.00    +0.000 C 
ENDBRANCH  13  23
BRANCH  14  26
ATOM     26  O   UNL     1      22.071  16.558  32.109  0.00  0.00    +0.000 OA
ATOM     27  H   UNL     1      22.486  16.280  32.949  0.00  0.00    +0.000 HD
ENDBRANCH  14  26
BRANCH  15  28
ATOM     28  O   UNL     1      19.227  16.787  33.145  0.00  0.00    +0.000 OA
ATOM     29  H   UNL     1      18.248  16.844  33.101  0.00  0.00    +0.000 HD
ENDBRANCH  15  28
BRANCH  17  30
ATOM     30  C   UNL     1      22.840  21.567  27.819  0.00  0.00    +0.000 C 
ATOM     31  C   UNL     1      22.948  22.719  27.499  0.00  0.00    +0.000 C 
BRANCH  31  32
ATOM     32  C   UNL     1      23.088  24.188  27.091  0.00  0.00    +0.000 C 
ATOM     33  C   UNL     1      23.196  25.340  26.772  0.00  0.00    +0.000 C 
BRANCH  33  34
ATOM     34  C   UNL     1      23.333  26.811  26.366  0.00  0.00    +0.000 C 
ATOM     35  C   UNL     1      23.470  28.280  25.961  0.00  0.00    +0.000 C 
BRANCH  35  36
ATOM     36  C   UNL     1      23.609  29.751  25.554  0.00  0.00    +0.000 C 
ATOM     37  C   UNL     1      23.746  31.221  25.147  0.00  0.00    +0.000 C 
ATOM     38  C   UNL     1      23.883  32.692  24.739  0.00  0.00    +0.000 C 
ENDBRANCH  35  36
ENDBRANCH  33  34
ENDBRANCH  31  32
ENDBRANCH  17  30
BRANCH  16  39
ATOM     39  O   UNL     1      24.927  16.319  28.687  0.00  0.00    +0.000 OA
BRANCH  39  41
ATOM     40  O   UNL     1      24.344  14.639  30.143  0.00  0.00    +0.000 OA
ATOM     41  C   UNL     1      24.406  15.100  29.016  0.00  0.00    +0.000 C 
BRANCH  41  42
ATOM     42  C   UNL     1      23.962  14.388  27.803  0.00  0.00    +0.000 A 
ATOM     43  C   UNL     1      22.616  14.101  27.577  0.00  0.00    +0.000 A 
ATOM     44  C   UNL     1      24.926  14.004  26.873  0.00  0.00    +0.000 A 
ATOM     45  C   UNL     1      22.235  13.429  26.418  0.00  0.00    +0.000 A 
ATOM     46  C   UNL     1      24.543  13.332  25.716  0.00  0.00    +0.000 A 
ATOM     47  C   UNL     1      23.199  13.045  25.489  0.00  0.00    +0.000 A 
ENDBRANCH  41  42
ENDBRANCH  39  41
ENDBRANCH  16  39
BRANCH   9  48
ATOM     48  C   UNL     1      17.818  17.311  30.739  0.00  0.00    +0.000 C 
BRANCH  48  49
ATOM     49  O   UNL     1      16.551  16.918  30.642  0.00  0.00    +0.000 OA
ATOM     50  H   UNL     1      16.444  16.021  31.003  0.00  0.00    +0.000 HD
ENDBRANCH  48  49
ENDBRANCH   9  48
TORSDOF 12
ENDMDL
MODEL 9
REMARK VINA RESULT:      -5.0     16.351     20.542
REMARK  Name = 5358691_Yuanhuacine.pdbqt.pdb
REMARK  12 active torsions:
REMARK  status: ('A' for Active; 'I' for Inactive)
REMARK    1  A    between atoms: C_9  and  C_48
REMARK    2  A    between atoms: C_13  and  C_23
REMARK    3  A    between atoms: C_14  and  O_26
REMARK    4  A    between atoms: C_15  and  O_28
REMARK    5  A    between atoms: C_16  and  O_39
REMARK    6  A    between atoms: C_17  and  C_30
REMARK    7  A    between atoms: C_31  and  C_32
REMARK    8  A    between atoms: C_33  and  C_34
REMARK    9  A    between atoms: C_35  and  C_36
REMARK   10  A    between atoms: O_39  and  C_41
REMARK   11  A    between atoms: C_41  and  C_42
REMARK   12  A    between atoms: C_48  and  O_49
REMARK                            x       y       z     vdW  Elec       q    Type
REMARK                         _______ _______ _______ _____ _____    ______ ____
ROOT
ATOM      1  O   UNL     1      26.574  15.063  28.421  0.00  0.00    +0.000 OA
ATOM      2  O   UNL     1      23.633  13.215  28.862  0.00  0.00    +0.000 OA
ATOM      3  O   UNL     1      25.602  11.973  29.326  0.00  0.00    +0.000 OA
ATOM      4  O   UNL     1      23.727  10.856  28.622  0.00  0.00    +0.000 OA
ATOM      5  O   UNL     1      23.528  17.890  25.282  0.00  0.00    +0.000 OA
ATOM      6  C   UNL     1      25.580  13.196  27.407  0.00  0.00    +0.000 C 
ATOM      7  C   UNL     1      24.092  13.555  27.518  0.00  0.00    +0.000 C 
ATOM      8  C   UNL     1      26.682  14.116  27.434  0.00  0.00    +0.000 C 
ATOM      9  C   UNL     1      26.872  15.528  27.098  0.00  0.00    +0.000 C 
ATOM     10  C   UNL     1      25.711  11.835  27.943  0.00  0.00    +0.000 C 
ATOM     11  C   UNL     1      23.848  15.021  27.327  0.00  0.00    +0.000 C 
ATOM     12  C   UNL     1      23.295  12.695  26.491  0.00  0.00    +0.000 C 
ATOM     13  C   UNL     1      24.644  10.808  27.493  0.00  0.00    +0.000 C 
ATOM     14  C   UNL     1      24.426  15.765  26.144  0.00  0.00    +0.000 C 
ATOM     15  C   UNL     1      25.841  16.242  26.297  0.00  0.00    +0.000 C 
ATOM     16  C   UNL     1      23.805  11.341  26.345  0.00  0.00    +0.000 C 
ATOM     17  C   UNL     1      24.171  11.976  29.386  0.00  0.00    +0.000 C 
ATOM     18  C   UNL     1      22.775  15.782  27.857  0.00  0.00    +0.000 C 
ATOM     19  C   UNL     1      21.957  13.064  25.849  0.00  0.00    +0.000 C 
ATOM     20  C   UNL     1      23.448  16.987  26.111  0.00  0.00    +0.000 C 
ATOM     21  C   UNL     1      22.460  16.867  27.232  0.00  0.00    +0.000 C 
ATOM     22  C   UNL     1      21.685  17.985  27.848  0.00  0.00    +0.000 C 
ENDROOT
BRANCH  13  23
ATOM     23  C   UNL     1      25.298   9.420  27.302  0.00  0.00    +0.000 C 
ATOM     24  C   UNL     1      24.527   8.101  27.313  0.00  0.00    +0.000 C 
ATOM     25  C   UNL     1      26.626   9.203  27.390  0.00  0.00    +0.000 C 
ENDBRANCH  13  23
BRANCH  14  26
ATOM     26  O   UNL     1      24.353  14.989  24.967  0.00  0.00    +0.000 OA
ATOM     27  H   UNL     1      23.447  14.625  24.916  0.00  0.00    +0.000 HD
ENDBRANCH  14  26
BRANCH  15  28
ATOM     28  O   UNL     1      26.237  17.311  25.489  0.00  0.00    +0.000 OA
ATOM     29  H   UNL     1      27.202  17.487  25.478  0.00  0.00    +0.000 HD
ENDBRANCH  15  28
BRANCH  17  30
ATOM     30  C   UNL     1      23.736  11.822  30.770  0.00  0.00    +0.000 C 
ATOM     31  C   UNL     1      23.377  11.693  31.909  0.00  0.00    +0.000 C 
BRANCH  31  32
ATOM     32  C   UNL     1      22.922  11.527  33.361  0.00  0.00    +0.000 C 
ATOM     33  C   UNL     1      22.564  11.398  34.499  0.00  0.00    +0.000 C 
BRANCH  33  34
ATOM     34  C   UNL     1      22.104  11.232  35.951  0.00  0.00    +0.000 C 
ATOM     35  C   UNL     1      21.646  11.067  37.402  0.00  0.00    +0.000 C 
BRANCH  35  36
ATOM     36  C   UNL     1      21.188  10.902  38.855  0.00  0.00    +0.000 C 
ATOM     37  C   UNL     1      20.731  10.736  40.307  0.00  0.00    +0.000 C 
ATOM     38  C   UNL     1      20.273  10.569  41.760  0.00  0.00    +0.000 C 
ENDBRANCH  35  36
ENDBRANCH  33  34
ENDBRANCH  31  32
ENDBRANCH  17  30
BRANCH  16  39
ATOM     39  O   UNL     1      23.451  10.622  25.191  0.00  0.00    +0.000 OA
BRANCH  39  41
ATOM     40  O   UNL     1      23.735  11.802  23.239  0.00  0.00    +0.000 OA
ATOM     41  C   UNL     1      24.129  10.996  24.066  0.00  0.00    +0.000 C 
BRANCH  41  42
ATOM     42  C   UNL     1      25.397  10.252  23.961  0.00  0.00    +0.000 A 
ATOM     43  C   UNL     1      25.419   8.877  23.733  0.00  0.00    +0.000 A 
ATOM     44  C   UNL     1      26.591  10.960  24.094  0.00  0.00    +0.000 A 
ATOM     45  C   UNL     1      26.638   8.209  23.638  0.00  0.00    +0.000 A 
ATOM     46  C   UNL     1      27.807  10.291  23.998  0.00  0.00    +0.000 A 
ATOM     47  C   UNL     1      27.831   8.916  23.771  0.00  0.00    +0.000 A 
ENDBRANCH  41  42
ENDBRANCH  39  41
ENDBRANCH  16  39
BRANCH   9  48
ATOM     48  C   UNL     1      28.234  16.042  27.054  0.00  0.00    +0.000 C 
BRANCH  48  49
ATOM     49  O   UNL     1      29.480  16.506  27.013  0.00  0.00    +0.000 OA
ATOM     50  H   UNL     1      29.787  16.577  26.093  0.00  0.00    +0.000 HD
ENDBRANCH  48  49
ENDBRANCH   9  48
TORSDOF 12
ENDMDL
