MODEL 1
REMARK VINA RESULT:      -4.5      0.000      0.000
REMARK  Name = 5386_Tegafur.pdbqt.pdb
REMARK  1 active torsions:
REMARK  status: ('A' for Active; 'I' for Inactive)
REMARK    1  A    between atoms: N_4  and  C_12
REMARK                            x       y       z     vdW  Elec       q    Type
REMARK                         _______ _______ _______ _____ _____    ______ ____
ROOT
ATOM      1  F   UNL     1      24.190  23.283  27.339  0.00  0.00    +0.000 F 
ATOM      2  O   UNL     1      22.643  20.150  23.180  0.00  0.00    +0.000 OA
ATOM      3  O   UNL     1      24.085  24.243  24.680  0.00  0.00    +0.000 OA
ATOM      4  N   UNL     1      23.302  20.332  25.445  0.00  0.00    +0.000 N 
ATOM      5  N   UNL     1      23.449  22.150  23.963  0.00  0.00    +0.000 N 
ATOM      6  C   UNL     1      23.090  20.791  24.124  0.00  0.00    +0.000 C 
ATOM      7  C   UNL     1      23.793  21.219  26.334  0.00  0.00    +0.000 C 
ATOM      8  C   UNL     1      24.149  22.458  26.280  0.00  0.00    +0.000 C 
ATOM      9  C   UNL     1      23.910  23.056  24.927  0.00  0.00    +0.000 C 
ATOM     10  H   UNL     1      23.279  22.533  23.044  0.00  0.00    +0.000 HD
ENDROOT
BRANCH   4  12
ATOM     11  O   UNL     1      21.970  18.752  26.718  0.00  0.00    +0.000 OA
ATOM     12  C   UNL     1      23.032  19.060  25.859  0.00  0.00    +0.000 C 
ATOM     13  C   UNL     1      23.717  17.855  25.548  0.00  0.00    +0.000 C 
ATOM     14  C   UNL     1      23.281  16.501  26.111  0.00  0.00    +0.000 C 
ATOM     15  C   UNL     1      22.250  17.442  26.731  0.00  0.00    +0.000 C 
ENDBRANCH   4  12
TORSDOF 1
ENDMDL
MODEL 2
REMARK VINA RESULT:      -4.4      1.775      2.336
REMARK  Name = 5386_Tegafur.pdbqt.pdb
REMARK  1 active torsions:
REMARK  status: ('A' for Active; 'I' for Inactive)
REMARK    1  A    between atoms: N_4  and  C_12
REMARK                            x       y       z     vdW  Elec       q    Type
REMARK                         _______ _______ _______ _____ _____    ______ ____
ROOT
ATOM      1  F   UNL     1      23.718  22.719  26.115  0.00  0.00    +0.000 F 
ATOM      2  O   UNL     1      21.583  18.047  24.349  0.00  0.00    +0.000 OA
ATOM      3  O   UNL     1      23.522  22.091  23.363  0.00  0.00    +0.000 OA
ATOM      4  N   UNL     1      22.413  19.346  26.143  0.00  0.00    +0.000 N 
ATOM      5  N   UNL     1      22.634  20.037  23.909  0.00  0.00    +0.000 N 
ATOM      6  C   UNL     1      22.155  19.038  24.788  0.00  0.00    +0.000 C 
ATOM      7  C   UNL     1      23.051  20.506  26.402  0.00  0.00    +0.000 C 
ATOM      8  C   UNL     1      23.522  21.464  25.678  0.00  0.00    +0.000 C 
ATOM      9  C   UNL     1      23.248  21.258  24.219  0.00  0.00    +0.000 C 
ATOM     10  H   UNL     1      22.438  19.880  22.930  0.00  0.00    +0.000 HD
ENDROOT
BRANCH   4  12
ATOM     11  O   UNL     1      22.384  17.187  27.252  0.00  0.00    +0.000 OA
ATOM     12  C   UNL     1      22.050  18.545  27.187  0.00  0.00    +0.000 C 
ATOM     13  C   UNL     1      21.302  18.874  28.349  0.00  0.00    +0.000 C 
ATOM     14  C   UNL     1      20.974  17.842  29.429  0.00  0.00    +0.000 C 
ATOM     15  C   UNL     1      21.769  17.005  28.428  0.00  0.00    +0.000 C 
ENDBRANCH   4  12
TORSDOF 1
ENDMDL
MODEL 3
REMARK VINA RESULT:      -4.4     24.276     26.216
REMARK  Name = 5386_Tegafur.pdbqt.pdb
REMARK  1 active torsions:
REMARK  status: ('A' for Active; 'I' for Inactive)
REMARK    1  A    between atoms: N_4  and  C_12
REMARK                            x       y       z     vdW  Elec       q    Type
REMARK                         _______ _______ _______ _____ _____    ______ ____
ROOT
ATOM      1  F   UNL     1      18.788  -4.708  11.720  0.00  0.00    +0.000 F 
ATOM      2  O   UNL     1      21.416   0.045  11.637  0.00  0.00    +0.000 OA
ATOM      3  O   UNL     1      19.567  -3.453   9.308  0.00  0.00    +0.000 OA
ATOM      4  N   UNL     1      20.187  -1.571  12.852  0.00  0.00    +0.000 N 
ATOM      5  N   UNL     1      20.401  -1.679  10.515  0.00  0.00    +0.000 N 
ATOM      6  C   UNL     1      20.728  -0.968  11.694  0.00  0.00    +0.000 C 
ATOM      7  C   UNL     1      19.466  -2.698  12.682  0.00  0.00    +0.000 C 
ATOM      8  C   UNL     1      19.117  -3.407  11.663  0.00  0.00    +0.000 C 
ATOM      9  C   UNL     1      19.691  -2.879  10.383  0.00  0.00    +0.000 C 
ATOM     10  H   UNL     1      20.799  -1.307   9.664  0.00  0.00    +0.000 HD
ENDROOT
BRANCH   4  12
ATOM     11  O   UNL     1      21.607  -1.043  14.749  0.00  0.00    +0.000 OA
ATOM     12  C   UNL     1      20.360  -1.081  14.115  0.00  0.00    +0.000 C 
ATOM     13  C   UNL     1      19.391  -0.548  15.007  0.00  0.00    +0.000 C 
ATOM     14  C   UNL     1      19.758  -0.044  16.404  0.00  0.00    +0.000 C 
ATOM     15  C   UNL     1      21.115  -0.500  15.871  0.00  0.00    +0.000 C 
ENDBRANCH   4  12
TORSDOF 1
ENDMDL
MODEL 4
REMARK VINA RESULT:      -4.4      8.883     11.088
REMARK  Name = 5386_Tegafur.pdbqt.pdb
REMARK  1 active torsions:
REMARK  status: ('A' for Active; 'I' for Inactive)
REMARK    1  A    between atoms: N_4  and  C_12
REMARK                            x       y       z     vdW  Elec       q    Type
REMARK                         _______ _______ _______ _____ _____    ______ ____
ROOT
ATOM      1  F   UNL     1      26.528   8.480  27.157  0.00  0.00    +0.000 F 
ATOM      2  O   UNL     1      23.293  10.419  23.248  0.00  0.00    +0.000 OA
ATOM      3  O   UNL     1      26.331   7.258  24.613  0.00  0.00    +0.000 OA
ATOM      4  N   UNL     1      23.957  10.427  25.518  0.00  0.00    +0.000 N 
ATOM      5  N   UNL     1      24.745   8.812  24.004  0.00  0.00    +0.000 N 
ATOM      6  C   UNL     1      23.925   9.950  24.188  0.00  0.00    +0.000 C 
ATOM      7  C   UNL     1      24.738   9.760  26.393  0.00  0.00    +0.000 C 
ATOM      8  C   UNL     1      25.507   8.727  26.320  0.00  0.00    +0.000 C 
ATOM      9  C   UNL     1      25.584   8.177  24.928  0.00  0.00    +0.000 C 
ATOM     10  H   UNL     1      24.784   8.458  23.058  0.00  0.00    +0.000 HD
ENDROOT
BRANCH   4  12
ATOM     11  O   UNL     1      21.945  11.425  26.437  0.00  0.00    +0.000 OA
ATOM     12  C   UNL     1      23.255  11.513  25.953  0.00  0.00    +0.000 C 
ATOM     13  C   UNL     1      23.656  12.876  26.003  0.00  0.00    +0.000 C 
ATOM     14  C   UNL     1      22.732  13.980  26.519  0.00  0.00    +0.000 C 
ATOM     15  C   UNL     1      21.851  12.741  26.669  0.00  0.00    +0.000 C 
ENDBRANCH   4  12
TORSDOF 1
ENDMDL
MODEL 5
REMARK VINA RESULT:      -4.1     27.280     28.064
REMARK  Name = 5386_Tegafur.pdbqt.pdb
REMARK  1 active torsions:
REMARK  status: ('A' for Active; 'I' for Inactive)
REMARK    1  A    between atoms: N_4  and  C_12
REMARK                            x       y       z     vdW  Elec       q    Type
REMARK                         _______ _______ _______ _____ _____    ______ ____
ROOT
ATOM      1  F   UNL     1      -5.085  26.710  17.455  0.00  0.00    +0.000 F 
ATOM      2  O   UNL     1      -0.171  28.984  17.017  0.00  0.00    +0.000 OA
ATOM      3  O   UNL     1      -4.004  28.375  19.471  0.00  0.00    +0.000 OA
ATOM      4  N   UNL     1      -1.757  27.416  16.227  0.00  0.00    +0.000 N 
ATOM      5  N   UNL     1      -2.066  28.579  18.245  0.00  0.00    +0.000 N 
ATOM      6  C   UNL     1      -1.225  28.367  17.127  0.00  0.00    +0.000 C 
ATOM      7  C   UNL     1      -2.947  26.866  16.543  0.00  0.00    +0.000 C 
ATOM      8  C   UNL     1      -3.773  26.992  17.525  0.00  0.00    +0.000 C 
ATOM      9  C   UNL     1      -3.324  28.025  18.513  0.00  0.00    +0.000 C 
ATOM     10  H   UNL     1      -1.745  29.280  18.898  0.00  0.00    +0.000 HD
ENDROOT
BRANCH   4  12
ATOM     11  O   UNL     1      -0.721  27.953  14.098  0.00  0.00    +0.000 OA
ATOM     12  C   UNL     1      -1.139  27.036  15.070  0.00  0.00    +0.000 C 
ATOM     13  C   UNL     1      -0.813  25.729  14.619  0.00  0.00    +0.000 C 
ATOM     14  C   UNL     1      -0.119  25.479  13.278  0.00  0.00    +0.000 C 
ATOM     15  C   UNL     1      -0.240  27.002  13.286  0.00  0.00    +0.000 C 
ENDBRANCH   4  12
TORSDOF 1
ENDMDL
MODEL 6
REMARK VINA RESULT:      -4.1     27.349     28.339
REMARK  Name = 5386_Tegafur.pdbqt.pdb
REMARK  1 active torsions:
REMARK  status: ('A' for Active; 'I' for Inactive)
REMARK    1  A    between atoms: N_4  and  C_12
REMARK                            x       y       z     vdW  Elec       q    Type
REMARK                         _______ _______ _______ _____ _____    ______ ____
ROOT
ATOM      1  F   UNL     1      -4.867  28.848  16.487  0.00  0.00    +0.000 F 
ATOM      2  O   UNL     1       0.488  28.886  17.398  0.00  0.00    +0.000 OA
ATOM      3  O   UNL     1      -3.743  27.983  18.935  0.00  0.00    +0.000 OA
ATOM      4  N   UNL     1      -1.310  29.070  15.871  0.00  0.00    +0.000 N 
ATOM      5  N   UNL     1      -1.637  28.367  18.089  0.00  0.00    +0.000 N 
ATOM      6  C   UNL     1      -0.701  28.790  17.116  0.00  0.00    +0.000 C 
ATOM      7  C   UNL     1      -2.646  28.907  15.787  0.00  0.00    +0.000 C 
ATOM      8  C   UNL     1      -3.568  28.529  16.606  0.00  0.00    +0.000 C 
ATOM      9  C   UNL     1      -3.029  28.259  17.978  0.00  0.00    +0.000 C 
ATOM     10  H   UNL     1      -1.253  28.192  19.007  0.00  0.00    +0.000 HD
ENDROOT
BRANCH   4  12
ATOM     11  O   UNL     1      -0.483  30.850  14.442  0.00  0.00    +0.000 OA
ATOM     12  C   UNL     1      -0.626  29.497  14.769  0.00  0.00    +0.000 C 
ATOM     13  C   UNL     1       0.038  28.727  13.776  0.00  0.00    +0.000 C 
ATOM     14  C   UNL     1       0.758  29.372  12.591  0.00  0.00    +0.000 C 
ATOM     15  C   UNL     1       0.229  30.596  13.336  0.00  0.00    +0.000 C 
ENDBRANCH   4  12
TORSDOF 1
ENDMDL
MODEL 7
REMARK VINA RESULT:      -4.0      1.878      2.298
REMARK  Name = 5386_Tegafur.pdbqt.pdb
REMARK  1 active torsions:
REMARK  status: ('A' for Active; 'I' for Inactive)
REMARK    1  A    between atoms: N_4  and  C_12
REMARK                            x       y       z     vdW  Elec       q    Type
REMARK                         _______ _______ _______ _____ _____    ______ ____
ROOT
ATOM      1  F   UNL     1      25.264  23.205  23.319  0.00  0.00    +0.000 F 
ATOM      2  O   UNL     1      22.026  21.814  27.452  0.00  0.00    +0.000 OA
ATOM      3  O   UNL     1      24.256  25.105  25.156  0.00  0.00    +0.000 OA
ATOM      4  N   UNL     1      23.082  21.226  25.418  0.00  0.00    +0.000 N 
ATOM      5  N   UNL     1      23.085  23.434  26.222  0.00  0.00    +0.000 N 
ATOM      6  C   UNL     1      22.667  22.102  26.448  0.00  0.00    +0.000 C 
ATOM      7  C   UNL     1      23.795  21.760  24.405  0.00  0.00    +0.000 C 
ATOM      8  C   UNL     1      24.215  22.945  24.115  0.00  0.00    +0.000 C 
ATOM      9  C   UNL     1      23.871  23.943  25.180  0.00  0.00    +0.000 C 
ATOM     10  H   UNL     1      22.844  24.090  26.952  0.00  0.00    +0.000 HD
ENDROOT
BRANCH   4  12
ATOM     11  O   UNL     1      21.589  19.371  24.946  0.00  0.00    +0.000 OA
ATOM     12  C   UNL     1      22.808  19.890  25.401  0.00  0.00    +0.000 C 
ATOM     13  C   UNL     1      23.625  18.804  25.814  0.00  0.00    +0.000 C 
ATOM     14  C   UNL     1      23.155  17.351  25.732  0.00  0.00    +0.000 C 
ATOM     15  C   UNL     1      21.943  18.102  25.185  0.00  0.00    +0.000 C 
ENDBRANCH   4  12
TORSDOF 1
ENDMDL
MODEL 8
REMARK VINA RESULT:      -3.8     29.751     30.693
REMARK  Name = 5386_Tegafur.pdbqt.pdb
REMARK  1 active torsions:
REMARK  status: ('A' for Active; 'I' for Inactive)
REMARK    1  A    between atoms: N_4  and  C_12
REMARK                            x       y       z     vdW  Elec       q    Type
REMARK                         _______ _______ _______ _____ _____    ______ ____
ROOT
ATOM      1  F   UNL     1       7.092  -0.843   5.962  0.00  0.00    +0.000 F 
ATOM      2  O   UNL     1      11.342   0.690   8.977  0.00  0.00    +0.000 OA
ATOM      3  O   UNL     1       8.697   1.387   5.290  0.00  0.00    +0.000 OA
ATOM      4  N   UNL     1       9.393  -0.630   8.745  0.00  0.00    +0.000 N 
ATOM      5  N   UNL     1       9.941   1.052   7.198  0.00  0.00    +0.000 N 
ATOM      6  C   UNL     1      10.315   0.380   8.386  0.00  0.00    +0.000 C 
ATOM      7  C   UNL     1       8.329  -0.810   7.936  0.00  0.00    +0.000 C 
ATOM      8  C   UNL     1       7.908  -0.254   6.851  0.00  0.00    +0.000 C 
ATOM      9  C   UNL     1       8.851   0.801   6.354  0.00  0.00    +0.000 C 
ATOM     10  H   UNL     1      10.590   1.757   6.880  0.00  0.00    +0.000 HD
ENDROOT
BRANCH   4  12
ATOM     11  O   UNL     1       9.360  -0.942  11.152  0.00  0.00    +0.000 OA
ATOM     12  C   UNL     1       9.526  -1.423   9.848  0.00  0.00    +0.000 C 
ATOM     13  C   UNL     1       9.848  -2.805   9.921  0.00  0.00    +0.000 C 
ATOM     14  C   UNL     1       9.965  -3.545  11.255  0.00  0.00    +0.000 C 
ATOM     15  C   UNL     1       9.615  -2.131  11.714  0.00  0.00    +0.000 C 
ENDBRANCH   4  12
TORSDOF 1
ENDMDL
MODEL 9
REMARK VINA RESULT:      -3.7      8.321     10.953
REMARK  Name = 5386_Tegafur.pdbqt.pdb
REMARK  1 active torsions:
REMARK  status: ('A' for Active; 'I' for Inactive)
REMARK    1  A    between atoms: N_4  and  C_12
REMARK                            x       y       z     vdW  Elec       q    Type
REMARK                         _______ _______ _______ _____ _____    ______ ____
ROOT
ATOM      1  F   UNL     1      25.091   8.958  29.005  0.00  0.00    +0.000 F 
ATOM      2  O   UNL     1      23.260  10.094  24.019  0.00  0.00    +0.000 OA
ATOM      3  O   UNL     1      23.841   7.014  27.373  0.00  0.00    +0.000 OA
ATOM      4  N   UNL     1      24.084  10.862  26.099  0.00  0.00    +0.000 N 
ATOM      5  N   UNL     1      23.492   8.614  25.755  0.00  0.00    +0.000 N 
ATOM      6  C   UNL     1      23.585   9.905  25.185  0.00  0.00    +0.000 C 
ATOM      7  C   UNL     1      24.393  10.428  27.338  0.00  0.00    +0.000 C 
ATOM      8  C   UNL     1      24.340   9.290  27.941  0.00  0.00    +0.000 C 
ATOM      9  C   UNL     1      23.874   8.191  27.035  0.00  0.00    +0.000 C 
ATOM     10  H   UNL     1      23.177   7.888  25.127  0.00  0.00    +0.000 HD
ENDROOT
BRANCH   4  12
ATOM     11  O   UNL     1      25.275  12.622  24.926  0.00  0.00    +0.000 OA
ATOM     12  C   UNL     1      24.270  12.179  25.794  0.00  0.00    +0.000 C 
ATOM     13  C   UNL     1      23.551  13.314  26.257  0.00  0.00    +0.000 C 
ATOM     14  C   UNL     1      23.900  14.736  25.815  0.00  0.00    +0.000 C 
ATOM     15  C   UNL     1      24.939  13.912  25.058  0.00  0.00    +0.000 C 
ENDBRANCH   4  12
TORSDOF 1
ENDMDL
