MODEL 1
REMARK VINA RESULT:      -5.5      0.000      0.000
REMARK  Name = 5470187_Zerumbone.pdbqt.pdb
REMARK  0 active torsions:
REMARK  status: ('A' for Active; 'I' for Inactive)
REMARK                            x       y       z     vdW  Elec       q    Type
REMARK                         _______ _______ _______ _____ _____    ______ ____
ROOT
ATOM      1  O   UNL     1      25.196  28.110   7.492  0.00  0.00    +0.000 OA
ATOM      2  C   UNL     1      20.647  29.518   6.398  0.00  0.00    +0.000 C 
ATOM      3  C   UNL     1      20.063  28.905   5.181  0.00  0.00    +0.000 C 
ATOM      4  C   UNL     1      19.793  29.155   7.637  0.00  0.00    +0.000 C 
ATOM      5  C   UNL     1      20.729  31.054   6.217  0.00  0.00    +0.000 C 
ATOM      6  C   UNL     1      22.026  28.948   6.540  0.00  0.00    +0.000 C 
ATOM      7  C   UNL     1      19.838  28.073   3.906  0.00  0.00    +0.000 C 
ATOM      8  C   UNL     1      20.056  27.241   2.931  0.00  0.00    +0.000 C 
ATOM      9  C   UNL     1      21.364  26.700   3.002  0.00  0.00    +0.000 C 
ATOM     10  C   UNL     1      22.762  26.467   3.579  0.00  0.00    +0.000 C 
ATOM     11  C   UNL     1      23.122  28.445   6.575  0.00  0.00    +0.000 C 
ATOM     12  C   UNL     1      18.936  26.432   2.365  0.00  0.00    +0.000 C 
ATOM     13  C   UNL     1      23.953  26.588   4.535  0.00  0.00    +0.000 C 
ATOM     14  C   UNL     1      24.815  26.849   5.474  0.00  0.00    +0.000 C 
ATOM     15  C   UNL     1      24.442  27.812   6.573  0.00  0.00    +0.000 C 
ATOM     16  C   UNL     1      26.157  26.163   5.384  0.00  0.00    +0.000 C 
ENDROOT
TORSDOF 0
ENDMDL
MODEL 2
REMARK VINA RESULT:      -5.2     27.188     29.986
REMARK  Name = 5470187_Zerumbone.pdbqt.pdb
REMARK  0 active torsions:
REMARK  status: ('A' for Active; 'I' for Inactive)
REMARK                            x       y       z     vdW  Elec       q    Type
REMARK                         _______ _______ _______ _____ _____    ______ ____
ROOT
ATOM      1  O   UNL     1       9.474  20.669  30.516  0.00  0.00    +0.000 OA
ATOM      2  C   UNL     1       7.335  24.771  28.944  0.00  0.00    +0.000 C 
ATOM      3  C   UNL     1       5.861  24.823  29.095  0.00  0.00    +0.000 C 
ATOM      4  C   UNL     1       7.991  25.916  29.753  0.00  0.00    +0.000 C 
ATOM      5  C   UNL     1       7.707  24.874  27.444  0.00  0.00    +0.000 C 
ATOM      6  C   UNL     1       7.771  23.444  29.486  0.00  0.00    +0.000 C 
ATOM      7  C   UNL     1       4.395  24.486  29.418  0.00  0.00    +0.000 C 
ATOM      8  C   UNL     1       3.350  23.835  29.837  0.00  0.00    +0.000 C 
ATOM      9  C   UNL     1       3.708  22.554  30.329  0.00  0.00    +0.000 C 
ATOM     10  C   UNL     1       4.641  21.403  30.713  0.00  0.00    +0.000 C 
ATOM     11  C   UNL     1       8.033  22.355  29.936  0.00  0.00    +0.000 C 
ATOM     12  C   UNL     1       2.188  24.568  30.421  0.00  0.00    +0.000 C 
ATOM     13  C   UNL     1       5.945  20.625  30.909  0.00  0.00    +0.000 C 
ATOM     14  C   UNL     1       7.162  20.169  30.978  0.00  0.00    +0.000 C 
ATOM     15  C   UNL     1       8.301  21.025  30.486  0.00  0.00    +0.000 C 
ATOM     16  C   UNL     1       7.344  18.782  31.545  0.00  0.00    +0.000 C 
ENDROOT
TORSDOF 0
ENDMDL
MODEL 3
REMARK VINA RESULT:      -5.1     28.540     30.683
REMARK  Name = 5470187_Zerumbone.pdbqt.pdb
REMARK  0 active torsions:
REMARK  status: ('A' for Active; 'I' for Inactive)
REMARK                            x       y       z     vdW  Elec       q    Type
REMARK                         _______ _______ _______ _____ _____    ______ ____
ROOT
ATOM      1  O   UNL     1       6.806  18.067  31.537  0.00  0.00    +0.000 OA
ATOM      2  C   UNL     1       9.874  14.269  31.350  0.00  0.00    +0.000 C 
ATOM      3  C   UNL     1      11.204  14.549  30.760  0.00  0.00    +0.000 C 
ATOM      4  C   UNL     1      10.033  13.794  32.814  0.00  0.00    +0.000 C 
ATOM      5  C   UNL     1       9.144  13.198  30.500  0.00  0.00    +0.000 C 
ATOM      6  C   UNL     1       9.111  15.558  31.309  0.00  0.00    +0.000 C 
ATOM      7  C   UNL     1      12.418  15.234  30.107  0.00  0.00    +0.000 C 
ATOM      8  C   UNL     1      13.169  16.154  29.578  0.00  0.00    +0.000 C 
ATOM      9  C   UNL     1      12.477  17.389  29.485  0.00  0.00    +0.000 C 
ATOM     10  C   UNL     1      11.314  18.368  29.660  0.00  0.00    +0.000 C 
ATOM     11  C   UNL     1       8.569  16.633  31.231  0.00  0.00    +0.000 C 
ATOM     12  C   UNL     1      14.648  16.134  29.786  0.00  0.00    +0.000 C 
ATOM     13  C   UNL     1       9.931  18.886  30.064  0.00  0.00    +0.000 C 
ATOM     14  C   UNL     1       8.719  19.093  30.489  0.00  0.00    +0.000 C 
ATOM     15  C   UNL     1       7.950  17.955  31.112  0.00  0.00    +0.000 C 
ATOM     16  C   UNL     1       8.156  20.483  30.312  0.00  0.00    +0.000 C 
ENDROOT
TORSDOF 0
ENDMDL
MODEL 4
REMARK VINA RESULT:      -4.9     28.761     31.286
REMARK  Name = 5470187_Zerumbone.pdbqt.pdb
REMARK  0 active torsions:
REMARK  status: ('A' for Active; 'I' for Inactive)
REMARK                            x       y       z     vdW  Elec       q    Type
REMARK                         _______ _______ _______ _____ _____    ______ ____
ROOT
ATOM      1  O   UNL     1       5.411  18.416  32.297  0.00  0.00    +0.000 OA
ATOM      2  C   UNL     1       8.118  14.545  31.049  0.00  0.00    +0.000 C 
ATOM      3  C   UNL     1       9.387  14.851  30.347  0.00  0.00    +0.000 C 
ATOM      4  C   UNL     1       8.411  13.801  32.374  0.00  0.00    +0.000 C 
ATOM      5  C   UNL     1       7.209  13.693  30.128  0.00  0.00    +0.000 C 
ATOM      6  C   UNL     1       7.462  15.862  31.333  0.00  0.00    +0.000 C 
ATOM      7  C   UNL     1      10.567  15.572  29.670  0.00  0.00    +0.000 C 
ATOM      8  C   UNL     1      11.321  16.528  29.216  0.00  0.00    +0.000 C 
ATOM      9  C   UNL     1      10.725  17.797  29.432  0.00  0.00    +0.000 C 
ATOM     10  C   UNL     1       9.674  18.793  29.926  0.00  0.00    +0.000 C 
ATOM     11  C   UNL     1       7.003  16.963  31.517  0.00  0.00    +0.000 C 
ATOM     12  C   UNL     1      12.807  16.384  29.221  0.00  0.00    +0.000 C 
ATOM     13  C   UNL     1       8.395  19.309  30.592  0.00  0.00    +0.000 C 
ATOM     14  C   UNL     1       7.263  19.504  31.202  0.00  0.00    +0.000 C 
ATOM     15  C   UNL     1       6.484  18.318  31.713  0.00  0.00    +0.000 C 
ATOM     16  C   UNL     1       6.798  20.933  31.346  0.00  0.00    +0.000 C 
ENDROOT
TORSDOF 0
ENDMDL
MODEL 5
REMARK VINA RESULT:      -4.9     21.298     24.054
REMARK  Name = 5470187_Zerumbone.pdbqt.pdb
REMARK  0 active torsions:
REMARK  status: ('A' for Active; 'I' for Inactive)
REMARK                            x       y       z     vdW  Elec       q    Type
REMARK                         _______ _______ _______ _____ _____    ______ ____
ROOT
ATOM      1  O   UNL     1      -1.604  17.826   5.334  0.00  0.00    +0.000 OA
ATOM      2  C   UNL     1       1.704  15.204   7.795  0.00  0.00    +0.000 C 
ATOM      3  C   UNL     1       2.927  14.844   7.038  0.00  0.00    +0.000 C 
ATOM      4  C   UNL     1       2.077  16.062   9.028  0.00  0.00    +0.000 C 
ATOM      5  C   UNL     1       0.962  13.915   8.226  0.00  0.00    +0.000 C 
ATOM      6  C   UNL     1       0.844  15.997   6.859  0.00  0.00    +0.000 C 
ATOM      7  C   UNL     1       3.995  14.689   5.942  0.00  0.00    +0.000 C 
ATOM      8  C   UNL     1       4.602  14.797   4.797  0.00  0.00    +0.000 C 
ATOM      9  C   UNL     1       3.810  15.513   3.863  0.00  0.00    +0.000 C 
ATOM     10  C   UNL     1       2.605  16.307   3.356  0.00  0.00    +0.000 C 
ATOM     11  C   UNL     1       0.214  16.621   6.040  0.00  0.00    +0.000 C 
ATOM     12  C   UNL     1       6.092  14.876   4.737  0.00  0.00    +0.000 C 
ATOM     13  C   UNL     1       1.245  17.011   3.378  0.00  0.00    +0.000 C 
ATOM     14  C   UNL     1       0.081  17.532   3.636  0.00  0.00    +0.000 C 
ATOM     15  C   UNL     1      -0.515  17.366   5.012  0.00  0.00    +0.000 C 
ATOM     16  C   UNL     1      -0.605  18.271   2.512  0.00  0.00    +0.000 C 
ENDROOT
TORSDOF 0
ENDMDL
MODEL 6
REMARK VINA RESULT:      -4.9      1.856      4.974
REMARK  Name = 5470187_Zerumbone.pdbqt.pdb
REMARK  0 active torsions:
REMARK  status: ('A' for Active; 'I' for Inactive)
REMARK                            x       y       z     vdW  Elec       q    Type
REMARK                         _______ _______ _______ _____ _____    ______ ____
ROOT
ATOM      1  O   UNL     1      21.972  29.877   7.449  0.00  0.00    +0.000 OA
ATOM      2  C   UNL     1      25.865  27.016   6.721  0.00  0.00    +0.000 C 
ATOM      3  C   UNL     1      25.798  26.135   5.531  0.00  0.00    +0.000 C 
ATOM      4  C   UNL     1      27.070  27.980   6.599  0.00  0.00    +0.000 C 
ATOM      5  C   UNL     1      25.979  26.151   8.001  0.00  0.00    +0.000 C 
ATOM      6  C   UNL     1      24.585  27.794   6.746  0.00  0.00    +0.000 C 
ATOM      7  C   UNL     1      25.346  25.410   4.251  0.00  0.00    +0.000 C 
ATOM      8  C   UNL     1      24.618  25.060   3.233  0.00  0.00    +0.000 C 
ATOM      9  C   UNL     1      23.376  25.746   3.231  0.00  0.00    +0.000 C 
ATOM     10  C   UNL     1      22.311  26.730   3.718  0.00  0.00    +0.000 C 
ATOM     11  C   UNL     1      23.527  28.372   6.692  0.00  0.00    +0.000 C 
ATOM     12  C   UNL     1      25.261  24.664   1.945  0.00  0.00    +0.000 C 
ATOM     13  C   UNL     1      21.645  27.800   4.588  0.00  0.00    +0.000 C 
ATOM     14  C   UNL     1      21.290  28.698   5.461  0.00  0.00    +0.000 C 
ATOM     15  C   UNL     1      22.231  29.045   6.587  0.00  0.00    +0.000 C 
ATOM     16  C   UNL     1      19.930  29.328   5.284  0.00  0.00    +0.000 C 
ENDROOT
TORSDOF 0
ENDMDL
MODEL 7
REMARK VINA RESULT:      -4.8     31.732     32.714
REMARK  Name = 5470187_Zerumbone.pdbqt.pdb
REMARK  0 active torsions:
REMARK  status: ('A' for Active; 'I' for Inactive)
REMARK                            x       y       z     vdW  Elec       q    Type
REMARK                         _______ _______ _______ _____ _____    ______ ____
ROOT
ATOM      1  O   UNL     1      17.184  -2.686  20.346  0.00  0.00    +0.000 OA
ATOM      2  C   UNL     1      16.652  -3.914  15.646  0.00  0.00    +0.000 C 
ATOM      3  C   UNL     1      17.467  -3.134  14.685  0.00  0.00    +0.000 C 
ATOM      4  C   UNL     1      17.027  -5.413  15.566  0.00  0.00    +0.000 C 
ATOM      5  C   UNL     1      15.148  -3.705  15.340  0.00  0.00    +0.000 C 
ATOM      6  C   UNL     1      16.972  -3.377  17.008  0.00  0.00    +0.000 C 
ATOM      7  C   UNL     1      18.444  -2.131  14.047  0.00  0.00    +0.000 C 
ATOM      8  C   UNL     1      19.321  -1.178  13.931  0.00  0.00    +0.000 C 
ATOM      9  C   UNL     1      19.632  -0.612  15.194  0.00  0.00    +0.000 C 
ATOM     10  C   UNL     1      19.577  -0.444  16.713  0.00  0.00    +0.000 C 
ATOM     11  C   UNL     1      17.284  -2.881  18.063  0.00  0.00    +0.000 C 
ATOM     12  C   UNL     1      20.353  -1.228  12.853  0.00  0.00    +0.000 C 
ATOM     13  C   UNL     1      19.170  -0.706  18.167  0.00  0.00    +0.000 C 
ATOM     14  C   UNL     1      18.682  -1.110  19.303  0.00  0.00    +0.000 C 
ATOM     15  C   UNL     1      17.690  -2.247  19.319  0.00  0.00    +0.000 C 
ATOM     16  C   UNL     1      19.145  -0.388  20.545  0.00  0.00    +0.000 C 
ENDROOT
TORSDOF 0
ENDMDL
MODEL 8
REMARK VINA RESULT:      -4.7     31.024     32.420
REMARK  Name = 5470187_Zerumbone.pdbqt.pdb
REMARK  0 active torsions:
REMARK  status: ('A' for Active; 'I' for Inactive)
REMARK                            x       y       z     vdW  Elec       q    Type
REMARK                         _______ _______ _______ _____ _____    ______ ____
ROOT
ATOM      1  O   UNL     1       1.116   8.550  22.251  0.00  0.00    +0.000 OA
ATOM      2  C   UNL     1      -1.164  12.792  21.423  0.00  0.00    +0.000 C 
ATOM      3  C   UNL     1      -0.812  13.898  22.344  0.00  0.00    +0.000 C 
ATOM      4  C   UNL     1      -0.803  13.178  19.969  0.00  0.00    +0.000 C 
ATOM      5  C   UNL     1      -2.675  12.472  21.549  0.00  0.00    +0.000 C 
ATOM      6  C   UNL     1      -0.356  11.606  21.855  0.00  0.00    +0.000 C 
ATOM      7  C   UNL     1      -0.192  14.745  23.471  0.00  0.00    +0.000 C 
ATOM      8  C   UNL     1       0.539  15.080  24.491  0.00  0.00    +0.000 C 
ATOM      9  C   UNL     1       1.300  13.978  24.961  0.00  0.00    +0.000 C 
ATOM     10  C   UNL     1       1.835  12.545  24.984  0.00  0.00    +0.000 C 
ATOM     11  C   UNL     1       0.326  10.703  22.273  0.00  0.00    +0.000 C 
ATOM     12  C   UNL     1       1.072  16.469  24.615  0.00  0.00    +0.000 C 
ATOM     13  C   UNL     1       2.034  11.086  24.561  0.00  0.00    +0.000 C 
ATOM     14  C   UNL     1       2.039   9.903  24.020  0.00  0.00    +0.000 C 
ATOM     15  C   UNL     1       1.168   9.636  22.818  0.00  0.00    +0.000 C 
ATOM     16  C   UNL     1       2.926   8.860  24.657  0.00  0.00    +0.000 C 
ENDROOT
TORSDOF 0
ENDMDL
MODEL 9
REMARK VINA RESULT:      -4.7      2.258      4.577
REMARK  Name = 5470187_Zerumbone.pdbqt.pdb
REMARK  0 active torsions:
REMARK  status: ('A' for Active; 'I' for Inactive)
REMARK                            x       y       z     vdW  Elec       q    Type
REMARK                         _______ _______ _______ _____ _____    ______ ____
ROOT
ATOM      1  O   UNL     1      23.605  24.317   2.019  0.00  0.00    +0.000 OA
ATOM      2  C   UNL     1      19.184  26.398   2.018  0.00  0.00    +0.000 C 
ATOM      3  C   UNL     1      18.982  27.472   3.020  0.00  0.00    +0.000 C 
ATOM      4  C   UNL     1      18.994  26.963   0.590  0.00  0.00    +0.000 C 
ATOM      5  C   UNL     1      18.190  25.242   2.290  0.00  0.00    +0.000 C 
ATOM      6  C   UNL     1      20.590  25.912   2.195  0.00  0.00    +0.000 C 
ATOM      7  C   UNL     1      19.179  28.490   4.158  0.00  0.00    +0.000 C 
ATOM      8  C   UNL     1      19.744  29.166   5.114  0.00  0.00    +0.000 C 
ATOM      9  C   UNL     1      21.071  28.718   5.343  0.00  0.00    +0.000 C 
ATOM     10  C   UNL     1      22.333  27.882   5.120  0.00  0.00    +0.000 C 
ATOM     11  C   UNL     1      21.730  25.579   2.408  0.00  0.00    +0.000 C 
ATOM     12  C   UNL     1      19.383  30.596   5.343  0.00  0.00    +0.000 C 
ATOM     13  C   UNL     1      23.264  26.838   4.496  0.00  0.00    +0.000 C 
ATOM     14  C   UNL     1      23.862  25.904   3.815  0.00  0.00    +0.000 C 
ATOM     15  C   UNL     1      23.114  25.206   2.706  0.00  0.00    +0.000 C 
ATOM     16  C   UNL     1      25.283  25.575   4.201  0.00  0.00    +0.000 C 
ENDROOT
TORSDOF 0
ENDMDL
