MODEL 1
REMARK VINA RESULT:      -5.5      0.000      0.000
REMARK  Name = 5azacytidine.pdbqt.pdb
REMARK  5 active torsions:
REMARK  status: ('A' for Active; 'I' for Inactive)
REMARK    1  A    between atoms: C2*_2  and  O2*_16
REMARK    2  A    between atoms: C3*_3  and  O3*_21
REMARK    3  A    between atoms: C4*_4  and  C5*_18
REMARK    4  A    between atoms: C1*_5  and  N_6
REMARK    5  A    between atoms: C5*_18  and  O5*_19
REMARK                            x       y       z     vdW  Elec       q    Type
REMARK                         _______ _______ _______ _____ _____    ______ ____
ROOT
ATOM      1  O4* UNL     1      23.673  24.803  25.136  0.00  0.00    +0.000 OA
ATOM      2  C2* UNL     1      25.145  24.055  23.526  0.00  0.00    +0.000 A 
ATOM      3  C3* UNL     1      25.031  25.477  23.407  0.00  0.00    +0.000 A 
ATOM      4  C4* UNL     1      24.121  25.927  24.422  0.00  0.00    +0.000 A 
ATOM      5  C1* UNL     1      24.272  23.643  24.598  0.00  0.00    +0.000 A 
ENDROOT
BRANCH   5   6
ATOM      6  N   UNL     1      23.958  22.403  25.068  0.00  0.00    +0.000 N 
ATOM      7  C   UNL     1      23.343  21.369  24.373  0.00  0.00    +0.000 A 
ATOM      8  O   UNL     1      22.962  21.464  23.209  0.00  0.00    +0.000 OA
ATOM      9  N   UNL     1      23.164  20.195  25.101  0.00  0.00    +0.000 NA
ATOM     10  C   UNL     1      23.558  20.119  26.348  0.00  0.00    +0.000 A 
ATOM     11  N   UNL     1      24.143  21.163  27.043  0.00  0.00    +0.000 NA
ATOM     12  C   UNL     1      24.249  22.076  26.325  0.00  0.00    +0.000 A 
ATOM     13  N   UNL     1      23.366  18.954  27.016  0.00  0.00    +0.000 N 
ATOM     14  H   UNL     1      23.297  19.054  28.020  0.00  0.00    +0.000 HD
ATOM     15  H   UNL     1      22.662  18.358  26.598  0.00  0.00    +0.000 HD
ENDBRANCH   5   6
BRANCH   2  16
ATOM     16  O2* UNL     1      25.440  23.304  22.421  0.00  0.00    +0.000 OA
ATOM     17  H2* UNL     1      25.749  22.403  22.661  0.00  0.00    +0.000 HD
ENDBRANCH   2  16
BRANCH   3  18
ATOM     18  O3* UNL     1      25.135  26.094  22.192  0.00  0.00    +0.000 OA
ATOM     19  H3* UNL     1      25.276  25.429  21.493  0.00  0.00    +0.000 HD
ENDBRANCH   3  18
BRANCH   4  20
ATOM     20  C5* UNL     1      23.495  27.184  24.520  0.00  0.00    +0.000 C 
BRANCH  20  21
ATOM     21  O5* UNL     1      22.911  28.375  24.607  0.00  0.00    +0.000 OA
ATOM     22  H5* UNL     1      22.332  28.405  25.388  0.00  0.00    +0.000 HD
ENDBRANCH  20  21
ENDBRANCH   4  20
TORSDOF 5
ENDMDL
MODEL 2
REMARK VINA RESULT:      -5.3     26.633     27.632
REMARK  Name = 5azacytidine.pdbqt.pdb
REMARK  5 active torsions:
REMARK  status: ('A' for Active; 'I' for Inactive)
REMARK    1  A    between atoms: C2*_2  and  O2*_16
REMARK    2  A    between atoms: C3*_3  and  O3*_21
REMARK    3  A    between atoms: C4*_4  and  C5*_18
REMARK    4  A    between atoms: C1*_5  and  N_6
REMARK    5  A    between atoms: C5*_18  and  O5*_19
REMARK                            x       y       z     vdW  Elec       q    Type
REMARK                         _______ _______ _______ _____ _____    ______ ____
ROOT
ATOM      1  O4* UNL     1      -1.733  27.260  15.614  0.00  0.00    +0.000 OA
ATOM      2  C2* UNL     1      -0.135  28.548  16.666  0.00  0.00    +0.000 A 
ATOM      3  C3* UNL     1       0.461  27.940  15.516  0.00  0.00    +0.000 A 
ATOM      4  C4* UNL     1      -0.548  27.152  14.867  0.00  0.00    +0.000 A 
ATOM      5  C1* UNL     1      -1.503  28.095  16.729  0.00  0.00    +0.000 A 
ENDROOT
BRANCH   5   6
ATOM      6  N   UNL     1      -2.476  28.318  17.657  0.00  0.00    +0.000 N 
ATOM      7  C   UNL     1      -3.273  29.449  17.789  0.00  0.00    +0.000 A 
ATOM      8  O   UNL     1      -3.168  30.441  17.071  0.00  0.00    +0.000 OA
ATOM      9  N   UNL     1      -4.206  29.394  18.820  0.00  0.00    +0.000 NA
ATOM     10  C   UNL     1      -4.289  28.337  19.587  0.00  0.00    +0.000 A 
ATOM     11  N   UNL     1      -3.472  27.225  19.470  0.00  0.00    +0.000 NA
ATOM     12  C   UNL     1      -2.750  27.388  18.569  0.00  0.00    +0.000 A 
ATOM     13  N   UNL     1      -5.217  28.327  20.578  0.00  0.00    +0.000 N 
ATOM     14  H   UNL     1      -4.990  27.725  21.358  0.00  0.00    +0.000 HD
ATOM     15  H   UNL     1      -5.546  29.251  20.833  0.00  0.00    +0.000 HD
ENDBRANCH   5   6
BRANCH   2  16
ATOM     16  O2* UNL     1       0.642  28.853  17.750  0.00  0.00    +0.000 OA
ATOM     17  H2* UNL     1       0.109  28.941  18.570  0.00  0.00    +0.000 HD
ENDBRANCH   2  16
BRANCH   3  18
ATOM     18  O3* UNL     1       1.782  27.586  15.508  0.00  0.00    +0.000 OA
ATOM     19  H3* UNL     1       2.282  28.187  14.926  0.00  0.00    +0.000 HD
ENDBRANCH   3  18
BRANCH   4  20
ATOM     20  C5* UNL     1      -0.368  26.171  13.874  0.00  0.00    +0.000 C 
BRANCH  20  21
ATOM     21  O5* UNL     1      -0.188  25.247  12.934  0.00  0.00    +0.000 OA
ATOM     22  H5* UNL     1       0.199  24.445  13.326  0.00  0.00    +0.000 HD
ENDBRANCH  20  21
ENDBRANCH   4  20
TORSDOF 5
ENDMDL
MODEL 3
REMARK VINA RESULT:      -5.2     16.214     16.911
REMARK  Name = 5azacytidine.pdbqt.pdb
REMARK  5 active torsions:
REMARK  status: ('A' for Active; 'I' for Inactive)
REMARK    1  A    between atoms: C2*_2  and  O2*_16
REMARK    2  A    between atoms: C3*_3  and  O3*_21
REMARK    3  A    between atoms: C4*_4  and  C5*_18
REMARK    4  A    between atoms: C1*_5  and  N_6
REMARK    5  A    between atoms: C5*_18  and  O5*_19
REMARK                            x       y       z     vdW  Elec       q    Type
REMARK                         _______ _______ _______ _____ _____    ______ ____
ROOT
ATOM      1  O4* UNL     1       8.925  26.464  29.039  0.00  0.00    +0.000 OA
ATOM      2  C2* UNL     1       8.443  25.735  26.905  0.00  0.00    +0.000 A 
ATOM      3  C3* UNL     1       9.375  26.818  26.813  0.00  0.00    +0.000 A 
ATOM      4  C4* UNL     1       9.673  27.252  28.147  0.00  0.00    +0.000 A 
ATOM      5  C1* UNL     1       8.153  25.539  28.304  0.00  0.00    +0.000 A 
ENDROOT
BRANCH   5   6
ATOM      6  N   UNL     1       7.284  24.693  28.926  0.00  0.00    +0.000 N 
ATOM      7  C   UNL     1       7.581  23.487  29.549  0.00  0.00    +0.000 A 
ATOM      8  O   UNL     1       8.710  23.003  29.588  0.00  0.00    +0.000 OA
ATOM      9  N   UNL     1       6.492  22.838  30.125  0.00  0.00    +0.000 NA
ATOM     10  C   UNL     1       5.294  23.360  30.055  0.00  0.00    +0.000 A 
ATOM     11  N   UNL     1       4.999  24.546  29.407  0.00  0.00    +0.000 NA
ATOM     12  C   UNL     1       5.988  24.994  28.983  0.00  0.00    +0.000 A 
ATOM     13  N   UNL     1       4.264  22.692  30.634  0.00  0.00    +0.000 N 
ATOM     14  H   UNL     1       3.358  22.888  30.230  0.00  0.00    +0.000 HD
ATOM     15  H   UNL     1       4.456  21.710  30.794  0.00  0.00    +0.000 HD
ENDBRANCH   5   6
BRANCH   2  16
ATOM     16  O2* UNL     1       7.566  25.508  25.881  0.00  0.00    +0.000 OA
ATOM     17  H2* UNL     1       7.791  26.032  25.081  0.00  0.00    +0.000 HD
ENDBRANCH   2  16
BRANCH   3  18
ATOM     18  O3* UNL     1       9.354  27.680  25.751  0.00  0.00    +0.000 OA
ATOM     19  H3* UNL     1       9.887  28.471  25.957  0.00  0.00    +0.000 HD
ENDBRANCH   3  18
BRANCH   4  20
ATOM     20  C5* UNL     1      10.311  28.442  28.544  0.00  0.00    +0.000 C 
BRANCH  20  21
ATOM     21  O5* UNL     1      10.916  29.563  28.927  0.00  0.00    +0.000 OA
ATOM     22  H5* UNL     1      11.771  29.652  28.472  0.00  0.00    +0.000 HD
ENDBRANCH  20  21
ENDBRANCH   4  20
TORSDOF 5
ENDMDL
MODEL 4
REMARK VINA RESULT:      -5.0     12.770     15.098
REMARK  Name = 5azacytidine.pdbqt.pdb
REMARK  5 active torsions:
REMARK  status: ('A' for Active; 'I' for Inactive)
REMARK    1  A    between atoms: C2*_2  and  O2*_16
REMARK    2  A    between atoms: C3*_3  and  O3*_21
REMARK    3  A    between atoms: C4*_4  and  C5*_18
REMARK    4  A    between atoms: C1*_5  and  N_6
REMARK    5  A    between atoms: C5*_18  and  O5*_19
REMARK                            x       y       z     vdW  Elec       q    Type
REMARK                         _______ _______ _______ _____ _____    ______ ____
ROOT
ATOM      1  O4* UNL     1      12.118  15.611  31.109  0.00  0.00    +0.000 OA
ATOM      2  C2* UNL     1      13.565  15.232  29.353  0.00  0.00    +0.000 A 
ATOM      3  C3* UNL     1      12.944  13.991  29.703  0.00  0.00    +0.000 A 
ATOM      4  C4* UNL     1      12.040  14.245  30.787  0.00  0.00    +0.000 A 
ATOM      5  C1* UNL     1      13.056  16.234  30.257  0.00  0.00    +0.000 A 
ENDROOT
BRANCH   5   6
ATOM      6  N   UNL     1      13.372  17.552  30.399  0.00  0.00    +0.000 N 
ATOM      7  C   UNL     1      14.345  18.102  31.224  0.00  0.00    +0.000 A 
ATOM      8  O   UNL     1      15.047  17.438  31.984  0.00  0.00    +0.000 OA
ATOM      9  N   UNL     1      14.466  19.488  31.150  0.00  0.00    +0.000 NA
ATOM     10  C   UNL     1      13.696  20.180  30.349  0.00  0.00    +0.000 A 
ATOM     11  N   UNL     1      12.708  19.629  29.552  0.00  0.00    +0.000 NA
ATOM     12  C   UNL     1      12.717  18.472  29.694  0.00  0.00    +0.000 A 
ATOM     13  N   UNL     1      13.853  21.528  30.307  0.00  0.00    +0.000 N 
ATOM     14  H   UNL     1      13.027  22.037  30.024  0.00  0.00    +0.000 HD
ATOM     15  H   UNL     1      14.330  21.906  31.118  0.00  0.00    +0.000 HD
ENDBRANCH   5   6
BRANCH   2  16
ATOM     16  O2* UNL     1      14.819  15.232  28.806  0.00  0.00    +0.000 OA
ATOM     17  H2* UNL     1      14.987  14.423  28.274  0.00  0.00    +0.000 HD
ENDBRANCH   2  16
BRANCH   3  18
ATOM     18  O3* UNL     1      13.612  12.805  29.571  0.00  0.00    +0.000 OA
ATOM     19  H3* UNL     1      12.980  12.063  29.606  0.00  0.00    +0.000 HD
ENDBRANCH   3  18
BRANCH   4  20
ATOM     20  C5* UNL     1      11.423  13.304  31.633  0.00  0.00    +0.000 C 
BRANCH  20  21
ATOM     21  O5* UNL     1      10.832  12.422  32.434  0.00  0.00    +0.000 OA
ATOM     22  H5* UNL     1      11.451  11.704  32.652  0.00  0.00    +0.000 HD
ENDBRANCH  20  21
ENDBRANCH   4  20
TORSDOF 5
ENDMDL
MODEL 5
REMARK VINA RESULT:      -5.0     12.365     14.031
REMARK  Name = 5azacytidine.pdbqt.pdb
REMARK  5 active torsions:
REMARK  status: ('A' for Active; 'I' for Inactive)
REMARK    1  A    between atoms: C2*_2  and  O2*_16
REMARK    2  A    between atoms: C3*_3  and  O3*_21
REMARK    3  A    between atoms: C4*_4  and  C5*_18
REMARK    4  A    between atoms: C1*_5  and  N_6
REMARK    5  A    between atoms: C5*_18  and  O5*_19
REMARK                            x       y       z     vdW  Elec       q    Type
REMARK                         _______ _______ _______ _____ _____    ______ ____
ROOT
ATOM      1  O4* UNL     1      12.307  17.324  30.127  0.00  0.00    +0.000 OA
ATOM      2  C2* UNL     1      14.367  16.587  29.400  0.00  0.00    +0.000 A 
ATOM      3  C3* UNL     1      13.375  15.651  28.967  0.00  0.00    +0.000 A 
ATOM      4  C4* UNL     1      12.099  16.129  29.418  0.00  0.00    +0.000 A 
ATOM      5  C1* UNL     1      13.687  17.618  30.145  0.00  0.00    +0.000 A 
ENDROOT
BRANCH   5   6
ATOM      6  N   UNL     1      14.171  18.696  30.825  0.00  0.00    +0.000 N 
ATOM      7  C   UNL     1      15.018  18.687  31.927  0.00  0.00    +0.000 A 
ATOM      8  O   UNL     1      15.423  17.658  32.464  0.00  0.00    +0.000 OA
ATOM      9  N   UNL     1      15.372  19.945  32.408  0.00  0.00    +0.000 NA
ATOM     10  C   UNL     1      14.914  21.029  31.834  0.00  0.00    +0.000 A 
ATOM     11  N   UNL     1      14.047  21.031  30.755  0.00  0.00    +0.000 NA
ATOM     12  C   UNL     1      13.840  19.927  30.442  0.00  0.00    +0.000 A 
ATOM     13  N   UNL     1      15.289  22.233  32.335  0.00  0.00    +0.000 N 
ATOM     14  H   UNL     1      14.636  22.983  32.155  0.00  0.00    +0.000 HD
ATOM     15  H   UNL     1      15.633  22.186  33.287  0.00  0.00    +0.000 HD
ENDBRANCH   5   6
BRANCH   2  16
ATOM     16  O2* UNL     1      15.644  16.159  29.637  0.00  0.00    +0.000 OA
ATOM     17  H2* UNL     1      16.251  16.905  29.837  0.00  0.00    +0.000 HD
ENDBRANCH   2  16
BRANCH   3  18
ATOM     18  O3* UNL     1      13.660  14.318  28.861  0.00  0.00    +0.000 OA
ATOM     19  H3* UNL     1      12.937  13.793  29.254  0.00  0.00    +0.000 HD
ENDBRANCH   3  18
BRANCH   4  20
ATOM     20  C5* UNL     1      10.883  15.421  29.471  0.00  0.00    +0.000 C 
BRANCH  20  21
ATOM     21  O5* UNL     1       9.741  14.743  29.521  0.00  0.00    +0.000 OA
ATOM     22  H5* UNL     1       9.893  13.815  29.271  0.00  0.00    +0.000 HD
ENDBRANCH  20  21
ENDBRANCH   4  20
TORSDOF 5
ENDMDL
MODEL 6
REMARK VINA RESULT:      -4.6     27.198     28.292
REMARK  Name = 5azacytidine.pdbqt.pdb
REMARK  5 active torsions:
REMARK  status: ('A' for Active; 'I' for Inactive)
REMARK    1  A    between atoms: C2*_2  and  O2*_16
REMARK    2  A    between atoms: C3*_3  and  O3*_21
REMARK    3  A    between atoms: C4*_4  and  C5*_18
REMARK    4  A    between atoms: C1*_5  and  N_6
REMARK    5  A    between atoms: C5*_18  and  O5*_19
REMARK                            x       y       z     vdW  Elec       q    Type
REMARK                         _______ _______ _______ _____ _____    ______ ____
ROOT
ATOM      1  O4* UNL     1      -3.660  29.446  17.290  0.00  0.00    +0.000 OA
ATOM      2  C2* UNL     1      -3.344  27.781  18.855  0.00  0.00    +0.000 A 
ATOM      3  C3* UNL     1      -4.331  28.689  19.355  0.00  0.00    +0.000 A 
ATOM      4  C4* UNL     1      -4.524  29.711  18.366  0.00  0.00    +0.000 A 
ATOM      5  C1* UNL     1      -2.915  28.280  17.571  0.00  0.00    +0.000 A 
ENDROOT
BRANCH   5   6
ATOM      6  N   UNL     1      -1.953  27.834  16.715  0.00  0.00    +0.000 N 
ATOM      7  C   UNL     1      -0.627  28.245  16.648  0.00  0.00    +0.000 A 
ATOM      8  O   UNL     1      -0.152  29.124  17.364  0.00  0.00    +0.000 OA
ATOM      9  N   UNL     1       0.142  27.598  15.685  0.00  0.00    +0.000 NA
ATOM     10  C   UNL     1      -0.387  26.678  14.918  0.00  0.00    +0.000 A 
ATOM     11  N   UNL     1      -1.716  26.294  14.970  0.00  0.00    +0.000 NA
ATOM     12  C   UNL     1      -2.244  26.894  15.818  0.00  0.00    +0.000 A 
ATOM     13  N   UNL     1       0.402  26.072  13.997  0.00  0.00    +0.000 N 
ATOM     14  H   UNL     1      -0.095  25.701  13.198  0.00  0.00    +0.000 HD
ATOM     15  H   UNL     1       1.239  26.597  13.772  0.00  0.00    +0.000 HD
ENDBRANCH   5   6
BRANCH   2  16
ATOM     16  O2* UNL     1      -2.555  27.088  19.732  0.00  0.00    +0.000 OA
ATOM     17  H2* UNL     1      -1.874  27.663  20.146  0.00  0.00    +0.000 HD
ENDBRANCH   2  16
BRANCH   3  18
ATOM     18  O3* UNL     1      -4.450  28.936  20.694  0.00  0.00    +0.000 OA
ATOM     19  H3* UNL     1      -3.919  29.719  20.934  0.00  0.00    +0.000 HD
ENDBRANCH   3  18
BRANCH   4  20
ATOM     20  C5* UNL     1      -5.179  30.947  18.522  0.00  0.00    +0.000 C 
BRANCH  20  21
ATOM     21  O5* UNL     1      -5.790  32.118  18.675  0.00  0.00    +0.000 OA
ATOM     22  H5* UNL     1      -5.139  32.807  18.894  0.00  0.00    +0.000 HD
ENDBRANCH  20  21
ENDBRANCH   4  20
TORSDOF 5
ENDMDL
MODEL 7
REMARK VINA RESULT:      -4.5     20.118     21.096
REMARK  Name = 5azacytidine.pdbqt.pdb
REMARK  5 active torsions:
REMARK  status: ('A' for Active; 'I' for Inactive)
REMARK    1  A    between atoms: C2*_2  and  O2*_16
REMARK    2  A    between atoms: C3*_3  and  O3*_21
REMARK    3  A    between atoms: C4*_4  and  C5*_18
REMARK    4  A    between atoms: C1*_5  and  N_6
REMARK    5  A    between atoms: C5*_18  and  O5*_19
REMARK                            x       y       z     vdW  Elec       q    Type
REMARK                         _______ _______ _______ _____ _____    ______ ____
ROOT
ATOM      1  O4* UNL     1      20.650   3.478  25.810  0.00  0.00    +0.000 OA
ATOM      2  C2* UNL     1      19.169   2.117  26.938  0.00  0.00    +0.000 A 
ATOM      3  C3* UNL     1      18.674   2.319  25.610  0.00  0.00    +0.000 A 
ATOM      4  C4* UNL     1      19.611   3.158  24.919  0.00  0.00    +0.000 A 
ATOM      5  C1* UNL     1      20.395   2.867  27.056  0.00  0.00    +0.000 A 
ENDROOT
BRANCH   5   6
ATOM      6  N   UNL     1      21.219   3.069  28.123  0.00  0.00    +0.000 N 
ATOM      7  C   UNL     1      20.878   3.593  29.364  0.00  0.00    +0.000 A 
ATOM      8  O   UNL     1      19.749   3.985  29.650  0.00  0.00    +0.000 OA
ATOM      9  N   UNL     1      21.924   3.666  30.280  0.00  0.00    +0.000 NA
ATOM     10  C   UNL     1      23.126   3.262  29.951  0.00  0.00    +0.000 A 
ATOM     11  N   UNL     1      23.465   2.769  28.703  0.00  0.00    +0.000 NA
ATOM     12  C   UNL     1      22.507   2.747  28.039  0.00  0.00    +0.000 A 
ATOM     13  N   UNL     1      24.113   3.349  30.878  0.00  0.00    +0.000 N 
ATOM     14  H   UNL     1      25.045   3.423  30.491  0.00  0.00    +0.000 HD
ATOM     15  H   UNL     1      23.909   4.000  31.627  0.00  0.00    +0.000 HD
ENDBRANCH   5   6
BRANCH   2  16
ATOM     16  O2* UNL     1      18.290   1.881  27.959  0.00  0.00    +0.000 OA
ATOM     17  H2* UNL     1      17.810   1.032  27.842  0.00  0.00    +0.000 HD
ENDBRANCH   2  16
BRANCH   3  18
ATOM     18  O3* UNL     1      17.332   2.358  25.355  0.00  0.00    +0.000 OA
ATOM     19  H3* UNL     1      17.088   1.633  24.749  0.00  0.00    +0.000 HD
ENDBRANCH   3  18
BRANCH   4  20
ATOM     20  C5* UNL     1      19.422   3.841  23.702  0.00  0.00    +0.000 C 
BRANCH  20  21
ATOM     21  O5* UNL     1      19.252   4.484  22.551  0.00  0.00    +0.000 OA
ATOM     22  H5* UNL     1      18.323   4.422  22.269  0.00  0.00    +0.000 HD
ENDBRANCH  20  21
ENDBRANCH   4  20
TORSDOF 5
ENDMDL
MODEL 8
REMARK VINA RESULT:      -4.5     12.667     13.712
REMARK  Name = 5azacytidine.pdbqt.pdb
REMARK  5 active torsions:
REMARK  status: ('A' for Active; 'I' for Inactive)
REMARK    1  A    between atoms: C2*_2  and  O2*_16
REMARK    2  A    between atoms: C3*_3  and  O3*_21
REMARK    3  A    between atoms: C4*_4  and  C5*_18
REMARK    4  A    between atoms: C1*_5  and  N_6
REMARK    5  A    between atoms: C5*_18  and  O5*_19
REMARK                            x       y       z     vdW  Elec       q    Type
REMARK                         _______ _______ _______ _____ _____    ______ ____
ROOT
ATOM      1  O4* UNL     1      12.782  19.366  32.331  0.00  0.00    +0.000 OA
ATOM      2  C2* UNL     1      13.352  20.544  30.433  0.00  0.00    +0.000 A 
ATOM      3  C3* UNL     1      13.135  21.478  31.495  0.00  0.00    +0.000 A 
ATOM      4  C4* UNL     1      12.792  20.730  32.670  0.00  0.00    +0.000 A 
ATOM      5  C1* UNL     1      13.105  19.226  30.965  0.00  0.00    +0.000 A 
ENDROOT
BRANCH   5   6
ATOM      6  N   UNL     1      13.103  18.005  30.359  0.00  0.00    +0.000 N 
ATOM      7  C   UNL     1      12.262  17.569  29.343  0.00  0.00    +0.000 A 
ATOM      8  O   UNL     1      11.357  18.253  28.869  0.00  0.00    +0.000 OA
ATOM      9  N   UNL     1      12.501  16.272  28.896  0.00  0.00    +0.000 NA
ATOM     10  C   UNL     1      13.457  15.551  29.427  0.00  0.00    +0.000 A 
ATOM     11  N   UNL     1      14.272  15.981  30.460  0.00  0.00    +0.000 NA
ATOM     12  C   UNL     1      13.982  17.077  30.731  0.00  0.00    +0.000 A 
ATOM     13  N   UNL     1      13.655  14.294  28.957  0.00  0.00    +0.000 N 
ATOM     14  H   UNL     1      14.083  13.662  29.620  0.00  0.00    +0.000 HD
ATOM     15  H   UNL     1      12.857  13.916  28.461  0.00  0.00    +0.000 HD
ENDBRANCH   5   6
BRANCH   2  16
ATOM     16  O2* UNL     1      13.124  20.925  29.139  0.00  0.00    +0.000 OA
ATOM     17  H2* UNL     1      12.262  20.592  28.805  0.00  0.00    +0.000 HD
ENDBRANCH   2  16
BRANCH   3  18
ATOM     18  O3* UNL     1      12.628  22.724  31.248  0.00  0.00    +0.000 OA
ATOM     19  H3* UNL     1      12.634  22.899  30.289  0.00  0.00    +0.000 HD
ENDBRANCH   3  18
BRANCH   4  20
ATOM     20  C5* UNL     1      12.233  21.215  33.868  0.00  0.00    +0.000 C 
BRANCH  20  21
ATOM     21  O5* UNL     1      11.714  21.677  35.001  0.00  0.00    +0.000 OA
ATOM     22  H5* UNL     1      12.200  22.469  35.291  0.00  0.00    +0.000 HD
ENDBRANCH  20  21
ENDBRANCH   4  20
TORSDOF 5
ENDMDL
MODEL 9
REMARK VINA RESULT:      -4.5     26.625     27.505
REMARK  Name = 5azacytidine.pdbqt.pdb
REMARK  5 active torsions:
REMARK  status: ('A' for Active; 'I' for Inactive)
REMARK    1  A    between atoms: C2*_2  and  O2*_16
REMARK    2  A    between atoms: C3*_3  and  O3*_21
REMARK    3  A    between atoms: C4*_4  and  C5*_18
REMARK    4  A    between atoms: C1*_5  and  N_6
REMARK    5  A    between atoms: C5*_18  and  O5*_19
REMARK                            x       y       z     vdW  Elec       q    Type
REMARK                         _______ _______ _______ _____ _____    ______ ____
ROOT
ATOM      1  O4* UNL     1      -0.961  27.309  15.232  0.00  0.00    +0.000 OA
ATOM      2  C2* UNL     1      -1.477  27.533  17.469  0.00  0.00    +0.000 A 
ATOM      3  C3* UNL     1      -0.523  28.543  17.122  0.00  0.00    +0.000 A 
ATOM      4  C4* UNL     1      -0.222  28.397  15.726  0.00  0.00    +0.000 A 
ATOM      5  C1* UNL     1      -1.724  26.753  16.281  0.00  0.00    +0.000 A 
ENDROOT
BRANCH   5   6
ATOM      6  N   UNL     1      -2.487  25.641  16.086  0.00  0.00    +0.000 N 
ATOM      7  C   UNL     1      -3.714  25.347  16.670  0.00  0.00    +0.000 A 
ATOM      8  O   UNL     1      -4.267  26.074  17.492  0.00  0.00    +0.000 OA
ATOM      9  N   UNL     1      -4.283  24.141  16.269  0.00  0.00    +0.000 NA
ATOM     10  C   UNL     1      -3.669  23.370  15.406  0.00  0.00    +0.000 A 
ATOM     11  N   UNL     1      -2.434  23.654  14.852  0.00  0.00    +0.000 NA
ATOM     12  C   UNL     1      -2.074  24.688  15.254  0.00  0.00    +0.000 A 
ATOM     13  N   UNL     1      -4.264  22.206  15.042  0.00  0.00    +0.000 N 
ATOM     14  H   UNL     1      -3.624  21.489  14.728  0.00  0.00    +0.000 HD
ATOM     15  H   UNL     1      -4.970  21.890  15.697  0.00  0.00    +0.000 HD
ENDBRANCH   5   6
BRANCH   2  16
ATOM     16  O2* UNL     1      -1.518  27.052  18.748  0.00  0.00    +0.000 OA
ATOM     17  H2* UNL     1      -0.633  26.758  19.058  0.00  0.00    +0.000 HD
ENDBRANCH   2  16
BRANCH   3  18
ATOM     18  O3* UNL     1       0.402  28.982  18.027  0.00  0.00    +0.000 OA
ATOM     19  H3* UNL     1       0.931  29.702  17.637  0.00  0.00    +0.000 HD
ENDBRANCH   3  18
BRANCH   4  20
ATOM     20  C5* UNL     1       0.845  28.973  15.011  0.00  0.00    +0.000 C 
BRANCH  20  21
ATOM     21  O5* UNL     1       1.851  29.511  14.328  0.00  0.00    +0.000 OA
ATOM     22  H5* UNL     1       1.568  30.351  13.926  0.00  0.00    +0.000 HD
ENDBRANCH  20  21
ENDBRANCH   4  20
TORSDOF 5
ENDMDL
