MODEL 1
REMARK VINA RESULT:      -6.2      0.000      0.000
REMARK  Name = 60953_Capecitabine.pdbqt.pdb
REMARK  6 active torsions:
REMARK  status: ('A' for Active; 'I' for Inactive)
REMARK    1  A    between atoms: N_4  and  C_16
REMARK    2  A    between atoms: C_11  and  O_23
REMARK    3  A    between atoms: C_14  and  O_19
REMARK    4  A    between atoms: C_15  and  O_21
REMARK    5  A    between atoms: O_23  and  C_24
REMARK    6  A    between atoms: C_25  and  C_26
REMARK                            x       y       z     vdW  Elec       q    Type
REMARK                         _______ _______ _______ _____ _____    ______ ____
ROOT
ATOM      1  F   UNL     1      24.065  21.052  28.530  0.00  0.00    +0.000 F 
ATOM      2  O   UNL     1      23.055  21.464  23.286  0.00  0.00    +0.000 OA
ATOM      3  O   UNL     1      22.306  17.450  25.561  0.00  0.00    +0.000 OA
ATOM      4  N   UNL     1      23.979  22.405  25.198  0.00  0.00    +0.000 N 
ATOM      5  N   UNL     1      23.183  20.142  25.150  0.00  0.00    +0.000 NA
ATOM      6  N   UNL     1      23.305  18.857  27.121  0.00  0.00    +0.000 N 
ATOM      7  C   UNL     1      24.305  22.143  26.480  0.00  0.00    +0.000 C 
ATOM      8  C   UNL     1      23.390  21.345  24.462  0.00  0.00    +0.000 C 
ATOM      9  C   UNL     1      24.212  21.077  27.195  0.00  0.00    +0.000 C 
ATOM     10  C   UNL     1      23.532  20.008  26.396  0.00  0.00    +0.000 C 
ATOM     11  C   UNL     1      22.707  17.694  26.689  0.00  0.00    +0.000 C 
ATOM     12  H   UNL     1      23.574  18.842  28.095  0.00  0.00    +0.000 HD
ENDROOT
BRANCH   4  16
ATOM     13  O   UNL     1      23.661  24.803  25.262  0.00  0.00    +0.000 OA
ATOM     14  C   UNL     1      25.099  24.081  23.610  0.00  0.00    +0.000 A 
ATOM     15  C   UNL     1      24.954  25.500  23.492  0.00  0.00    +0.000 A 
ATOM     16  C   UNL     1      24.262  23.652  24.706  0.00  0.00    +0.000 A 
ATOM     17  C   UNL     1      24.067  25.934  24.536  0.00  0.00    +0.000 A 
ATOM     18  C   UNL     1      23.373  27.235  24.749  0.00  0.00    +0.000 C 
BRANCH  14  19
ATOM     19  O   UNL     1      25.382  23.341  22.497  0.00  0.00    +0.000 OA
ATOM     20  H   UNL     1      25.066  22.413  22.579  0.00  0.00    +0.000 HD
ENDBRANCH  14  19
BRANCH  15  21
ATOM     21  O   UNL     1      25.058  26.123  22.276  0.00  0.00    +0.000 OA
ATOM     22  H   UNL     1      24.429  26.867  22.220  0.00  0.00    +0.000 HD
ENDBRANCH  15  21
ENDBRANCH   4  16
BRANCH  11  23
ATOM     23  O   UNL     1      22.644  16.824  27.741  0.00  0.00    +0.000 OA
BRANCH  23  24
ATOM     24  C   UNL     1      21.644  17.023  28.597  0.00  0.00    +0.000 C 
ATOM     25  C   UNL     1      20.492  17.249  29.582  0.00  0.00    +0.000 C 
BRANCH  25  26
ATOM     26  C   UNL     1      19.341  17.473  30.567  0.00  0.00    +0.000 C 
ATOM     27  C   UNL     1      18.185  17.696  31.547  0.00  0.00    +0.000 C 
ATOM     28  C   UNL     1      17.021  17.913  32.519  0.00  0.00    +0.000 C 
ENDBRANCH  25  26
ENDBRANCH  23  24
ENDBRANCH  11  23
TORSDOF 6
ENDMDL
MODEL 2
REMARK VINA RESULT:      -5.8     14.707     16.037
REMARK  Name = 60953_Capecitabine.pdbqt.pdb
REMARK  6 active torsions:
REMARK  status: ('A' for Active; 'I' for Inactive)
REMARK    1  A    between atoms: N_4  and  C_16
REMARK    2  A    between atoms: C_11  and  O_23
REMARK    3  A    between atoms: C_14  and  O_19
REMARK    4  A    between atoms: C_15  and  O_21
REMARK    5  A    between atoms: O_23  and  C_24
REMARK    6  A    between atoms: C_25  and  C_26
REMARK                            x       y       z     vdW  Elec       q    Type
REMARK                         _______ _______ _______ _____ _____    ______ ____
ROOT
ATOM      1  F   UNL     1       9.290  22.091  31.294  0.00  0.00    +0.000 F 
ATOM      2  O   UNL     1       5.842  25.245  28.673  0.00  0.00    +0.000 OA
ATOM      3  O   UNL     1       4.310  21.850  31.499  0.00  0.00    +0.000 OA
ATOM      4  N   UNL     1       8.037  24.549  28.985  0.00  0.00    +0.000 N 
ATOM      5  N   UNL     1       6.186  23.428  30.023  0.00  0.00    +0.000 NA
ATOM      6  N   UNL     1       6.622  21.594  31.436  0.00  0.00    +0.000 N 
ATOM      7  C   UNL     1       8.797  23.621  29.600  0.00  0.00    +0.000 C 
ATOM      8  C   UNL     1       6.635  24.458  29.185  0.00  0.00    +0.000 C 
ATOM      9  C   UNL     1       8.499  22.612  30.340  0.00  0.00    +0.000 C 
ATOM     10  C   UNL     1       7.019  22.593  30.571  0.00  0.00    +0.000 C 
ATOM     11  C   UNL     1       5.343  21.303  31.855  0.00  0.00    +0.000 C 
ATOM     12  H   UNL     1       7.332  21.006  31.849  0.00  0.00    +0.000 HD
ENDROOT
BRANCH   4  16
ATOM     13  O   UNL     1       9.544  26.431  28.777  0.00  0.00    +0.000 OA
ATOM     14  C   UNL     1       8.597  25.750  26.787  0.00  0.00    +0.000 A 
ATOM     15  C   UNL     1       9.408  26.901  26.529  0.00  0.00    +0.000 A 
ATOM     16  C   UNL     1       8.668  25.482  28.205  0.00  0.00    +0.000 A 
ATOM     17  C   UNL     1      10.000  27.303  27.775  0.00  0.00    +0.000 A 
ATOM     18  C   UNL     1      10.721  28.550  28.155  0.00  0.00    +0.000 C 
BRANCH  14  19
ATOM     19  O   UNL     1       7.516  25.498  25.991  0.00  0.00    +0.000 OA
ATOM     20  H   UNL     1       7.571  25.970  25.130  0.00  0.00    +0.000 HD
ENDBRANCH  14  19
BRANCH  15  21
ATOM     21  O   UNL     1       9.096  27.773  25.520  0.00  0.00    +0.000 OA
ATOM     22  H   UNL     1       9.228  28.695  25.813  0.00  0.00    +0.000 HD
ENDBRANCH  15  21
ENDBRANCH   4  16
BRANCH  11  23
ATOM     23  O   UNL     1       5.405  20.267  32.744  0.00  0.00    +0.000 OA
BRANCH  23  24
ATOM     24  C   UNL     1       6.036  19.175  32.317  0.00  0.00    +0.000 C 
ATOM     25  C   UNL     1       6.760  17.917  31.825  0.00  0.00    +0.000 C 
BRANCH  25  26
ATOM     26  C   UNL     1       7.481  16.659  31.333  0.00  0.00    +0.000 C 
ATOM     27  C   UNL     1       8.197  15.399  30.837  0.00  0.00    +0.000 C 
ATOM     28  C   UNL     1       8.906  14.139  30.329  0.00  0.00    +0.000 C 
ENDBRANCH  25  26
ENDBRANCH  23  24
ENDBRANCH  11  23
TORSDOF 6
ENDMDL
MODEL 3
REMARK VINA RESULT:      -5.8      2.377      2.821
REMARK  Name = 60953_Capecitabine.pdbqt.pdb
REMARK  6 active torsions:
REMARK  status: ('A' for Active; 'I' for Inactive)
REMARK    1  A    between atoms: N_4  and  C_16
REMARK    2  A    between atoms: C_11  and  O_23
REMARK    3  A    between atoms: C_14  and  O_19
REMARK    4  A    between atoms: C_15  and  O_21
REMARK    5  A    between atoms: O_23  and  C_24
REMARK    6  A    between atoms: C_25  and  C_26
REMARK                            x       y       z     vdW  Elec       q    Type
REMARK                         _______ _______ _______ _____ _____    ______ ____
ROOT
ATOM      1  F   UNL     1      22.014  22.413  27.215  0.00  0.00    +0.000 F 
ATOM      2  O   UNL     1      24.755  23.048  22.656  0.00  0.00    +0.000 OA
ATOM      3  O   UNL     1      22.430  19.085  23.521  0.00  0.00    +0.000 OA
ATOM      4  N   UNL     1      24.242  23.842  24.779  0.00  0.00    +0.000 N 
ATOM      5  N   UNL     1      23.532  21.677  24.023  0.00  0.00    +0.000 NA
ATOM      6  N   UNL     1      22.236  20.343  25.469  0.00  0.00    +0.000 N 
ATOM      7  C   UNL     1      23.620  23.518  25.931  0.00  0.00    +0.000 C 
ATOM      8  C   UNL     1      24.219  22.867  23.748  0.00  0.00    +0.000 C 
ATOM      9  C   UNL     1      23.009  22.452  26.312  0.00  0.00    +0.000 C 
ATOM     10  C   UNL     1      22.960  21.480  25.174  0.00  0.00    +0.000 C 
ATOM     11  C   UNL     1      22.000  19.260  24.651  0.00  0.00    +0.000 C 
ATOM     12  H   UNL     1      21.791  20.277  26.374  0.00  0.00    +0.000 HD
ENDROOT
BRANCH   4  16
ATOM     13  O   UNL     1      25.459  25.643  25.843  0.00  0.00    +0.000 OA
ATOM     14  C   UNL     1      25.012  25.991  23.607  0.00  0.00    +0.000 A 
ATOM     15  C   UNL     1      25.674  27.152  24.120  0.00  0.00    +0.000 A 
ATOM     16  C   UNL     1      24.858  25.063  24.703  0.00  0.00    +0.000 A 
ATOM     17  C   UNL     1      25.955  26.913  25.509  0.00  0.00    +0.000 A 
ATOM     18  C   UNL     1      26.396  27.840  26.589  0.00  0.00    +0.000 C 
BRANCH  14  19
ATOM     19  O   UNL     1      24.149  26.120  22.556  0.00  0.00    +0.000 OA
ATOM     20  H   UNL     1      24.370  26.890  21.986  0.00  0.00    +0.000 HD
ENDBRANCH  14  19
BRANCH  15  21
ATOM     21  O   UNL     1      25.426  28.395  23.599  0.00  0.00    +0.000 OA
ATOM     22  H   UNL     1      25.521  29.079  24.289  0.00  0.00    +0.000 HD
ENDBRANCH  15  21
ENDBRANCH   4  16
BRANCH  11  23
ATOM     23  O   UNL     1      21.201  18.378  25.323  0.00  0.00    +0.000 OA
BRANCH  23  24
ATOM     24  C   UNL     1      21.586  18.074  26.560  0.00  0.00    +0.000 C 
ATOM     25  C   UNL     1      22.027  17.725  27.986  0.00  0.00    +0.000 C 
BRANCH  25  26
ATOM     26  C   UNL     1      22.467  17.378  29.411  0.00  0.00    +0.000 C 
ATOM     27  C   UNL     1      22.903  17.037  30.838  0.00  0.00    +0.000 C 
ATOM     28  C   UNL     1      23.330  16.702  32.272  0.00  0.00    +0.000 C 
ENDBRANCH  25  26
ENDBRANCH  23  24
ENDBRANCH  11  23
TORSDOF 6
ENDMDL
MODEL 4
REMARK VINA RESULT:      -5.8      7.398     11.142
REMARK  Name = 60953_Capecitabine.pdbqt.pdb
REMARK  6 active torsions:
REMARK  status: ('A' for Active; 'I' for Inactive)
REMARK    1  A    between atoms: N_4  and  C_16
REMARK    2  A    between atoms: C_11  and  O_23
REMARK    3  A    between atoms: C_14  and  O_19
REMARK    4  A    between atoms: C_15  and  O_21
REMARK    5  A    between atoms: O_23  and  C_24
REMARK    6  A    between atoms: C_25  and  C_26
REMARK                            x       y       z     vdW  Elec       q    Type
REMARK                         _______ _______ _______ _____ _____    ______ ____
ROOT
ATOM      1  F   UNL     1      26.317  14.357  25.313  0.00  0.00    +0.000 F 
ATOM      2  O   UNL     1      23.633  10.239  23.185  0.00  0.00    +0.000 OA
ATOM      3  O   UNL     1      21.584  13.099  26.263  0.00  0.00    +0.000 OA
ATOM      4  N   UNL     1      25.662  11.330  23.483  0.00  0.00    +0.000 N 
ATOM      5  N   UNL     1      23.685  11.968  24.684  0.00  0.00    +0.000 NA
ATOM      6  N   UNL     1      23.804  13.788  26.175  0.00  0.00    +0.000 N 
ATOM      7  C   UNL     1      26.263  12.320  24.173  0.00  0.00    +0.000 C 
ATOM      8  C   UNL     1      24.285  11.114  23.749  0.00  0.00    +0.000 C 
ATOM      9  C   UNL     1      25.834  13.125  25.080  0.00  0.00    +0.000 C 
ATOM     10  C   UNL     1      24.367  12.898  25.284  0.00  0.00    +0.000 C 
ATOM     11  C   UNL     1      22.491  13.852  26.583  0.00  0.00    +0.000 C 
ATOM     12  H   UNL     1      24.393  14.506  26.574  0.00  0.00    +0.000 HD
ENDROOT
BRANCH   4  16
ATOM     13  O   UNL     1      27.219  11.248  21.631  0.00  0.00    +0.000 OA
ATOM     14  C   UNL     1      26.578   9.179  22.424  0.00  0.00    +0.000 A 
ATOM     15  C   UNL     1      27.442   8.983  21.300  0.00  0.00    +0.000 A 
ATOM     16  C   UNL     1      26.424  10.604  22.605  0.00  0.00    +0.000 A 
ATOM     17  C   UNL     1      27.841  10.280  20.828  0.00  0.00    +0.000 A 
ATOM     18  C   UNL     1      28.519  10.693  19.567  0.00  0.00    +0.000 C 
BRANCH  14  19
ATOM     19  O   UNL     1      25.629   8.241  22.714  0.00  0.00    +0.000 OA
ATOM     20  H   UNL     1      25.137   7.951  21.913  0.00  0.00    +0.000 HD
ENDBRANCH  14  19
BRANCH  15  21
ATOM     21  O   UNL     1      27.307   7.888  20.488  0.00  0.00    +0.000 OA
ATOM     22  H   UNL     1      26.372   7.764  20.235  0.00  0.00    +0.000 HD
ENDBRANCH  15  21
ENDBRANCH   4  16
BRANCH  11  23
ATOM     23  O   UNL     1      22.356  14.909  27.439  0.00  0.00    +0.000 OA
BRANCH  23  24
ATOM     24  C   UNL     1      22.543  16.114  26.905  0.00  0.00    +0.000 C 
ATOM     25  C   UNL     1      22.759  17.500  26.287  0.00  0.00    +0.000 C 
BRANCH  25  26
ATOM     26  C   UNL     1      22.975  18.884  25.668  0.00  0.00    +0.000 C 
ATOM     27  C   UNL     1      23.195  20.264  25.044  0.00  0.00    +0.000 C 
ATOM     28  C   UNL     1      23.416  21.641  24.407  0.00  0.00    +0.000 C 
ENDBRANCH  25  26
ENDBRANCH  23  24
ENDBRANCH  11  23
TORSDOF 6
ENDMDL
MODEL 5
REMARK VINA RESULT:      -5.8      6.298     10.209
REMARK  Name = 60953_Capecitabine.pdbqt.pdb
REMARK  6 active torsions:
REMARK  status: ('A' for Active; 'I' for Inactive)
REMARK    1  A    between atoms: N_4  and  C_16
REMARK    2  A    between atoms: C_11  and  O_23
REMARK    3  A    between atoms: C_14  and  O_19
REMARK    4  A    between atoms: C_15  and  O_21
REMARK    5  A    between atoms: O_23  and  C_24
REMARK    6  A    between atoms: C_25  and  C_26
REMARK                            x       y       z     vdW  Elec       q    Type
REMARK                         _______ _______ _______ _____ _____    ______ ____
ROOT
ATOM      1  F   UNL     1      26.569  14.064  24.986  0.00  0.00    +0.000 F 
ATOM      2  O   UNL     1      21.400  13.283  26.155  0.00  0.00    +0.000 OA
ATOM      3  O   UNL     1      23.745  10.227  23.506  0.00  0.00    +0.000 OA
ATOM      4  N   UNL     1      23.241  14.699  26.196  0.00  0.00    +0.000 N 
ATOM      5  N   UNL     1      23.260  12.621  24.996  0.00  0.00    +0.000 NA
ATOM      6  N   UNL     1      25.227  11.984  23.866  0.00  0.00    +0.000 N 
ATOM      7  C   UNL     1      24.501  14.845  25.737  0.00  0.00    +0.000 C 
ATOM      8  C   UNL     1      22.553  13.523  25.802  0.00  0.00    +0.000 C 
ATOM      9  C   UNL     1      25.227  14.119  24.961  0.00  0.00    +0.000 C 
ATOM     10  C   UNL     1      24.481  12.866  24.621  0.00  0.00    +0.000 C 
ATOM     11  C   UNL     1      24.842  10.751  23.388  0.00  0.00    +0.000 C 
ATOM     12  H   UNL     1      26.181  12.230  23.643  0.00  0.00    +0.000 HD
ENDROOT
BRANCH   4  16
ATOM     13  O   UNL     1      22.380  15.457  28.328  0.00  0.00    +0.000 OA
ATOM     14  C   UNL     1      22.390  17.071  26.681  0.00  0.00    +0.000 A 
ATOM     15  C   UNL     1      21.803  17.633  27.858  0.00  0.00    +0.000 A 
ATOM     16  C   UNL     1      22.724  15.698  26.979  0.00  0.00    +0.000 A 
ATOM     17  C   UNL     1      21.816  16.619  28.877  0.00  0.00    +0.000 A 
ATOM     18  C   UNL     1      21.129  16.552  30.197  0.00  0.00    +0.000 C 
BRANCH  14  19
ATOM     19  O   UNL     1      22.020  17.544  25.454  0.00  0.00    +0.000 OA
ATOM     20  H   UNL     1      21.547  16.865  24.922  0.00  0.00    +0.000 HD
ENDBRANCH  14  19
BRANCH  15  21
ATOM     21  O   UNL     1      20.846  18.610  27.773  0.00  0.00    +0.000 OA
ATOM     22  H   UNL     1      20.498  18.824  28.660  0.00  0.00    +0.000 HD
ENDBRANCH  15  21
ENDBRANCH   4  16
BRANCH  11  23
ATOM     23  O   UNL     1      25.901  10.194  22.728  0.00  0.00    +0.000 OA
BRANCH  23  24
ATOM     24  C   UNL     1      26.636  11.032  22.000  0.00  0.00    +0.000 C 
ATOM     25  C   UNL     1      27.482  11.995  21.160  0.00  0.00    +0.000 C 
BRANCH  25  26
ATOM     26  C   UNL     1      28.328  12.956  20.321  0.00  0.00    +0.000 C 
ATOM     27  C   UNL     1      29.169  13.920  19.479  0.00  0.00    +0.000 C 
ATOM     28  C   UNL     1      30.001  14.894  18.637  0.00  0.00    +0.000 C 
ENDBRANCH  25  26
ENDBRANCH  23  24
ENDBRANCH  11  23
TORSDOF 6
ENDMDL
MODEL 6
REMARK VINA RESULT:      -5.5      2.554      3.699
REMARK  Name = 60953_Capecitabine.pdbqt.pdb
REMARK  6 active torsions:
REMARK  status: ('A' for Active; 'I' for Inactive)
REMARK    1  A    between atoms: N_4  and  C_16
REMARK    2  A    between atoms: C_11  and  O_23
REMARK    3  A    between atoms: C_14  and  O_19
REMARK    4  A    between atoms: C_15  and  O_21
REMARK    5  A    between atoms: O_23  and  C_24
REMARK    6  A    between atoms: C_25  and  C_26
REMARK                            x       y       z     vdW  Elec       q    Type
REMARK                         _______ _______ _______ _____ _____    ______ ____
ROOT
ATOM      1  F   UNL     1      23.278  22.646  28.349  0.00  0.00    +0.000 F 
ATOM      2  O   UNL     1      24.113  22.573  23.057  0.00  0.00    +0.000 OA
ATOM      3  O   UNL     1      22.643  18.745  25.303  0.00  0.00    +0.000 OA
ATOM      4  N   UNL     1      24.329  23.705  25.075  0.00  0.00    +0.000 N 
ATOM      5  N   UNL     1      23.602  21.420  24.968  0.00  0.00    +0.000 NA
ATOM      6  N   UNL     1      23.048  20.314  26.973  0.00  0.00    +0.000 N 
ATOM      7  C   UNL     1      24.199  23.565  26.410  0.00  0.00    +0.000 C 
ATOM      8  C   UNL     1      24.027  22.566  24.283  0.00  0.00    +0.000 C 
ATOM      9  C   UNL     1      23.870  22.561  27.145  0.00  0.00    +0.000 C 
ATOM     10  C   UNL     1      23.506  21.406  26.265  0.00  0.00    +0.000 C 
ATOM     11  C   UNL     1      22.636  19.099  26.472  0.00  0.00    +0.000 C 
ATOM     12  H   UNL     1      22.969  20.391  27.977  0.00  0.00    +0.000 HD
ENDROOT
BRANCH   4  16
ATOM     13  O   UNL     1      26.128  25.145  24.336  0.00  0.00    +0.000 OA
ATOM     14  C   UNL     1      24.045  26.135  24.301  0.00  0.00    +0.000 A 
ATOM     15  C   UNL     1      25.014  27.111  23.904  0.00  0.00    +0.000 A 
ATOM     16  C   UNL     1      24.759  24.914  24.595  0.00  0.00    +0.000 A 
ATOM     17  C   UNL     1      26.302  26.474  23.919  0.00  0.00    +0.000 A 
ATOM     18  C   UNL     1      27.675  27.048  23.839  0.00  0.00    +0.000 C 
BRANCH  14  19
ATOM     19  O   UNL     1      22.893  26.542  24.913  0.00  0.00    +0.000 OA
ATOM     20  H   UNL     1      23.004  27.400  25.379  0.00  0.00    +0.000 HD
ENDBRANCH  14  19
BRANCH  15  21
ATOM     21  O   UNL     1      24.822  28.443  24.163  0.00  0.00    +0.000 OA
ATOM     22  H   UNL     1      24.335  28.865  23.430  0.00  0.00    +0.000 HD
ENDBRANCH  15  21
ENDBRANCH   4  16
BRANCH  11  23
ATOM     23  O   UNL     1      22.220  18.321  27.516  0.00  0.00    +0.000 OA
BRANCH  23  24
ATOM     24  C   UNL     1      22.353  17.007  27.348  0.00  0.00    +0.000 C 
ATOM     25  C   UNL     1      22.509  15.494  27.156  0.00  0.00    +0.000 C 
BRANCH  25  26
ATOM     26  C   UNL     1      22.666  13.983  26.964  0.00  0.00    +0.000 C 
ATOM     27  C   UNL     1      22.820  12.473  26.766  0.00  0.00    +0.000 C 
ATOM     28  C   UNL     1      22.973  10.962  26.555  0.00  0.00    +0.000 C 
ENDBRANCH  25  26
ENDBRANCH  23  24
ENDBRANCH  11  23
TORSDOF 6
ENDMDL
MODEL 7
REMARK VINA RESULT:      -5.5      3.919      9.418
REMARK  Name = 60953_Capecitabine.pdbqt.pdb
REMARK  6 active torsions:
REMARK  status: ('A' for Active; 'I' for Inactive)
REMARK    1  A    between atoms: N_4  and  C_16
REMARK    2  A    between atoms: C_11  and  O_23
REMARK    3  A    between atoms: C_14  and  O_19
REMARK    4  A    between atoms: C_15  and  O_21
REMARK    5  A    between atoms: O_23  and  C_24
REMARK    6  A    between atoms: C_25  and  C_26
REMARK                            x       y       z     vdW  Elec       q    Type
REMARK                         _______ _______ _______ _____ _____    ______ ____
ROOT
ATOM      1  F   UNL     1      22.561  18.472  24.820  0.00  0.00    +0.000 F 
ATOM      2  O   UNL     1      22.710  15.085  28.968  0.00  0.00    +0.000 OA
ATOM      3  O   UNL     1      22.015  19.660  29.635  0.00  0.00    +0.000 OA
ATOM      4  N   UNL     1      23.046  15.441  26.697  0.00  0.00    +0.000 N 
ATOM      5  N   UNL     1      22.592  17.244  28.215  0.00  0.00    +0.000 NA
ATOM      6  N   UNL     1      22.439  19.433  27.358  0.00  0.00    +0.000 N 
ATOM      7  C   UNL     1      23.107  16.402  25.753  0.00  0.00    +0.000 C 
ATOM      8  C   UNL     1      22.785  15.869  28.025  0.00  0.00    +0.000 C 
ATOM      9  C   UNL     1      22.999  17.683  25.816  0.00  0.00    +0.000 C 
ATOM     10  C   UNL     1      22.667  18.080  27.221  0.00  0.00    +0.000 C 
ATOM     11  C   UNL     1      22.116  20.120  28.507  0.00  0.00    +0.000 C 
ATOM     12  H   UNL     1      22.481  20.014  26.532  0.00  0.00    +0.000 HD
ENDROOT
BRANCH   4  16
ATOM     13  O   UNL     1      24.064  13.850  25.184  0.00  0.00    +0.000 OA
ATOM     14  C   UNL     1      22.767  12.894  26.835  0.00  0.00    +0.000 A 
ATOM     15  C   UNL     1      23.250  11.851  25.982  0.00  0.00    +0.000 A 
ATOM     16  C   UNL     1      23.261  14.145  26.309  0.00  0.00    +0.000 A 
ATOM     17  C   UNL     1      24.066  12.463  24.969  0.00  0.00    +0.000 A 
ATOM     18  C   UNL     1      24.616  11.915  23.697  0.00  0.00    +0.000 C 
BRANCH  14  19
ATOM     19  O   UNL     1      21.580  12.729  27.491  0.00  0.00    +0.000 OA
ATOM     20  H   UNL     1      21.347  11.780  27.604  0.00  0.00    +0.000 HD
ENDBRANCH  14  19
BRANCH  15  21
ATOM     21  O   UNL     1      22.524  10.707  25.783  0.00  0.00    +0.000 OA
ATOM     22  H   UNL     1      21.733  10.895  25.243  0.00  0.00    +0.000 HD
ENDBRANCH  15  21
ENDBRANCH   4  16
BRANCH  11  23
ATOM     23  O   UNL     1      21.935  21.436  28.187  0.00  0.00    +0.000 OA
BRANCH  23  24
ATOM     24  C   UNL     1      22.607  21.871  27.123  0.00  0.00    +0.000 C 
ATOM     25  C   UNL     1      23.378  22.371  25.897  0.00  0.00    +0.000 C 
BRANCH  25  26
ATOM     26  C   UNL     1      24.148  22.870  24.671  0.00  0.00    +0.000 C 
ATOM     27  C   UNL     1      24.912  23.374  23.444  0.00  0.00    +0.000 C 
ATOM     28  C   UNL     1      25.673  23.890  22.217  0.00  0.00    +0.000 C 
ENDBRANCH  25  26
ENDBRANCH  23  24
ENDBRANCH  11  23
TORSDOF 6
ENDMDL
MODEL 8
REMARK VINA RESULT:      -5.4     11.345     12.820
REMARK  Name = 60953_Capecitabine.pdbqt.pdb
REMARK  6 active torsions:
REMARK  status: ('A' for Active; 'I' for Inactive)
REMARK    1  A    between atoms: N_4  and  C_16
REMARK    2  A    between atoms: C_11  and  O_23
REMARK    3  A    between atoms: C_14  and  O_19
REMARK    4  A    between atoms: C_15  and  O_21
REMARK    5  A    between atoms: O_23  and  C_24
REMARK    6  A    between atoms: C_25  and  C_26
REMARK                            x       y       z     vdW  Elec       q    Type
REMARK                         _______ _______ _______ _____ _____    ______ ____
ROOT
ATOM      1  F   UNL     1      29.072  16.187  17.396  0.00  0.00    +0.000 F 
ATOM      2  O   UNL     1      28.754  20.705  14.535  0.00  0.00    +0.000 OA
ATOM      3  O   UNL     1      27.705  16.574  12.613  0.00  0.00    +0.000 OA
ATOM      4  N   UNL     1      29.424  19.652  16.494  0.00  0.00    +0.000 N 
ATOM      5  N   UNL     1      28.635  18.419  14.592  0.00  0.00    +0.000 NA
ATOM      6  N   UNL     1      28.496  16.072  14.743  0.00  0.00    +0.000 N 
ATOM      7  C   UNL     1      29.579  18.443  17.071  0.00  0.00    +0.000 C 
ATOM      8  C   UNL     1      28.932  19.664  15.163  0.00  0.00    +0.000 C 
ATOM      9  C   UNL     1      29.391  17.248  16.634  0.00  0.00    +0.000 C 
ATOM     10  C   UNL     1      28.818  17.314  15.252  0.00  0.00    +0.000 C 
ATOM     11  C   UNL     1      27.957  15.783  13.509  0.00  0.00    +0.000 C 
ATOM     12  H   UNL     1      28.635  15.262  15.330  0.00  0.00    +0.000 HD
ENDROOT
BRANCH   4  16
ATOM     13  O   UNL     1      31.124  21.041  17.514  0.00  0.00    +0.000 OA
ATOM     14  C   UNL     1      28.966  21.785  17.847  0.00  0.00    +0.000 A 
ATOM     15  C   UNL     1      29.856  22.656  18.551  0.00  0.00    +0.000 A 
ATOM     16  C   UNL     1      29.770  20.760  17.223  0.00  0.00    +0.000 A 
ATOM     17  C   UNL     1      31.195  22.186  18.322  0.00  0.00    +0.000 A 
ATOM     18  C   UNL     1      32.480  22.541  18.987  0.00  0.00    +0.000 C 
BRANCH  14  19
ATOM     19  O   UNL     1      27.690  21.615  18.304  0.00  0.00    +0.000 OA
ATOM     20  H   UNL     1      27.138  22.418  18.169  0.00  0.00    +0.000 HD
ENDBRANCH  14  19
BRANCH  15  21
ATOM     21  O   UNL     1      29.461  23.294  19.698  0.00  0.00    +0.000 OA
ATOM     22  H   UNL     1      30.221  23.419  20.298  0.00  0.00    +0.000 HD
ENDBRANCH  15  21
ENDBRANCH   4  16
BRANCH  11  23
ATOM     23  O   UNL     1      27.755  14.433  13.433  0.00  0.00    +0.000 OA
BRANCH  23  24
ATOM     24  C   UNL     1      28.078  13.737  14.520  0.00  0.00    +0.000 C 
ATOM     25  C   UNL     1      28.450  12.933  15.771  0.00  0.00    +0.000 C 
BRANCH  25  26
ATOM     26  C   UNL     1      28.820  12.128  17.020  0.00  0.00    +0.000 C 
ATOM     27  C   UNL     1      29.183  11.320  18.269  0.00  0.00    +0.000 C 
ATOM     28  C   UNL     1      29.537  10.504  19.517  0.00  0.00    +0.000 C 
ENDBRANCH  25  26
ENDBRANCH  23  24
ENDBRANCH  11  23
TORSDOF 6
ENDMDL
MODEL 9
REMARK VINA RESULT:      -5.4     20.921     22.554
REMARK  Name = 60953_Capecitabine.pdbqt.pdb
REMARK  6 active torsions:
REMARK  status: ('A' for Active; 'I' for Inactive)
REMARK    1  A    between atoms: N_4  and  C_16
REMARK    2  A    between atoms: C_11  and  O_23
REMARK    3  A    between atoms: C_14  and  O_19
REMARK    4  A    between atoms: C_15  and  O_21
REMARK    5  A    between atoms: O_23  and  C_24
REMARK    6  A    between atoms: C_25  and  C_26
REMARK                            x       y       z     vdW  Elec       q    Type
REMARK                         _______ _______ _______ _____ _____    ______ ____
ROOT
ATOM      1  F   UNL     1      15.174  36.093  13.234  0.00  0.00    +0.000 F 
ATOM      2  O   UNL     1      11.387  32.338  12.725  0.00  0.00    +0.000 OA
ATOM      3  O   UNL     1      15.564  31.818  10.691  0.00  0.00    +0.000 OA
ATOM      4  N   UNL     1      11.966  34.477  13.424  0.00  0.00    +0.000 N 
ATOM      5  N   UNL     1      13.461  33.111  12.137  0.00  0.00    +0.000 NA
ATOM      6  N   UNL     1      15.596  33.955  11.611  0.00  0.00    +0.000 N 
ATOM      7  C   UNL     1      12.950  35.397  13.379  0.00  0.00    +0.000 C 
ATOM      8  C   UNL     1      12.211  33.250  12.755  0.00  0.00    +0.000 C 
ATOM      9  C   UNL     1      14.103  35.402  12.808  0.00  0.00    +0.000 C 
ATOM     10  C   UNL     1      14.339  34.069  12.168  0.00  0.00    +0.000 C 
ATOM     11  C   UNL     1      16.128  32.871  10.950  0.00  0.00    +0.000 C 
ATOM     12  H   UNL     1      16.236  34.731  11.706  0.00  0.00    +0.000 HD
ENDROOT
BRANCH   4  16
ATOM     13  O   UNL     1      10.491  36.152  14.362  0.00  0.00    +0.000 OA
ATOM     14  C   UNL     1       9.763  33.981  14.645  0.00  0.00    +0.000 A 
ATOM     15  C   UNL     1       8.836  34.855  15.297  0.00  0.00    +0.000 A 
ATOM     16  C   UNL     1      10.811  34.804  14.085  0.00  0.00    +0.000 A 
ATOM     17  C   UNL     1       9.298  36.202  15.100  0.00  0.00    +0.000 A 
ATOM     18  C   UNL     1       8.883  37.480  15.745  0.00  0.00    +0.000 C 
BRANCH  14  19
ATOM     19  O   UNL     1       9.924  32.706  15.108  0.00  0.00    +0.000 OA
ATOM     20  H   UNL     1       9.153  32.404  15.638  0.00  0.00    +0.000 HD
ENDBRANCH  14  19
BRANCH  15  21
ATOM     21  O   UNL     1       8.137  34.446  16.402  0.00  0.00    +0.000 OA
ATOM     22  H   UNL     1       7.194  34.324  16.183  0.00  0.00    +0.000 HD
ENDBRANCH  15  21
ENDBRANCH   4  16
BRANCH  11  23
ATOM     23  O   UNL     1      17.417  33.167  10.602  0.00  0.00    +0.000 OA
BRANCH  23  24
ATOM     24  C   UNL     1      17.911  32.480   9.574  0.00  0.00    +0.000 C 
ATOM     25  C   UNL     1      18.479  31.688   8.392  0.00  0.00    +0.000 C 
BRANCH  25  26
ATOM     26  C   UNL     1      19.047  30.895   7.211  0.00  0.00    +0.000 C 
ATOM     27  C   UNL     1      19.619  30.106   6.030  0.00  0.00    +0.000 C 
ATOM     28  C   UNL     1      20.204  29.323   4.850  0.00  0.00    +0.000 C 
ENDBRANCH  25  26
ENDBRANCH  23  24
ENDBRANCH  11  23
TORSDOF 6
ENDMDL
