MODEL 1
REMARK VINA RESULT:      -5.7      0.000      0.000
REMARK  Name = 6223_Gliotoxin.pdbqt.pdb
REMARK  3 active torsions:
REMARK  status: ('A' for Active; 'I' for Inactive)
REMARK    1  A    between atoms: C_10  and  C_21
REMARK    2  A    between atoms: C_14  and  O_19
REMARK    3  A    between atoms: C_21  and  O_22
REMARK                            x       y       z     vdW  Elec       q    Type
REMARK                         _______ _______ _______ _____ _____    ______ ____
ROOT
ATOM      1  S   UNL     1       9.618  15.704  32.823  0.00  0.00    +0.000 S 
ATOM      2  S   UNL     1      10.192  13.807  33.399  0.00  0.00    +0.000 S 
ATOM      3  O   UNL     1      12.926  13.665  31.023  0.00  0.00    +0.000 OA
ATOM      4  O   UNL     1       7.878  14.629  29.917  0.00  0.00    +0.000 OA
ATOM      5  N   UNL     1      11.241  15.190  30.680  0.00  0.00    +0.000 N 
ATOM      6  N   UNL     1       9.461  13.141  30.818  0.00  0.00    +0.000 N 
ATOM      7  C   UNL     1       9.832  15.565  31.016  0.00  0.00    +0.000 C 
ATOM      8  C   UNL     1      11.887  16.210  29.981  0.00  0.00    +0.000 A 
ATOM      9  C   UNL     1       9.709  16.852  30.336  0.00  0.00    +0.000 C 
ATOM     10  C   UNL     1      10.636  13.059  31.747  0.00  0.00    +0.000 C 
ATOM     11  C   UNL     1      10.866  17.268  29.661  0.00  0.00    +0.000 A 
ATOM     12  C   UNL     1      11.737  13.966  31.111  0.00  0.00    +0.000 C 
ATOM     13  C   UNL     1       8.949  14.431  30.493  0.00  0.00    +0.000 C 
ATOM     14  C   UNL     1      13.333  16.525  29.901  0.00  0.00    +0.000 A 
ATOM     15  C   UNL     1      11.370  18.466  29.575  0.00  0.00    +0.000 A 
ATOM     16  C   UNL     1      13.555  17.930  29.695  0.00  0.00    +0.000 A 
ATOM     17  C   UNL     1       8.807  11.887  30.444  0.00  0.00    +0.000 C 
ATOM     18  C   UNL     1      12.846  18.892  29.557  0.00  0.00    +0.000 A 
ENDROOT
BRANCH  14  19
ATOM     19  O   UNL     1      14.295  15.744  30.472  0.00  0.00    +0.000 OA
ATOM     20  H   UNL     1      14.388  14.870  30.040  0.00  0.00    +0.000 HD
ENDBRANCH  14  19
BRANCH  10  21
ATOM     21  C   UNL     1      11.156  11.684  31.975  0.00  0.00    +0.000 C 
BRANCH  21  22
ATOM     22  O   UNL     1      11.633  10.451  32.163  0.00  0.00    +0.000 OA
ATOM     23  H   UNL     1      11.287   9.832  31.492  0.00  0.00    +0.000 HD
ENDBRANCH  21  22
ENDBRANCH  10  21
TORSDOF 3
ENDMDL
MODEL 2
REMARK VINA RESULT:      -5.6     22.649     24.102
REMARK  Name = 6223_Gliotoxin.pdbqt.pdb
REMARK  3 active torsions:
REMARK  status: ('A' for Active; 'I' for Inactive)
REMARK    1  A    between atoms: C_10  and  C_21
REMARK    2  A    between atoms: C_14  and  O_19
REMARK    3  A    between atoms: C_21  and  O_22
REMARK                            x       y       z     vdW  Elec       q    Type
REMARK                         _______ _______ _______ _____ _____    ______ ____
ROOT
ATOM      1  S   UNL     1      -2.540  29.222  15.339  0.00  0.00    +0.000 S 
ATOM      2  S   UNL     1      -1.609  30.022  13.680  0.00  0.00    +0.000 S 
ATOM      3  O   UNL     1      -0.326  26.818  12.572  0.00  0.00    +0.000 OA
ATOM      4  O   UNL     1       0.426  29.019  17.287  0.00  0.00    +0.000 OA
ATOM      5  N   UNL     1      -0.977  27.050  14.764  0.00  0.00    +0.000 N 
ATOM      6  N   UNL     1       0.695  29.184  14.956  0.00  0.00    +0.000 N 
ATOM      7  C   UNL     1      -1.273  28.019  15.865  0.00  0.00    +0.000 C 
ATOM      8  C   UNL     1      -1.358  25.753  15.111  0.00  0.00    +0.000 A 
ATOM      9  C   UNL     1      -1.751  27.123  16.914  0.00  0.00    +0.000 C 
ATOM     10  C   UNL     1      -0.029  29.027  13.651  0.00  0.00    +0.000 C 
ATOM     11  C   UNL     1      -1.778  25.768  16.557  0.00  0.00    +0.000 A 
ATOM     12  C   UNL     1      -0.434  27.520  13.575  0.00  0.00    +0.000 C 
ATOM     13  C   UNL     1       0.036  28.761  16.146  0.00  0.00    +0.000 C 
ATOM     14  C   UNL     1      -1.746  24.622  14.236  0.00  0.00    +0.000 A 
ATOM     15  C   UNL     1      -2.673  24.868  16.845  0.00  0.00    +0.000 A 
ATOM     16  C   UNL     1      -2.675  23.743  14.893  0.00  0.00    +0.000 A 
ATOM     17  C   UNL     1       1.959  29.919  14.942  0.00  0.00    +0.000 C 
ATOM     18  C   UNL     1      -3.188  23.707  15.980  0.00  0.00    +0.000 A 
ENDROOT
BRANCH  14  19
ATOM     19  O   UNL     1      -1.687  24.683  12.874  0.00  0.00    +0.000 OA
ATOM     20  H   UNL     1      -2.569  24.750  12.454  0.00  0.00    +0.000 HD
ENDBRANCH  14  19
BRANCH  10  21
ATOM     21  C   UNL     1       0.757  29.421  12.451  0.00  0.00    +0.000 C 
BRANCH  21  22
ATOM     22  O   UNL     1       1.470  29.757  11.373  0.00  0.00    +0.000 OA
ATOM     23  H   UNL     1       2.369  29.380  11.413  0.00  0.00    +0.000 HD
ENDBRANCH  21  22
ENDBRANCH  10  21
TORSDOF 3
ENDMDL
MODEL 3
REMARK VINA RESULT:      -5.6     22.546     24.119
REMARK  Name = 6223_Gliotoxin.pdbqt.pdb
REMARK  3 active torsions:
REMARK  status: ('A' for Active; 'I' for Inactive)
REMARK    1  A    between atoms: C_10  and  C_21
REMARK    2  A    between atoms: C_14  and  O_19
REMARK    3  A    between atoms: C_21  and  O_22
REMARK                            x       y       z     vdW  Elec       q    Type
REMARK                         _______ _______ _______ _____ _____    ______ ____
ROOT
ATOM      1  S   UNL     1      -2.802  29.393  13.955  0.00  0.00    +0.000 S 
ATOM      2  S   UNL     1      -3.111  29.056  15.968  0.00  0.00    +0.000 S 
ATOM      3  O   UNL     1       0.432  28.975  16.732  0.00  0.00    +0.000 OA
ATOM      4  O   UNL     1      -2.064  26.003  13.186  0.00  0.00    +0.000 OA
ATOM      5  N   UNL     1      -0.238  28.647  14.557  0.00  0.00    +0.000 N 
ATOM      6  N   UNL     1      -1.858  26.650  15.437  0.00  0.00    +0.000 N 
ATOM      7  C   UNL     1      -1.381  28.286  13.662  0.00  0.00    +0.000 C 
ATOM      8  C   UNL     1       0.857  29.107  13.825  0.00  0.00    +0.000 A 
ATOM      9  C   UNL     1      -0.783  28.477  12.343  0.00  0.00    +0.000 C 
ATOM     10  C   UNL     1      -1.737  27.846  16.335  0.00  0.00    +0.000 C 
ATOM     11  C   UNL     1       0.550  28.910  12.365  0.00  0.00    +0.000 A 
ATOM     12  C   UNL     1      -0.394  28.537  15.934  0.00  0.00    +0.000 C 
ATOM     13  C   UNL     1      -1.778  26.855  14.029  0.00  0.00    +0.000 C 
ATOM     14  C   UNL     1       1.945  30.024  14.238  0.00  0.00    +0.000 A 
ATOM     15  C   UNL     1       1.136  29.777  11.591  0.00  0.00    +0.000 A 
ATOM     16  C   UNL     1       2.456  30.772  13.122  0.00  0.00    +0.000 A 
ATOM     17  C   UNL     1      -2.224  25.376  16.056  0.00  0.00    +0.000 C 
ATOM     18  C   UNL     1       2.218  30.810  11.943  0.00  0.00    +0.000 A 
ENDROOT
BRANCH  14  19
ATOM     19  O   UNL     1       2.073  30.498  15.512  0.00  0.00    +0.000 OA
ATOM     20  H   UNL     1       2.012  31.474  15.567  0.00  0.00    +0.000 HD
ENDBRANCH  14  19
BRANCH  10  21
ATOM     21  C   UNL     1      -1.754  27.538  17.790  0.00  0.00    +0.000 C 
BRANCH  21  22
ATOM     22  O   UNL     1      -1.787  27.259  19.096  0.00  0.00    +0.000 OA
ATOM     23  H   UNL     1      -2.701  27.277  19.438  0.00  0.00    +0.000 HD
ENDBRANCH  21  22
ENDBRANCH  10  21
TORSDOF 3
ENDMDL
MODEL 4
REMARK VINA RESULT:      -5.5      9.556     11.206
REMARK  Name = 6223_Gliotoxin.pdbqt.pdb
REMARK  3 active torsions:
REMARK  status: ('A' for Active; 'I' for Inactive)
REMARK    1  A    between atoms: C_10  and  C_21
REMARK    2  A    between atoms: C_14  and  O_19
REMARK    3  A    between atoms: C_21  and  O_22
REMARK                            x       y       z     vdW  Elec       q    Type
REMARK                         _______ _______ _______ _____ _____    ______ ____
ROOT
ATOM      1  S   UNL     1      10.719  24.094  30.006  0.00  0.00    +0.000 S 
ATOM      2  S   UNL     1       9.264  22.675  30.367  0.00  0.00    +0.000 S 
ATOM      3  O   UNL     1       6.862  24.244  28.150  0.00  0.00    +0.000 OA
ATOM      4  O   UNL     1       9.329  26.524  32.195  0.00  0.00    +0.000 OA
ATOM      5  N   UNL     1       8.627  25.494  28.931  0.00  0.00    +0.000 N 
ATOM      6  N   UNL     1       7.893  24.814  31.458  0.00  0.00    +0.000 N 
ATOM      7  C   UNL     1       9.692  25.602  29.976  0.00  0.00    +0.000 C 
ATOM      8  C   UNL     1       8.811  26.434  27.917  0.00  0.00    +0.000 A 
ATOM      9  C   UNL     1      10.430  26.774  29.512  0.00  0.00    +0.000 C 
ATOM     10  C   UNL     1       7.735  23.747  30.415  0.00  0.00    +0.000 C 
ATOM     11  C   UNL     1       9.933  27.346  28.332  0.00  0.00    +0.000 A 
ATOM     12  C   UNL     1       7.659  24.503  29.050  0.00  0.00    +0.000 C 
ATOM     13  C   UNL     1       8.966  25.740  31.316  0.00  0.00    +0.000 C 
ATOM     14  C   UNL     1       8.380  26.384  26.500  0.00  0.00    +0.000 A 
ATOM     15  C   UNL     1      10.596  27.843  27.328  0.00  0.00    +0.000 A 
ATOM     16  C   UNL     1       9.273  27.125  25.651  0.00  0.00    +0.000 A 
ATOM     17  C   UNL     1       7.042  24.728  32.644  0.00  0.00    +0.000 C 
ATOM     18  C   UNL     1      10.266  27.781  25.828  0.00  0.00    +0.000 A 
ENDROOT
BRANCH  14  19
ATOM     19  O   UNL     1       7.612  25.376  25.992  0.00  0.00    +0.000 OA
ATOM     20  H   UNL     1       6.652  25.531  26.103  0.00  0.00    +0.000 HD
ENDBRANCH  14  19
BRANCH  10  21
ATOM     21  C   UNL     1       6.548  22.869  30.594  0.00  0.00    +0.000 C 
BRANCH  21  22
ATOM     22  O   UNL     1       5.490  22.067  30.746  0.00  0.00    +0.000 OA
ATOM     23  H   UNL     1       5.224  21.669  29.896  0.00  0.00    +0.000 HD
ENDBRANCH  21  22
ENDBRANCH  10  21
TORSDOF 3
ENDMDL
MODEL 5
REMARK VINA RESULT:      -5.5     23.529     25.326
REMARK  Name = 6223_Gliotoxin.pdbqt.pdb
REMARK  3 active torsions:
REMARK  status: ('A' for Active; 'I' for Inactive)
REMARK    1  A    between atoms: C_10  and  C_21
REMARK    2  A    between atoms: C_14  and  O_19
REMARK    3  A    between atoms: C_21  and  O_22
REMARK                            x       y       z     vdW  Elec       q    Type
REMARK                         _______ _______ _______ _____ _____    ______ ____
ROOT
ATOM      1  S   UNL     1      -1.831  30.217  12.948  0.00  0.00    +0.000 S 
ATOM      2  S   UNL     1      -1.645  30.028  14.995  0.00  0.00    +0.000 S 
ATOM      3  O   UNL     1       1.946  30.518  14.944  0.00  0.00    +0.000 OA
ATOM      4  O   UNL     1      -0.750  26.907  12.236  0.00  0.00    +0.000 OA
ATOM      5  N   UNL     1       0.887  29.897  13.000  0.00  0.00    +0.000 N 
ATOM      6  N   UNL     1      -0.171  27.784  14.340  0.00  0.00    +0.000 N 
ATOM      7  C   UNL     1      -0.349  29.297  12.409  0.00  0.00    +0.000 C 
ATOM      8  C   UNL     1       1.713  30.437  12.014  0.00  0.00    +0.000 A 
ATOM      9  C   UNL     1      -0.085  29.447  10.980  0.00  0.00    +0.000 C 
ATOM     10  C   UNL     1      -0.051  29.063  15.114  0.00  0.00    +0.000 C 
ATOM     11  C   UNL     1       1.137  30.063  10.675  0.00  0.00    +0.000 A 
ATOM     12  C   UNL     1       1.048  29.895  14.380  0.00  0.00    +0.000 C 
ATOM     13  C   UNL     1      -0.428  27.865  12.941  0.00  0.00    +0.000 C 
ATOM     14  C   UNL     1       2.706  31.532  12.115  0.00  0.00    +0.000 A 
ATOM     15  C   UNL     1       1.399  30.928   9.738  0.00  0.00    +0.000 A 
ATOM     16  C   UNL     1       2.842  32.237  10.869  0.00  0.00    +0.000 A 
ATOM     17  C   UNL     1      -0.191  26.534  15.101  0.00  0.00    +0.000 C 
ATOM     18  C   UNL     1       2.355  32.131   9.775  0.00  0.00    +0.000 A 
ENDROOT
BRANCH  14  19
ATOM     19  O   UNL     1       3.027  32.136  13.296  0.00  0.00    +0.000 OA
ATOM     20  H   UNL     1       3.988  32.132  13.482  0.00  0.00    +0.000 HD
ENDBRANCH  14  19
BRANCH  10  21
ATOM     21  C   UNL     1       0.292  28.893  16.552  0.00  0.00    +0.000 C 
BRANCH  21  22
ATOM     22  O   UNL     1       0.590  28.755  17.846  0.00  0.00    +0.000 OA
ATOM     23  H   UNL     1       0.960  29.580  18.214  0.00  0.00    +0.000 HD
ENDBRANCH  21  22
ENDBRANCH  10  21
TORSDOF 3
ENDMDL
MODEL 6
REMARK VINA RESULT:      -5.3     22.605     23.478
REMARK  Name = 6223_Gliotoxin.pdbqt.pdb
REMARK  3 active torsions:
REMARK  status: ('A' for Active; 'I' for Inactive)
REMARK    1  A    between atoms: C_10  and  C_21
REMARK    2  A    between atoms: C_14  and  O_19
REMARK    3  A    between atoms: C_21  and  O_22
REMARK                            x       y       z     vdW  Elec       q    Type
REMARK                         _______ _______ _______ _____ _____    ______ ____
ROOT
ATOM      1  S   UNL     1      -3.897  27.960  14.304  0.00  0.00    +0.000 S 
ATOM      2  S   UNL     1      -4.673  27.381  16.127  0.00  0.00    +0.000 S 
ATOM      3  O   UNL     1      -1.433  27.355  17.755  0.00  0.00    +0.000 OA
ATOM      4  O   UNL     1      -2.763  24.713  13.408  0.00  0.00    +0.000 OA
ATOM      5  N   UNL     1      -1.519  27.252  15.460  0.00  0.00    +0.000 N 
ATOM      6  N   UNL     1      -3.167  25.104  15.692  0.00  0.00    +0.000 N 
ATOM      7  C   UNL     1      -2.376  26.952  14.272  0.00  0.00    +0.000 C 
ATOM      8  C   UNL     1      -0.310  27.838  15.081  0.00  0.00    +0.000 A 
ATOM      9  C   UNL     1      -1.484  27.317  13.175  0.00  0.00    +0.000 C 
ATOM     10  C   UNL     1      -3.354  26.193  16.708  0.00  0.00    +0.000 C 
ATOM     11  C   UNL     1      -0.230  27.798  13.579  0.00  0.00    +0.000 A 
ATOM     12  C   UNL     1      -2.004  26.979  16.733  0.00  0.00    +0.000 C 
ATOM     13  C   UNL     1      -2.754  25.473  14.379  0.00  0.00    +0.000 C 
ATOM     14  C   UNL     1       0.576  28.745  15.848  0.00  0.00    +0.000 A 
ATOM     15  C   UNL     1       0.469  28.772  13.071  0.00  0.00    +0.000 A 
ATOM     16  C   UNL     1       1.297  29.636  14.980  0.00  0.00    +0.000 A 
ATOM     17  C   UNL     1      -3.587  23.754  16.065  0.00  0.00    +0.000 C 
ATOM     18  C   UNL     1       1.357  29.800  13.790  0.00  0.00    +0.000 A 
ENDROOT
BRANCH  14  19
ATOM     19  O   UNL     1       0.351  29.074  17.154  0.00  0.00    +0.000 OA
ATOM     20  H   UNL     1      -0.300  28.489  17.591  0.00  0.00    +0.000 HD
ENDBRANCH  14  19
BRANCH  10  21
ATOM     21  C   UNL     1      -3.711  25.719  18.072  0.00  0.00    +0.000 C 
BRANCH  21  22
ATOM     22  O   UNL     1      -4.021  25.278  19.294  0.00  0.00    +0.000 OA
ATOM     23  H   UNL     1      -3.830  24.325  19.385  0.00  0.00    +0.000 HD
ENDBRANCH  21  22
ENDBRANCH  10  21
TORSDOF 3
ENDMDL
MODEL 7
REMARK VINA RESULT:      -5.1     30.174     31.060
REMARK  Name = 6223_Gliotoxin.pdbqt.pdb
REMARK  3 active torsions:
REMARK  status: ('A' for Active; 'I' for Inactive)
REMARK    1  A    between atoms: C_10  and  C_21
REMARK    2  A    between atoms: C_14  and  O_19
REMARK    3  A    between atoms: C_21  and  O_22
REMARK                            x       y       z     vdW  Elec       q    Type
REMARK                         _______ _______ _______ _____ _____    ______ ____
ROOT
ATOM      1  S   UNL     1      21.776  31.510   4.223  0.00  0.00    +0.000 S 
ATOM      2  S   UNL     1      21.841  32.938   5.711  0.00  0.00    +0.000 S 
ATOM      3  O   UNL     1      23.242  30.656   8.155  0.00  0.00    +0.000 OA
ATOM      4  O   UNL     1      18.809  29.959   5.417  0.00  0.00    +0.000 OA
ATOM      5  N   UNL     1      22.182  29.786   6.311  0.00  0.00    +0.000 N 
ATOM      6  N   UNL     1      20.006  31.283   6.948  0.00  0.00    +0.000 N 
ATOM      7  C   UNL     1      21.227  30.065   5.194  0.00  0.00    +0.000 C 
ATOM      8  C   UNL     1      22.820  28.557   6.140  0.00  0.00    +0.000 A 
ATOM      9  C   UNL     1      21.301  28.819   4.436  0.00  0.00    +0.000 C 
ATOM     10  C   UNL     1      21.341  31.921   7.195  0.00  0.00    +0.000 C 
ATOM     11  C   UNL     1      22.181  27.865   4.966  0.00  0.00    +0.000 A 
ATOM     12  C   UNL     1      22.356  30.739   7.307  0.00  0.00    +0.000 C 
ATOM     13  C   UNL     1      19.882  30.385   5.850  0.00  0.00    +0.000 C 
ATOM     14  C   UNL     1      24.141  28.107   6.639  0.00  0.00    +0.000 A 
ATOM     15  C   UNL     1      22.990  27.065   4.334  0.00  0.00    +0.000 A 
ATOM     16  C   UNL     1      24.733  27.135   5.760  0.00  0.00    +0.000 A 
ATOM     17  C   UNL     1      18.874  31.757   7.745  0.00  0.00    +0.000 C 
ATOM     18  C   UNL     1      24.398  26.599   4.737  0.00  0.00    +0.000 A 
ENDROOT
BRANCH  14  19
ATOM     19  O   UNL     1      24.919  28.863   7.467  0.00  0.00    +0.000 OA
ATOM     20  H   UNL     1      25.714  29.224   7.024  0.00  0.00    +0.000 HD
ENDBRANCH  14  19
BRANCH  10  21
ATOM     21  C   UNL     1      21.406  32.785   8.405  0.00  0.00    +0.000 C 
BRANCH  21  22
ATOM     22  O   UNL     1      21.475  33.547   9.499  0.00  0.00    +0.000 OA
ATOM     23  H   UNL     1      22.308  33.395   9.984  0.00  0.00    +0.000 HD
ENDBRANCH  21  22
ENDBRANCH  10  21
TORSDOF 3
ENDMDL
MODEL 8
REMARK VINA RESULT:      -5.1     14.102     15.996
REMARK  Name = 6223_Gliotoxin.pdbqt.pdb
REMARK  3 active torsions:
REMARK  status: ('A' for Active; 'I' for Inactive)
REMARK    1  A    between atoms: C_10  and  C_21
REMARK    2  A    between atoms: C_14  and  O_19
REMARK    3  A    between atoms: C_21  and  O_22
REMARK                            x       y       z     vdW  Elec       q    Type
REMARK                         _______ _______ _______ _____ _____    ______ ____
ROOT
ATOM      1  S   UNL     1      26.383  12.579  27.136  0.00  0.00    +0.000 S 
ATOM      2  S   UNL     1      24.423  12.143  27.612  0.00  0.00    +0.000 S 
ATOM      3  O   UNL     1      23.418  11.795  24.147  0.00  0.00    +0.000 OA
ATOM      4  O   UNL     1      25.749  15.979  26.315  0.00  0.00    +0.000 OA
ATOM      5  N   UNL     1      25.349  12.946  24.628  0.00  0.00    +0.000 N 
ATOM      6  N   UNL     1      23.903  14.522  26.304  0.00  0.00    +0.000 N 
ATOM      7  C   UNL     1      26.124  13.661  25.689  0.00  0.00    +0.000 C 
ATOM      8  C   UNL     1      26.116  12.755  23.478  0.00  0.00    +0.000 A 
ATOM      9  C   UNL     1      27.367  13.960  24.982  0.00  0.00    +0.000 C 
ATOM     10  C   UNL     1      23.520  13.072  26.267  0.00  0.00    +0.000 C 
ATOM     11  C   UNL     1      27.410  13.501  23.658  0.00  0.00    +0.000 A 
ATOM     12  C   UNL     1      24.050  12.533  24.900  0.00  0.00    +0.000 C 
ATOM     13  C   UNL     1      25.273  14.861  26.107  0.00  0.00    +0.000 C 
ATOM     14  C   UNL     1      26.000  11.709  22.434  0.00  0.00    +0.000 A 
ATOM     15  C   UNL     1      28.408  12.969  23.014  0.00  0.00    +0.000 A 
ATOM     16  C   UNL     1      27.274  11.420  21.834  0.00  0.00    +0.000 A 
ATOM     17  C   UNL     1      22.877  15.480  26.714  0.00  0.00    +0.000 C 
ATOM     18  C   UNL     1      28.393  11.839  21.972  0.00  0.00    +0.000 A 
ENDROOT
BRANCH  14  19
ATOM     19  O   UNL     1      24.996  10.785  22.417  0.00  0.00    +0.000 OA
ATOM     20  H   UNL     1      24.105  11.183  22.495  0.00  0.00    +0.000 HD
ENDBRANCH  14  19
BRANCH  10  21
ATOM     21  C   UNL     1      22.063  12.807  26.406  0.00  0.00    +0.000 C 
BRANCH  21  22
ATOM     22  O   UNL     1      20.755  12.560  26.514  0.00  0.00    +0.000 OA
ATOM     23  H   UNL     1      20.344  12.439  25.637  0.00  0.00    +0.000 HD
ENDBRANCH  21  22
ENDBRANCH  10  21
TORSDOF 3
ENDMDL
MODEL 9
REMARK VINA RESULT:      -4.9     13.091     16.216
REMARK  Name = 6223_Gliotoxin.pdbqt.pdb
REMARK  3 active torsions:
REMARK  status: ('A' for Active; 'I' for Inactive)
REMARK    1  A    between atoms: C_10  and  C_21
REMARK    2  A    between atoms: C_14  and  O_19
REMARK    3  A    between atoms: C_21  and  O_22
REMARK                            x       y       z     vdW  Elec       q    Type
REMARK                         _______ _______ _______ _____ _____    ______ ____
ROOT
ATOM      1  S   UNL     1       4.387   0.489  26.069  0.00  0.00    +0.000 S 
ATOM      2  S   UNL     1       3.317   2.132  26.714  0.00  0.00    +0.000 S 
ATOM      3  O   UNL     1       3.700   3.901  23.573  0.00  0.00    +0.000 OA
ATOM      4  O   UNL     1       7.573   1.984  26.568  0.00  0.00    +0.000 OA
ATOM      5  N   UNL     1       5.150   2.184  24.059  0.00  0.00    +0.000 N 
ATOM      6  N   UNL     1       5.732   3.438  26.398  0.00  0.00    +0.000 N 
ATOM      7  C   UNL     1       5.720   1.323  25.141  0.00  0.00    +0.000 C 
ATOM      8  C   UNL     1       5.507   1.716  22.794  0.00  0.00    +0.000 A 
ATOM      9  C   UNL     1       6.532   0.390  24.365  0.00  0.00    +0.000 C 
ATOM     10  C   UNL     1       4.305   3.518  25.945  0.00  0.00    +0.000 C 
ATOM     11  C   UNL     1       6.496   0.596  22.980  0.00  0.00    +0.000 A 
ATOM     12  C   UNL     1       4.340   3.259  24.404  0.00  0.00    +0.000 C 
ATOM     13  C   UNL     1       6.474   2.263  26.084  0.00  0.00    +0.000 C 
ATOM     14  C   UNL     1       4.808   1.883  21.498  0.00  0.00    +0.000 A 
ATOM     15  C   UNL     1       6.460  -0.289  22.026  0.00  0.00    +0.000 A 
ATOM     16  C   UNL     1       5.059   0.774  20.618  0.00  0.00    +0.000 A 
ATOM     17  C   UNL     1       6.219   4.496  27.283  0.00  0.00    +0.000 C 
ATOM     18  C   UNL     1       5.710  -0.234  20.686  0.00  0.00    +0.000 A 
ENDROOT
BRANCH  14  19
ATOM     19  O   UNL     1       3.689   2.650  21.352  0.00  0.00    +0.000 OA
ATOM     20  H   UNL     1       3.802   3.563  21.685  0.00  0.00    +0.000 HD
ENDBRANCH  14  19
BRANCH  10  21
ATOM     21  C   UNL     1       3.625   4.806  26.245  0.00  0.00    +0.000 C 
BRANCH  21  22
ATOM     22  O   UNL     1       3.025   5.972  26.501  0.00  0.00    +0.000 OA
ATOM     23  H   UNL     1       2.723   6.402  25.679  0.00  0.00    +0.000 HD
ENDBRANCH  21  22
ENDBRANCH  10  21
TORSDOF 3
ENDMDL
