MODEL 1
REMARK VINA RESULT:      -5.3      0.000      0.000
REMARK  Name = 6256_Trifluridine.pdbqt.pdb
REMARK  5 active torsions:
REMARK  status: ('A' for Active; 'I' for Inactive)
REMARK    1  A    between atoms: N_3  and  C1*_11
REMARK    2  A    between atoms: C_7  and  C_23
REMARK    3  A    between atoms: C3*_12  and  O3*_15
REMARK    4  A    between atoms: C4*_14  and  C5*_17
REMARK    5  A    between atoms: C5*_17  and  O5*_18
REMARK                            x       y       z     vdW  Elec       q    Type
REMARK                         _______ _______ _______ _____ _____    ______ ____
ROOT
ATOM      1  O   UNL     1      24.208  23.355  28.050  0.00  0.00    +0.000 OA
ATOM      2  O   UNL     1      22.866  19.023  27.346  0.00  0.00    +0.000 OA
ATOM      3  N   UNL     1      23.722  22.687  25.831  0.00  0.00    +0.000 N 
ATOM      4  N   UNL     1      23.525  21.202  27.635  0.00  0.00    +0.000 N 
ATOM      5  C   UNL     1      23.319  21.613  25.123  0.00  0.00    +0.000 A 
ATOM      6  C   UNL     1      23.855  22.518  27.227  0.00  0.00    +0.000 A 
ATOM      7  C   UNL     1      23.003  20.390  25.399  0.00  0.00    +0.000 A 
ATOM      8  C   UNL     1      23.112  20.116  26.855  0.00  0.00    +0.000 A 
ATOM      9  H   UNL     1      23.606  21.029  28.627  0.00  0.00    +0.000 HD
ENDROOT
BRANCH   3  11
ATOM     10  O4* UNL     1      23.394  25.067  25.554  0.00  0.00    +0.000 OA
ATOM     11  C1* UNL     1      23.982  23.855  25.174  0.00  0.00    +0.000 A 
ATOM     12  C3* UNL     1      24.753  25.425  23.713  0.00  0.00    +0.000 A 
ATOM     13  C2* UNL     1      24.803  24.061  24.048  0.00  0.00    +0.000 A 
ATOM     14  C4* UNL     1      23.859  26.042  24.661  0.00  0.00    +0.000 A 
BRANCH  12  15
ATOM     15  O3* UNL     1      24.868  25.907  22.440  0.00  0.00    +0.000 OA
ATOM     16  H3* UNL     1      25.619  25.495  21.977  0.00  0.00    +0.000 HD
ENDBRANCH  12  15
BRANCH  14  17
ATOM     17  C5* UNL     1      23.321  27.342  24.615  0.00  0.00    +0.000 C 
BRANCH  17  18
ATOM     18  O5* UNL     1      22.810  28.569  24.569  0.00  0.00    +0.000 OA
ATOM     19  H5* UNL     1      23.018  28.988  23.716  0.00  0.00    +0.000 HD
ENDBRANCH  17  18
ENDBRANCH  14  17
ENDBRANCH   3  11
BRANCH   7  23
ATOM     20  F   UNL     1      21.360  18.816  24.806  0.00  0.00    +0.000 F 
ATOM     21  F   UNL     1      22.542  19.696  23.210  0.00  0.00    +0.000 F 
ATOM     22  F   UNL     1      23.457  18.249  24.545  0.00  0.00    +0.000 F 
ATOM     23  C   UNL     1      22.595  19.295  24.510  0.00  0.00    +0.000 C 
ENDBRANCH   7  23
TORSDOF 5
ENDMDL
MODEL 2
REMARK VINA RESULT:      -5.2      5.328      9.557
REMARK  Name = 6256_Trifluridine.pdbqt.pdb
REMARK  5 active torsions:
REMARK  status: ('A' for Active; 'I' for Inactive)
REMARK    1  A    between atoms: N_3  and  C1*_11
REMARK    2  A    between atoms: C_7  and  C_23
REMARK    3  A    between atoms: C3*_12  and  O3*_15
REMARK    4  A    between atoms: C4*_14  and  C5*_17
REMARK    5  A    between atoms: C5*_17  and  O5*_18
REMARK                            x       y       z     vdW  Elec       q    Type
REMARK                         _______ _______ _______ _____ _____    ______ ____
ROOT
ATOM      1  O   UNL     1      25.571  15.273  27.874  0.00  0.00    +0.000 OA
ATOM      2  O   UNL     1      24.221  19.466  26.586  0.00  0.00    +0.000 OA
ATOM      3  N   UNL     1      23.786  15.442  26.326  0.00  0.00    +0.000 N 
ATOM      4  N   UNL     1      24.855  17.344  27.186  0.00  0.00    +0.000 N 
ATOM      5  C   UNL     1      23.054  16.361  25.666  0.00  0.00    +0.000 A 
ATOM      6  C   UNL     1      24.798  15.928  27.184  0.00  0.00    +0.000 A 
ATOM      7  C   UNL     1      23.028  17.652  25.606  0.00  0.00    +0.000 A 
ATOM      8  C   UNL     1      24.064  18.258  26.480  0.00  0.00    +0.000 A 
ATOM      9  H   UNL     1      25.563  17.742  27.786  0.00  0.00    +0.000 HD
ENDROOT
BRANCH   3  11
ATOM     10  O4* UNL     1      24.023  13.399  25.054  0.00  0.00    +0.000 OA
ATOM     11  C1* UNL     1      23.513  14.117  26.140  0.00  0.00    +0.000 A 
ATOM     12  C3* UNL     1      22.702  11.996  26.338  0.00  0.00    +0.000 A 
ATOM     13  C2* UNL     1      22.700  13.275  26.923  0.00  0.00    +0.000 A 
ATOM     14  C4* UNL     1      23.531  12.092  25.162  0.00  0.00    +0.000 A 
BRANCH  12  15
ATOM     15  O3* UNL     1      21.649  11.128  26.388  0.00  0.00    +0.000 OA
ATOM     16  H3* UNL     1      20.816  11.576  26.159  0.00  0.00    +0.000 HD
ENDBRANCH  12  15
BRANCH  14  17
ATOM     17  C5* UNL     1      23.673  11.142  24.133  0.00  0.00    +0.000 C 
BRANCH  17  18
ATOM     18  O5* UNL     1      23.809  10.242  23.163  0.00  0.00    +0.000 OA
ATOM     19  H5* UNL     1      24.696   9.843  23.197  0.00  0.00    +0.000 HD
ENDBRANCH  17  18
ENDBRANCH  14  17
ENDBRANCH   3  11
BRANCH   7  23
ATOM     20  F   UNL     1      21.663  19.566  25.603  0.00  0.00    +0.000 F 
ATOM     21  F   UNL     1      22.793  19.127  23.801  0.00  0.00    +0.000 F 
ATOM     22  F   UNL     1      21.080  17.896  24.315  0.00  0.00    +0.000 F 
ATOM     23  C   UNL     1      22.143  18.546  24.848  0.00  0.00    +0.000 C 
ENDBRANCH   7  23
TORSDOF 5
ENDMDL
MODEL 3
REMARK VINA RESULT:      -4.9     24.100     25.552
REMARK  Name = 6256_Trifluridine.pdbqt.pdb
REMARK  5 active torsions:
REMARK  status: ('A' for Active; 'I' for Inactive)
REMARK    1  A    between atoms: N_3  and  C1*_11
REMARK    2  A    between atoms: C_7  and  C_23
REMARK    3  A    between atoms: C3*_12  and  O3*_15
REMARK    4  A    between atoms: C4*_14  and  C5*_17
REMARK    5  A    between atoms: C5*_17  and  O5*_18
REMARK                            x       y       z     vdW  Elec       q    Type
REMARK                         _______ _______ _______ _____ _____    ______ ____
ROOT
ATOM      1  O   UNL     1       1.998  31.148  10.896  0.00  0.00    +0.000 OA
ATOM      2  O   UNL     1      -0.517  27.636  12.448  0.00  0.00    +0.000 OA
ATOM      3  N   UNL     1       2.109  30.633  13.205  0.00  0.00    +0.000 N 
ATOM      4  N   UNL     1       0.768  29.398  11.731  0.00  0.00    +0.000 N 
ATOM      5  C   UNL     1       1.612  29.770  14.112  0.00  0.00    +0.000 A 
ATOM      6  C   UNL     1       1.676  30.476  11.869  0.00  0.00    +0.000 A 
ATOM      7  C   UNL     1       0.790  28.772  14.085  0.00  0.00    +0.000 A 
ATOM      8  C   UNL     1       0.278  28.528  12.712  0.00  0.00    +0.000 A 
ATOM      9  H   UNL     1       0.427  29.244  10.793  0.00  0.00    +0.000 HD
ENDROOT
BRANCH   3  11
ATOM     10  O4* UNL     1       4.262  31.726  13.067  0.00  0.00    +0.000 OA
ATOM     11  C1* UNL     1       2.982  31.599  13.616  0.00  0.00    +0.000 A 
ATOM     12  C3* UNL     1       3.976  33.337  14.706  0.00  0.00    +0.000 A 
ATOM     13  C2* UNL     1       2.802  32.569  14.622  0.00  0.00    +0.000 A 
ATOM     14  C4* UNL     1       4.886  32.791  13.730  0.00  0.00    +0.000 A 
BRANCH  12  15
ATOM     15  O3* UNL     1       4.440  33.907  15.858  0.00  0.00    +0.000 OA
ATOM     16  H3* UNL     1       4.619  33.230  16.534  0.00  0.00    +0.000 HD
ENDBRANCH  12  15
BRANCH  14  17
ATOM     17  C5* UNL     1       6.257  33.078  13.578  0.00  0.00    +0.000 C 
BRANCH  17  18
ATOM     18  O5* UNL     1       7.550  33.351  13.432  0.00  0.00    +0.000 OA
ATOM     19  H5* UNL     1       7.955  33.532  14.297  0.00  0.00    +0.000 HD
ENDBRANCH  17  18
ENDBRANCH  14  17
ENDBRANCH   3  11
BRANCH   7  23
ATOM     20  F   UNL     1      -1.047  27.832  15.210  0.00  0.00    +0.000 F 
ATOM     21  F   UNL     1       0.758  26.636  15.046  0.00  0.00    +0.000 F 
ATOM     22  F   UNL     1       0.722  28.338  16.393  0.00  0.00    +0.000 F 
ATOM     23  C   UNL     1       0.306  27.915  15.174  0.00  0.00    +0.000 C 
ENDBRANCH   7  23
TORSDOF 5
ENDMDL
MODEL 4
REMARK VINA RESULT:      -4.7      4.489      6.478
REMARK  Name = 6256_Trifluridine.pdbqt.pdb
REMARK  5 active torsions:
REMARK  status: ('A' for Active; 'I' for Inactive)
REMARK    1  A    between atoms: N_3  and  C1*_11
REMARK    2  A    between atoms: C_7  and  C_23
REMARK    3  A    between atoms: C3*_12  and  O3*_15
REMARK    4  A    between atoms: C4*_14  and  C5*_17
REMARK    5  A    between atoms: C5*_17  and  O5*_18
REMARK                            x       y       z     vdW  Elec       q    Type
REMARK                         _______ _______ _______ _____ _____    ______ ____
ROOT
ATOM      1  O   UNL     1      25.932  17.457  27.759  0.00  0.00    +0.000 OA
ATOM      2  O   UNL     1      25.359  12.927  27.300  0.00  0.00    +0.000 OA
ATOM      3  N   UNL     1      23.968  16.687  26.684  0.00  0.00    +0.000 N 
ATOM      4  N   UNL     1      25.585  15.201  27.506  0.00  0.00    +0.000 N 
ATOM      5  C   UNL     1      23.352  15.545  26.317  0.00  0.00    +0.000 A 
ATOM      6  C   UNL     1      25.210  16.558  27.346  0.00  0.00    +0.000 A 
ATOM      7  C   UNL     1      23.612  14.283  26.414  0.00  0.00    +0.000 A 
ATOM      8  C   UNL     1      24.907  14.046  27.101  0.00  0.00    +0.000 A 
ATOM      9  H   UNL     1      26.469  15.055  27.973  0.00  0.00    +0.000 HD
ENDROOT
BRANCH   3  11
ATOM     10  O4* UNL     1      23.553  18.525  25.168  0.00  0.00    +0.000 OA
ATOM     11  C1* UNL     1      23.375  17.883  26.398  0.00  0.00    +0.000 A 
ATOM     12  C3* UNL     1      22.191  19.827  26.514  0.00  0.00    +0.000 A 
ATOM     13  C2* UNL     1      22.556  18.673  27.229  0.00  0.00    +0.000 A 
ATOM     14  C4* UNL     1      22.830  19.723  25.226  0.00  0.00    +0.000 A 
BRANCH  12  15
ATOM     15  O3* UNL     1      21.961  21.045  27.089  0.00  0.00    +0.000 OA
ATOM     16  H3* UNL     1      22.192  21.767  26.479  0.00  0.00    +0.000 HD
ENDBRANCH  12  15
BRANCH  14  17
ATOM     17  C5* UNL     1      22.942  20.723  24.240  0.00  0.00    +0.000 C 
BRANCH  17  18
ATOM     18  O5* UNL     1      23.049  21.669  23.312  0.00  0.00    +0.000 OA
ATOM     19  H5* UNL     1      22.475  22.423  23.533  0.00  0.00    +0.000 HD
ENDBRANCH  17  18
ENDBRANCH  14  17
ENDBRANCH   3  11
BRANCH   7  23
ATOM     20  F   UNL     1      22.583  12.233  26.930  0.00  0.00    +0.000 F 
ATOM     21  F   UNL     1      21.642  13.487  25.428  0.00  0.00    +0.000 F 
ATOM     22  F   UNL     1      23.487  12.449  24.949  0.00  0.00    +0.000 F 
ATOM     23  C   UNL     1      22.850  13.121  25.939  0.00  0.00    +0.000 C 
ENDBRANCH   7  23
TORSDOF 5
ENDMDL
MODEL 5
REMARK VINA RESULT:      -4.6     15.468     17.094
REMARK  Name = 6256_Trifluridine.pdbqt.pdb
REMARK  5 active torsions:
REMARK  status: ('A' for Active; 'I' for Inactive)
REMARK    1  A    between atoms: N_3  and  C1*_11
REMARK    2  A    between atoms: C_7  and  C_23
REMARK    3  A    between atoms: C3*_12  and  O3*_15
REMARK    4  A    between atoms: C4*_14  and  C5*_17
REMARK    5  A    between atoms: C5*_17  and  O5*_18
REMARK                            x       y       z     vdW  Elec       q    Type
REMARK                         _______ _______ _______ _____ _____    ______ ____
ROOT
ATOM      1  O   UNL     1       5.922  21.226  31.295  0.00  0.00    +0.000 OA
ATOM      2  O   UNL     1       5.549  25.272  29.162  0.00  0.00    +0.000 OA
ATOM      3  N   UNL     1       7.834  22.082  30.190  0.00  0.00    +0.000 N 
ATOM      4  N   UNL     1       5.800  23.249  30.216  0.00  0.00    +0.000 N 
ATOM      5  C   UNL     1       8.238  23.144  29.466  0.00  0.00    +0.000 A 
ATOM      6  C   UNL     1       6.491  22.085  30.632  0.00  0.00    +0.000 A 
ATOM      7  C   UNL     1       7.690  24.234  29.038  0.00  0.00    +0.000 A 
ATOM      8  C   UNL     1       6.268  24.328  29.457  0.00  0.00    +0.000 A 
ATOM      9  H   UNL     1       4.833  23.299  30.506  0.00  0.00    +0.000 HD
ENDROOT
BRANCH   3  11
ATOM     10  O4* UNL     1       8.587  19.804  29.885  0.00  0.00    +0.000 OA
ATOM     11  C1* UNL     1       8.721  21.077  30.449  0.00  0.00    +0.000 A 
ATOM     12  C3* UNL     1      10.449  19.833  31.261  0.00  0.00    +0.000 A 
ATOM     13  C2* UNL     1       9.847  21.102  31.296  0.00  0.00    +0.000 A 
ATOM     14  C4* UNL     1       9.643  19.028  30.378  0.00  0.00    +0.000 A 
BRANCH  12  15
ATOM     15  O3* UNL     1      11.116  19.271  32.312  0.00  0.00    +0.000 OA
ATOM     16  H3* UNL     1      11.724  18.574  32.007  0.00  0.00    +0.000 HD
ENDBRANCH  12  15
BRANCH  14  17
ATOM     17  C5* UNL     1       9.713  17.634  30.183  0.00  0.00    +0.000 C 
BRANCH  17  18
ATOM     18  O5* UNL     1       9.777  16.318  30.002  0.00  0.00    +0.000 OA
ATOM     19  H5* UNL     1       9.217  16.054  29.251  0.00  0.00    +0.000 HD
ENDBRANCH  17  18
ENDBRANCH  14  17
ENDBRANCH   3  11
BRANCH   7  23
ATOM     20  F   UNL     1       9.532  25.077  27.846  0.00  0.00    +0.000 F 
ATOM     21  F   UNL     1       7.548  25.494  27.068  0.00  0.00    +0.000 F 
ATOM     22  F   UNL     1       8.231  26.514  28.858  0.00  0.00    +0.000 F 
ATOM     23  C   UNL     1       8.251  25.318  28.221  0.00  0.00    +0.000 C 
ENDBRANCH   7  23
TORSDOF 5
ENDMDL
MODEL 6
REMARK VINA RESULT:      -4.6     23.670     25.332
REMARK  Name = 6256_Trifluridine.pdbqt.pdb
REMARK  5 active torsions:
REMARK  status: ('A' for Active; 'I' for Inactive)
REMARK    1  A    between atoms: N_3  and  C1*_11
REMARK    2  A    between atoms: C_7  and  C_23
REMARK    3  A    between atoms: C3*_12  and  O3*_15
REMARK    4  A    between atoms: C4*_14  and  C5*_17
REMARK    5  A    between atoms: C5*_17  and  O5*_18
REMARK                            x       y       z     vdW  Elec       q    Type
REMARK                         _______ _______ _______ _____ _____    ______ ____
ROOT
ATOM      1  O   UNL     1       3.613  33.127  10.936  0.00  0.00    +0.000 OA
ATOM      2  O   UNL     1       0.459  29.792  10.927  0.00  0.00    +0.000 OA
ATOM      3  N   UNL     1       3.213  31.967  12.962  0.00  0.00    +0.000 N 
ATOM      4  N   UNL     1       2.052  31.444  10.993  0.00  0.00    +0.000 N 
ATOM      5  C   UNL     1       2.454  30.977  13.471  0.00  0.00    +0.000 A 
ATOM      6  C   UNL     1       3.033  32.270  11.594  0.00  0.00    +0.000 A 
ATOM      7  C   UNL     1       1.544  30.181  13.012  0.00  0.00    +0.000 A 
ATOM      8  C   UNL     1       1.284  30.425  11.571  0.00  0.00    +0.000 A 
ATOM      9  H   UNL     1       1.884  31.622  10.013  0.00  0.00    +0.000 HD
ENDROOT
BRANCH   3  11
ATOM     10  O4* UNL     1       5.479  32.528  13.596  0.00  0.00    +0.000 OA
ATOM     11  C1* UNL     1       4.095  32.615  13.779  0.00  0.00    +0.000 A 
ATOM     12  C3* UNL     1       5.038  33.858  15.440  0.00  0.00    +0.000 A 
ATOM     13  C2* UNL     1       3.816  33.415  14.905  0.00  0.00    +0.000 A 
ATOM     14  C4* UNL     1       6.072  33.288  14.613  0.00  0.00    +0.000 A 
BRANCH  12  15
ATOM     15  O3* UNL     1       5.252  34.099  16.767  0.00  0.00    +0.000 OA
ATOM     16  H3* UNL     1       4.746  33.478  17.320  0.00  0.00    +0.000 HD
ENDBRANCH  12  15
BRANCH  14  17
ATOM     17  C5* UNL     1       7.457  33.265  14.864  0.00  0.00    +0.000 C 
BRANCH  17  18
ATOM     18  O5* UNL     1       8.765  33.242  15.104  0.00  0.00    +0.000 OA
ATOM     19  H5* UNL     1       9.112  34.149  15.166  0.00  0.00    +0.000 HD
ENDBRANCH  17  18
ENDBRANCH  14  17
ENDBRANCH   3  11
BRANCH   7  23
ATOM     20  F   UNL     1       1.242  28.862  14.935  0.00  0.00    +0.000 F 
ATOM     21  F   UNL     1      -0.533  29.520  13.871  0.00  0.00    +0.000 F 
ATOM     22  F   UNL     1       0.724  27.978  13.002  0.00  0.00    +0.000 F 
ATOM     23  C   UNL     1       0.764  29.142  13.697  0.00  0.00    +0.000 C 
ENDBRANCH   7  23
TORSDOF 5
ENDMDL
MODEL 7
REMARK VINA RESULT:      -4.6      7.101      9.352
REMARK  Name = 6256_Trifluridine.pdbqt.pdb
REMARK  5 active torsions:
REMARK  status: ('A' for Active; 'I' for Inactive)
REMARK    1  A    between atoms: N_3  and  C1*_11
REMARK    2  A    between atoms: C_7  and  C_23
REMARK    3  A    between atoms: C3*_12  and  O3*_15
REMARK    4  A    between atoms: C4*_14  and  C5*_17
REMARK    5  A    between atoms: C5*_17  and  O5*_18
REMARK                            x       y       z     vdW  Elec       q    Type
REMARK                         _______ _______ _______ _____ _____    ______ ____
ROOT
ATOM      1  O   UNL     1      23.116  12.876  28.869  0.00  0.00    +0.000 OA
ATOM      2  O   UNL     1      23.912   9.338  26.056  0.00  0.00    +0.000 OA
ATOM      3  N   UNL     1      23.721  13.349  26.629  0.00  0.00    +0.000 N 
ATOM      4  N   UNL     1      23.520  11.148  27.412  0.00  0.00    +0.000 N 
ATOM      5  C   UNL     1      24.040  12.729  25.476  0.00  0.00    +0.000 A 
ATOM      6  C   UNL     1      23.424  12.524  27.737  0.00  0.00    +0.000 A 
ATOM      7  C   UNL     1      24.156  11.501  25.088  0.00  0.00    +0.000 A 
ATOM      8  C   UNL     1      23.860  10.552  26.192  0.00  0.00    +0.000 A 
ATOM      9  H   UNL     1      23.318  10.515  28.172  0.00  0.00    +0.000 HD
ENDROOT
BRANCH   3  11
ATOM     10  O4* UNL     1      22.562  15.436  27.015  0.00  0.00    +0.000 OA
ATOM     11  C1* UNL     1      23.708  14.714  26.668  0.00  0.00    +0.000 A 
ATOM     12  C3* UNL     1      24.273  16.917  26.526  0.00  0.00    +0.000 A 
ATOM     13  C2* UNL     1      24.754  15.607  26.359  0.00  0.00    +0.000 A 
ATOM     14  C4* UNL     1      22.895  16.794  26.930  0.00  0.00    +0.000 A 
BRANCH  12  15
ATOM     15  O3* UNL     1      24.698  17.990  25.794  0.00  0.00    +0.000 OA
ATOM     16  H3* UNL     1      24.849  17.740  24.865  0.00  0.00    +0.000 HD
ENDBRANCH  12  15
BRANCH  14  17
ATOM     17  C5* UNL     1      21.930  17.817  27.015  0.00  0.00    +0.000 C 
BRANCH  17  18
ATOM     18  O5* UNL     1      21.017  18.780  27.097  0.00  0.00    +0.000 OA
ATOM     19  H5* UNL     1      21.245  19.511  26.497  0.00  0.00    +0.000 HD
ENDBRANCH  17  18
ENDBRANCH  14  17
ENDBRANCH   3  11
BRANCH   7  23
ATOM     20  F   UNL     1      23.609  10.110  23.274  0.00  0.00    +0.000 F 
ATOM     21  F   UNL     1      24.704  11.937  22.852  0.00  0.00    +0.000 F 
ATOM     22  F   UNL     1      25.719  10.283  23.825  0.00  0.00    +0.000 F 
ATOM     23  C   UNL     1      24.542  10.954  23.781  0.00  0.00    +0.000 C 
ENDBRANCH   7  23
TORSDOF 5
ENDMDL
MODEL 8
REMARK VINA RESULT:      -4.5      1.243      2.242
REMARK  Name = 6256_Trifluridine.pdbqt.pdb
REMARK  5 active torsions:
REMARK  status: ('A' for Active; 'I' for Inactive)
REMARK    1  A    between atoms: N_3  and  C1*_11
REMARK    2  A    between atoms: C_7  and  C_23
REMARK    3  A    between atoms: C3*_12  and  O3*_15
REMARK    4  A    between atoms: C4*_14  and  C5*_17
REMARK    5  A    between atoms: C5*_17  and  O5*_18
REMARK                            x       y       z     vdW  Elec       q    Type
REMARK                         _______ _______ _______ _____ _____    ______ ____
ROOT
ATOM      1  O   UNL     1      24.774  23.621  27.628  0.00  0.00    +0.000 OA
ATOM      2  O   UNL     1      22.930  19.431  27.289  0.00  0.00    +0.000 OA
ATOM      3  N   UNL     1      24.141  22.853  25.479  0.00  0.00    +0.000 N 
ATOM      4  N   UNL     1      23.839  21.536  27.395  0.00  0.00    +0.000 N 
ATOM      5  C   UNL     1      23.596  21.784  24.865  0.00  0.00    +0.000 A 
ATOM      6  C   UNL     1      24.301  22.772  26.881  0.00  0.00    +0.000 A 
ATOM      7  C   UNL     1      23.154  20.629  25.242  0.00  0.00    +0.000 A 
ATOM      8  C   UNL     1      23.281  20.450  26.710  0.00  0.00    +0.000 A 
ATOM      9  H   UNL     1      23.933  21.427  28.395  0.00  0.00    +0.000 HD
ENDROOT
BRANCH   3  11
ATOM     10  O4* UNL     1      25.579  23.884  23.830  0.00  0.00    +0.000 OA
ATOM     11  C1* UNL     1      24.509  23.933  24.729  0.00  0.00    +0.000 A 
ATOM     12  C3* UNL     1      24.666  26.012  23.808  0.00  0.00    +0.000 A 
ATOM     13  C2* UNL     1      23.952  25.228  24.731  0.00  0.00    +0.000 A 
ATOM     14  C4* UNL     1      25.687  25.158  23.257  0.00  0.00    +0.000 A 
BRANCH  12  15
ATOM     15  O3* UNL     1      24.869  27.357  23.940  0.00  0.00    +0.000 OA
ATOM     16  H3* UNL     1      24.040  27.814  24.165  0.00  0.00    +0.000 HD
ENDBRANCH  12  15
BRANCH  14  17
ATOM     17  C5* UNL     1      26.782  25.536  22.455  0.00  0.00    +0.000 C 
BRANCH  17  18
ATOM     18  O5* UNL     1      27.816  25.889  21.696  0.00  0.00    +0.000 OA
ATOM     19  H5* UNL     1      27.503  26.280  20.862  0.00  0.00    +0.000 HD
ENDBRANCH  17  18
ENDBRANCH  14  17
ENDBRANCH   3  11
BRANCH   7  23
ATOM     20  F   UNL     1      22.558  19.805  23.122  0.00  0.00    +0.000 F 
ATOM     21  F   UNL     1      23.338  18.391  24.573  0.00  0.00    +0.000 F 
ATOM     22  F   UNL     1      21.338  19.194  24.832  0.00  0.00    +0.000 F 
ATOM     23  C   UNL     1      22.596  19.526  24.449  0.00  0.00    +0.000 C 
ENDBRANCH   7  23
TORSDOF 5
ENDMDL
MODEL 9
REMARK VINA RESULT:      -4.3     22.286     24.224
REMARK  Name = 6256_Trifluridine.pdbqt.pdb
REMARK  5 active torsions:
REMARK  status: ('A' for Active; 'I' for Inactive)
REMARK    1  A    between atoms: N_3  and  C1*_11
REMARK    2  A    between atoms: C_7  and  C_23
REMARK    3  A    between atoms: C3*_12  and  O3*_15
REMARK    4  A    between atoms: C4*_14  and  C5*_17
REMARK    5  A    between atoms: C5*_17  and  O5*_18
REMARK                            x       y       z     vdW  Elec       q    Type
REMARK                         _______ _______ _______ _____ _____    ______ ____
ROOT
ATOM      1  O   UNL     1       4.783  36.082  15.197  0.00  0.00    +0.000 OA
ATOM      2  O   UNL     1       1.265  33.456  13.858  0.00  0.00    +0.000 OA
ATOM      3  N   UNL     1       5.271  33.994  14.191  0.00  0.00    +0.000 N 
ATOM      4  N   UNL     1       3.065  34.727  14.500  0.00  0.00    +0.000 N 
ATOM      5  C   UNL     1       4.659  32.918  13.658  0.00  0.00    +0.000 A 
ATOM      6  C   UNL     1       4.438  35.028  14.675  0.00  0.00    +0.000 A 
ATOM      7  C   UNL     1       3.434  32.556  13.460  0.00  0.00    +0.000 A 
ATOM      8  C   UNL     1       2.478  33.586  13.939  0.00  0.00    +0.000 A 
ATOM      9  H   UNL     1       2.426  35.435  14.832  0.00  0.00    +0.000 HD
ENDROOT
BRANCH   3  11
ATOM     10  O4* UNL     1       7.398  34.707  13.286  0.00  0.00    +0.000 OA
ATOM     11  C1* UNL     1       6.635  34.026  14.241  0.00  0.00    +0.000 A 
ATOM     12  C3* UNL     1       8.817  33.701  14.814  0.00  0.00    +0.000 A 
ATOM     13  C2* UNL     1       7.490  33.402  15.170  0.00  0.00    +0.000 A 
ATOM     14  C4* UNL     1       8.743  34.514  13.626  0.00  0.00    +0.000 A 
BRANCH  12  15
ATOM     15  O3* UNL     1       9.877  32.865  15.029  0.00  0.00    +0.000 OA
ATOM     16  H3* UNL     1      10.717  33.356  15.014  0.00  0.00    +0.000 HD
ENDBRANCH  12  15
BRANCH  14  17
ATOM     17  C5* UNL     1       9.800  34.887  12.773  0.00  0.00    +0.000 C 
BRANCH  17  18
ATOM     18  O5* UNL     1      10.800  35.239  11.971  0.00  0.00    +0.000 OA
ATOM     19  H5* UNL     1      10.599  34.988  11.053  0.00  0.00    +0.000 HD
ENDBRANCH  17  18
ENDBRANCH  14  17
ENDBRANCH   3  11
BRANCH   7  23
ATOM     20  F   UNL     1       3.868  30.506  12.394  0.00  0.00    +0.000 F 
ATOM     21  F   UNL     1       2.213  30.585  13.798  0.00  0.00    +0.000 F 
ATOM     22  F   UNL     1       2.024  31.558  11.867  0.00  0.00    +0.000 F 
ATOM     23  C   UNL     1       2.896  31.320  12.877  0.00  0.00    +0.000 C 
ENDBRANCH   7  23
TORSDOF 5
ENDMDL
