MODEL 1
REMARK VINA RESULT:      -4.6      0.000      0.000
REMARK  Name = 6323266_Tipiracil.pdbqt.pdb
REMARK  2 active torsions:
REMARK  status: ('A' for Active; 'I' for Inactive)
REMARK    1  A    between atoms: C_6  and  C_12
REMARK    2  A    between atoms: C_12  and  N_13
REMARK                            x       y       z     vdW  Elec       q    Type
REMARK                         _______ _______ _______ _____ _____    ______ ____
ROOT
ATOM      1 CL   UNL     1      25.618   6.521  25.934  0.00  0.00    +0.000 Cl
ATOM      2  O   UNL     1      23.408   8.324  26.879  0.00  0.00    +0.000 OA
ATOM      3  O   UNL     1      23.336  11.143  23.335  0.00  0.00    +0.000 OA
ATOM      4  N   UNL     1      24.829   9.433  23.334  0.00  0.00    +0.000 N 
ATOM      5  N   UNL     1      23.373   9.720  25.100  0.00  0.00    +0.000 N 
ATOM      6  C   UNL     1      25.389   8.330  23.925  0.00  0.00    +0.000 A 
ATOM      7  C   UNL     1      24.967   7.890  25.118  0.00  0.00    +0.000 A 
ATOM      8  C   UNL     1      23.863   8.639  25.784  0.00  0.00    +0.000 A 
ATOM      9  C   UNL     1      23.816  10.160  23.888  0.00  0.00    +0.000 A 
ATOM     10  H   UNL     1      25.170   9.749  22.429  0.00  0.00    +0.000 HD
ATOM     11  H   UNL     1      22.625  10.242  25.533  0.00  0.00    +0.000 HD
ENDROOT
BRANCH   6  12
ATOM     12  C   UNL     1      26.432   7.705  23.190  0.00  0.00    +0.000 C 
BRANCH  12  13
ATOM     13  N   UNL     1      27.561   7.180  22.446  0.00  0.00    +0.000 N 
ATOM     14  N   UNL     1      26.320   5.551  21.066  0.00  0.00    +0.000 NA
ATOM     15  C   UNL     1      28.495   8.139  21.857  0.00  0.00    +0.000 C 
ATOM     16  C   UNL     1      28.987   8.063  20.416  0.00  0.00    +0.000 C 
ATOM     17  C   UNL     1      28.070   6.851  20.244  0.00  0.00    +0.000 C 
ATOM     18  C   UNL     1      27.221   6.420  21.334  0.00  0.00    +0.000 C 
ATOM     19  H   UNL     1      26.388   5.246  20.088  0.00  0.00    +0.000 HD
ENDBRANCH  12  13
ENDBRANCH   6  12
TORSDOF 2
ENDMDL
MODEL 2
REMARK VINA RESULT:      -4.5     16.447     18.923
REMARK  Name = 6323266_Tipiracil.pdbqt.pdb
REMARK  2 active torsions:
REMARK  status: ('A' for Active; 'I' for Inactive)
REMARK    1  A    between atoms: C_6  and  C_12
REMARK    2  A    between atoms: C_12  and  N_13
REMARK                            x       y       z     vdW  Elec       q    Type
REMARK                         _______ _______ _______ _____ _____    ______ ____
ROOT
ATOM      1 CL   UNL     1       9.506  18.191  30.030  0.00  0.00    +0.000 Cl
ATOM      2  O   UNL     1      12.261  19.296  29.566  0.00  0.00    +0.000 OA
ATOM      3  O   UNL     1      14.461  15.357  29.164  0.00  0.00    +0.000 OA
ATOM      4  N   UNL     1      12.224  15.319  29.546  0.00  0.00    +0.000 N 
ATOM      5  N   UNL     1      13.349  17.325  29.357  0.00  0.00    +0.000 N 
ATOM      6  C   UNL     1      11.031  15.964  29.752  0.00  0.00    +0.000 A 
ATOM      7  C   UNL     1      10.958  17.302  29.771  0.00  0.00    +0.000 A 
ATOM      8  C   UNL     1      12.217  18.070  29.560  0.00  0.00    +0.000 A 
ATOM      9  C   UNL     1      13.410  15.962  29.344  0.00  0.00    +0.000 A 
ATOM     10  H   UNL     1      12.254  14.302  29.540  0.00  0.00    +0.000 HD
ATOM     11  H   UNL     1      14.214  17.825  29.211  0.00  0.00    +0.000 HD
ENDROOT
BRANCH   6  12
ATOM     12  C   UNL     1       9.904  15.120  29.941  0.00  0.00    +0.000 C 
BRANCH  12  13
ATOM     13  N   UNL     1       8.719  14.288  30.014  0.00  0.00    +0.000 N 
ATOM     14  N   UNL     1       9.823  12.196  30.723  0.00  0.00    +0.000 NA
ATOM     15  C   UNL     1       7.553  14.823  30.717  0.00  0.00    +0.000 C 
ATOM     16  C   UNL     1       6.761  14.039  31.757  0.00  0.00    +0.000 C 
ATOM     17  C   UNL     1       7.771  12.907  31.567  0.00  0.00    +0.000 C 
ATOM     18  C   UNL     1       8.897  13.078  30.674  0.00  0.00    +0.000 C 
ATOM     19  H   UNL     1       9.576  11.446  31.379  0.00  0.00    +0.000 HD
ENDBRANCH  12  13
ENDBRANCH   6  12
TORSDOF 2
ENDMDL
MODEL 3
REMARK VINA RESULT:      -4.4     16.821     18.501
REMARK  Name = 6323266_Tipiracil.pdbqt.pdb
REMARK  2 active torsions:
REMARK  status: ('A' for Active; 'I' for Inactive)
REMARK    1  A    between atoms: C_6  and  C_12
REMARK    2  A    between atoms: C_12  and  N_13
REMARK                            x       y       z     vdW  Elec       q    Type
REMARK                         _______ _______ _______ _____ _____    ______ ____
ROOT
ATOM      1 CL   UNL     1      23.048  28.277  27.496  0.00  0.00    +0.000 Cl
ATOM      2  O   UNL     1      24.267  29.308  24.950  0.00  0.00    +0.000 OA
ATOM      3  O   UNL     1      24.644  25.347  22.785  0.00  0.00    +0.000 OA
ATOM      4  N   UNL     1      23.761  25.363  24.875  0.00  0.00    +0.000 N 
ATOM      5  N   UNL     1      24.442  27.327  23.873  0.00  0.00    +0.000 N 
ATOM      6  C   UNL     1      23.370  26.032  26.007  0.00  0.00    +0.000 A 
ATOM      7  C   UNL     1      23.505  27.361  26.112  0.00  0.00    +0.000 A 
ATOM      8  C   UNL     1      24.094  28.093  24.954  0.00  0.00    +0.000 A 
ATOM      9  C   UNL     1      24.303  25.973  23.782  0.00  0.00    +0.000 A 
ATOM     10  H   UNL     1      23.651  24.353  24.822  0.00  0.00    +0.000 HD
ATOM     11  H   UNL     1      24.843  27.803  23.077  0.00  0.00    +0.000 HD
ENDROOT
BRANCH   6  12
ATOM     12  C   UNL     1      22.825  25.221  27.039  0.00  0.00    +0.000 C 
BRANCH  12  13
ATOM     13  N   UNL     1      22.276  24.497  28.169  0.00  0.00    +0.000 N 
ATOM     14  N   UNL     1      20.494  23.291  26.958  0.00  0.00    +0.000 NA
ATOM     15  C   UNL     1      23.213  23.806  29.055  0.00  0.00    +0.000 C 
ATOM     16  C   UNL     1      23.031  22.365  29.518  0.00  0.00    +0.000 C 
ATOM     17  C   UNL     1      21.778  22.319  28.641  0.00  0.00    +0.000 C 
ATOM     18  C   UNL     1      21.413  23.462  27.833  0.00  0.00    +0.000 C 
ATOM     19  H   UNL     1      20.109  22.341  27.016  0.00  0.00    +0.000 HD
ENDBRANCH  12  13
ENDBRANCH   6  12
TORSDOF 2
ENDMDL
MODEL 4
REMARK VINA RESULT:      -4.4     27.681     29.199
REMARK  Name = 6323266_Tipiracil.pdbqt.pdb
REMARK  2 active torsions:
REMARK  status: ('A' for Active; 'I' for Inactive)
REMARK    1  A    between atoms: C_6  and  C_12
REMARK    2  A    between atoms: C_12  and  N_13
REMARK                            x       y       z     vdW  Elec       q    Type
REMARK                         _______ _______ _______ _____ _____    ______ ____
ROOT
ATOM      1 CL   UNL     1      -1.220  13.747   7.309  0.00  0.00    +0.000 Cl
ATOM      2  O   UNL     1      -1.875  16.653   7.699  0.00  0.00    +0.000 OA
ATOM      3  O   UNL     1       1.198  17.566  10.899  0.00  0.00    +0.000 OA
ATOM      4  N   UNL     1       1.089  15.458  10.067  0.00  0.00    +0.000 N 
ATOM      5  N   UNL     1      -0.330  17.102   9.290  0.00  0.00    +0.000 N 
ATOM      6  C   UNL     1       0.536  14.528   9.223  0.00  0.00    +0.000 A 
ATOM      7  C   UNL     1      -0.465  14.850   8.393  0.00  0.00    +0.000 A 
ATOM      8  C   UNL     1      -0.959  16.256   8.414  0.00  0.00    +0.000 A 
ATOM      9  C   UNL     1       0.685  16.759  10.132  0.00  0.00    +0.000 A 
ATOM     10  H   UNL     1       1.846  15.187  10.690  0.00  0.00    +0.000 HD
ATOM     11  H   UNL     1      -0.650  18.059   9.320  0.00  0.00    +0.000 HD
ENDROOT
BRANCH   6  12
ATOM     12  C   UNL     1       1.095  13.224   9.299  0.00  0.00    +0.000 C 
BRANCH  12  13
ATOM     13  N   UNL     1       1.764  11.945   9.443  0.00  0.00    +0.000 N 
ATOM     14  N   UNL     1       3.540  12.308   7.766  0.00  0.00    +0.000 NA
ATOM     15  C   UNL     1       2.062  11.481  10.797  0.00  0.00    +0.000 C 
ATOM     16  C   UNL     1       3.421  10.935  11.222  0.00  0.00    +0.000 C 
ATOM     17  C   UNL     1       3.905  11.241   9.804  0.00  0.00    +0.000 C 
ATOM     18  C   UNL     1       3.020  11.876   8.853  0.00  0.00    +0.000 C 
ATOM     19  H   UNL     1       4.538  12.070   7.721  0.00  0.00    +0.000 HD
ENDBRANCH  12  13
ENDBRANCH   6  12
TORSDOF 2
ENDMDL
MODEL 5
REMARK VINA RESULT:      -4.2     26.718     27.865
REMARK  Name = 6323266_Tipiracil.pdbqt.pdb
REMARK  2 active torsions:
REMARK  status: ('A' for Active; 'I' for Inactive)
REMARK    1  A    between atoms: C_6  and  C_12
REMARK    2  A    between atoms: C_12  and  N_13
REMARK                            x       y       z     vdW  Elec       q    Type
REMARK                         _______ _______ _______ _____ _____    ______ ____
ROOT
ATOM      1 CL   UNL     1      -3.168  14.120  22.734  0.00  0.00    +0.000 Cl
ATOM      2  O   UNL     1      -3.305  17.036  23.444  0.00  0.00    +0.000 OA
ATOM      3  O   UNL     1       0.332  18.420  21.127  0.00  0.00    +0.000 OA
ATOM      4  N   UNL     1      -0.225  16.221  21.065  0.00  0.00    +0.000 N 
ATOM      5  N   UNL     1      -1.493  17.719  22.276  0.00  0.00    +0.000 N 
ATOM      6  C   UNL     1      -1.040  15.179  21.427  0.00  0.00    +0.000 A 
ATOM      7  C   UNL     1      -2.099  15.369  22.225  0.00  0.00    +0.000 A 
ATOM      8  C   UNL     1      -2.367  16.754  22.706  0.00  0.00    +0.000 A 
ATOM      9  C   UNL     1      -0.416  17.510  21.467  0.00  0.00    +0.000 A 
ATOM     10  H   UNL     1       0.576  16.049  20.461  0.00  0.00    +0.000 HD
ATOM     11  H   UNL     1      -1.656  18.665  22.590  0.00  0.00    +0.000 HD
ENDROOT
BRANCH   6  12
ATOM     12  C   UNL     1      -0.678  13.908  20.904  0.00  0.00    +0.000 C 
BRANCH  12  13
ATOM     13  N   UNL     1      -0.324  12.662  20.252  0.00  0.00    +0.000 N 
ATOM     14  N   UNL     1       0.095  11.329  22.288  0.00  0.00    +0.000 NA
ATOM     15  C   UNL     1      -1.196  12.182  19.180  0.00  0.00    +0.000 C 
ATOM     16  C   UNL     1      -1.706  10.749  19.085  0.00  0.00    +0.000 C 
ATOM     17  C   UNL     1      -0.983  10.481  20.405  0.00  0.00    +0.000 C 
ATOM     18  C   UNL     1      -0.296  11.555  21.091  0.00  0.00    +0.000 C 
ATOM     19  H   UNL     1      -0.100  10.358  22.558  0.00  0.00    +0.000 HD
ENDBRANCH  12  13
ENDBRANCH   6  12
TORSDOF 2
ENDMDL
MODEL 6
REMARK VINA RESULT:      -4.2     27.305     29.112
REMARK  Name = 6323266_Tipiracil.pdbqt.pdb
REMARK  2 active torsions:
REMARK  status: ('A' for Active; 'I' for Inactive)
REMARK    1  A    between atoms: C_6  and  C_12
REMARK    2  A    between atoms: C_12  and  N_13
REMARK                            x       y       z     vdW  Elec       q    Type
REMARK                         _______ _______ _______ _____ _____    ______ ____
ROOT
ATOM      1 CL   UNL     1       0.148   9.962   7.572  0.00  0.00    +0.000 Cl
ATOM      2  O   UNL     1       3.110  10.024   7.070  0.00  0.00    +0.000 OA
ATOM      3  O   UNL     1       4.403  11.571  11.126  0.00  0.00    +0.000 OA
ATOM      4  N   UNL     1       2.190  11.253  10.739  0.00  0.00    +0.000 N 
ATOM      5  N   UNL     1       3.747  10.787   9.102  0.00  0.00    +0.000 N 
ATOM      6  C   UNL     1       1.158  10.875   9.919  0.00  0.00    +0.000 A 
ATOM      7  C   UNL     1       1.383  10.448   8.669  0.00  0.00    +0.000 A 
ATOM      8  C   UNL     1       2.795  10.394   8.197  0.00  0.00    +0.000 A 
ATOM      9  C   UNL     1       3.503  11.224  10.370  0.00  0.00    +0.000 A 
ATOM     10  H   UNL     1       1.991  11.577  11.683  0.00  0.00    +0.000 HD
ATOM     11  H   UNL     1       4.711  10.758   8.803  0.00  0.00    +0.000 HD
ENDROOT
BRANCH   6  12
ATOM     12  C   UNL     1      -0.142  10.973  10.486  0.00  0.00    +0.000 C 
BRANCH  12  13
ATOM     13  N   UNL     1      -1.426  10.996  11.159  0.00  0.00    +0.000 N 
ATOM     14  N   UNL     1      -0.694  12.113  13.235  0.00  0.00    +0.000 NA
ATOM     15  C   UNL     1      -2.586  11.461  10.398  0.00  0.00    +0.000 C 
ATOM     16  C   UNL     1      -3.588  12.481  10.927  0.00  0.00    +0.000 C 
ATOM     17  C   UNL     1      -2.719  12.577  12.181  0.00  0.00    +0.000 C 
ATOM     18  C   UNL     1      -1.485  11.826  12.271  0.00  0.00    +0.000 C 
ATOM     19  H   UNL     1      -1.110  12.823  13.849  0.00  0.00    +0.000 HD
ENDBRANCH  12  13
ENDBRANCH   6  12
TORSDOF 2
ENDMDL
MODEL 7
REMARK VINA RESULT:      -4.2     33.638     34.057
REMARK  Name = 6323266_Tipiracil.pdbqt.pdb
REMARK  2 active torsions:
REMARK  status: ('A' for Active; 'I' for Inactive)
REMARK    1  A    between atoms: C_6  and  C_12
REMARK    2  A    between atoms: C_12  and  N_13
REMARK                            x       y       z     vdW  Elec       q    Type
REMARK                         _______ _______ _______ _____ _____    ______ ____
ROOT
ATOM      1 CL   UNL     1      -1.220  25.657  12.317  0.00  0.00    +0.000 Cl
ATOM      2  O   UNL     1      -2.468  23.150  13.404  0.00  0.00    +0.000 OA
ATOM      3  O   UNL     1      -3.102  24.557  17.662  0.00  0.00    +0.000 OA
ATOM      4  N   UNL     1      -2.153  25.985  16.175  0.00  0.00    +0.000 N 
ATOM      5  N   UNL     1      -2.790  23.865  15.525  0.00  0.00    +0.000 N 
ATOM      6  C   UNL     1      -1.700  26.276  14.914  0.00  0.00    +0.000 A 
ATOM      7  C   UNL     1      -1.771  25.377  13.924  0.00  0.00    +0.000 A 
ATOM      8  C   UNL     1      -2.363  24.045  14.236  0.00  0.00    +0.000 A 
ATOM      9  C   UNL     1      -2.707  24.788  16.525  0.00  0.00    +0.000 A 
ATOM     10  H   UNL     1      -2.084  26.684  16.911  0.00  0.00    +0.000 HD
ATOM     11  H   UNL     1      -3.194  22.969  15.758  0.00  0.00    +0.000 HD
ENDROOT
BRANCH   6  12
ATOM     12  C   UNL     1      -1.157  27.579  14.745  0.00  0.00    +0.000 C 
BRANCH  12  13
ATOM     13  N   UNL     1      -0.642  28.933  14.693  0.00  0.00    +0.000 N 
ATOM     14  N   UNL     1       0.547  28.921  16.857  0.00  0.00    +0.000 NA
ATOM     15  C   UNL     1       0.007  29.368  13.456  0.00  0.00    +0.000 C 
ATOM     16  C   UNL     1       1.352  30.086  13.416  0.00  0.00    +0.000 C 
ATOM     17  C   UNL     1       1.400  29.927  14.936  0.00  0.00    +0.000 C 
ATOM     18  C   UNL     1       0.346  29.216  15.628  0.00  0.00    +0.000 C 
ATOM     19  H   UNL     1       1.442  29.305  17.182  0.00  0.00    +0.000 HD
ENDBRANCH  12  13
ENDBRANCH   6  12
TORSDOF 2
ENDMDL
MODEL 8
REMARK VINA RESULT:      -4.2     15.576     17.105
REMARK  Name = 6323266_Tipiracil.pdbqt.pdb
REMARK  2 active torsions:
REMARK  status: ('A' for Active; 'I' for Inactive)
REMARK    1  A    between atoms: C_6  and  C_12
REMARK    2  A    between atoms: C_12  and  N_13
REMARK                            x       y       z     vdW  Elec       q    Type
REMARK                         _______ _______ _______ _____ _____    ______ ____
ROOT
ATOM      1 CL   UNL     1      25.435  26.132  27.207  0.00  0.00    +0.000 Cl
ATOM      2  O   UNL     1      26.765  25.624  24.562  0.00  0.00    +0.000 OA
ATOM      3  O   UNL     1      24.059  22.288  23.126  0.00  0.00    +0.000 OA
ATOM      4  N   UNL     1      23.651  23.223  25.154  0.00  0.00    +0.000 N 
ATOM      5  N   UNL     1      25.402  23.965  23.849  0.00  0.00    +0.000 N 
ATOM      6  C   UNL     1      23.951  24.127  26.140  0.00  0.00    +0.000 A 
ATOM      7  C   UNL     1      24.983  24.972  26.018  0.00  0.00    +0.000 A 
ATOM      8  C   UNL     1      25.796  24.900  24.770  0.00  0.00    +0.000 A 
ATOM      9  C   UNL     1      24.351  23.108  23.989  0.00  0.00    +0.000 A 
ATOM     10  H   UNL     1      22.863  22.589  25.272  0.00  0.00    +0.000 HD
ATOM     11  H   UNL     1      25.940  23.900  22.997  0.00  0.00    +0.000 HD
ENDROOT
BRANCH   6  12
ATOM     12  C   UNL     1      23.101  24.096  27.278  0.00  0.00    +0.000 C 
BRANCH  12  13
ATOM     13  N   UNL     1      22.136  24.047  28.359  0.00  0.00    +0.000 N 
ATOM     14  N   UNL     1      20.234  23.148  27.066  0.00  0.00    +0.000 NA
ATOM     15  C   UNL     1      22.560  23.451  29.626  0.00  0.00    +0.000 C 
ATOM     16  C   UNL     1      21.740  22.418  30.389  0.00  0.00    +0.000 C 
ATOM     17  C   UNL     1      20.732  22.477  29.241  0.00  0.00    +0.000 C 
ATOM     18  C   UNL     1      20.993  23.307  28.085  0.00  0.00    +0.000 C 
ATOM     19  H   UNL     1      19.494  22.466  27.267  0.00  0.00    +0.000 HD
ENDBRANCH  12  13
ENDBRANCH   6  12
TORSDOF 2
ENDMDL
MODEL 9
REMARK VINA RESULT:      -3.9     27.865     29.716
REMARK  Name = 6323266_Tipiracil.pdbqt.pdb
REMARK  2 active torsions:
REMARK  status: ('A' for Active; 'I' for Inactive)
REMARK    1  A    between atoms: C_6  and  C_12
REMARK    2  A    between atoms: C_12  and  N_13
REMARK                            x       y       z     vdW  Elec       q    Type
REMARK                         _______ _______ _______ _____ _____    ______ ____
ROOT
ATOM      1 CL   UNL     1      -4.810  15.862  20.160  0.00  0.00    +0.000 Cl
ATOM      2  O   UNL     1      -4.345  13.233  18.781  0.00  0.00    +0.000 OA
ATOM      3  O   UNL     1       0.019  12.711  19.877  0.00  0.00    +0.000 OA
ATOM      4  N   UNL     1      -1.071  14.564  20.604  0.00  0.00    +0.000 N 
ATOM      5  N   UNL     1      -2.169  12.976  19.342  0.00  0.00    +0.000 N 
ATOM      6  C   UNL     1      -2.203  15.333  20.691  0.00  0.00    +0.000 A 
ATOM      7  C   UNL     1      -3.347  14.956  20.107  0.00  0.00    +0.000 A 
ATOM      8  C   UNL     1      -3.353  13.667  19.358  0.00  0.00    +0.000 A 
ATOM      9  C   UNL     1      -1.009  13.375  19.938  0.00  0.00    +0.000 A 
ATOM     10  H   UNL     1      -0.213  14.876  21.054  0.00  0.00    +0.000 HD
ATOM     11  H   UNL     1      -2.151  12.100  18.840  0.00  0.00    +0.000 HD
ENDROOT
BRANCH   6  12
ATOM     12  C   UNL     1      -2.068  16.539  21.432  0.00  0.00    +0.000 C 
BRANCH  12  13
ATOM     13  N   UNL     1      -2.049  17.747  22.234  0.00  0.00    +0.000 N 
ATOM     14  N   UNL     1      -0.103  18.826  21.164  0.00  0.00    +0.000 NA
ATOM     15  C   UNL     1      -3.315  18.455  22.429  0.00  0.00    +0.000 C 
ATOM     16  C   UNL     1      -3.478  19.959  22.244  0.00  0.00    +0.000 C 
ATOM     17  C   UNL     1      -2.008  19.993  21.822  0.00  0.00    +0.000 C 
ATOM     18  C   UNL     1      -1.248  18.765  21.732  0.00  0.00    +0.000 C 
ATOM     19  H   UNL     1       0.124  19.793  20.905  0.00  0.00    +0.000 HD
ENDBRANCH  12  13
ENDBRANCH   6  12
TORSDOF 2
ENDMDL
