MODEL 1
REMARK VINA RESULT:      -5.7      0.000      0.000
REMARK  Name = 6325056_Deoxyelephantopin.pdbqt.pdb
REMARK  3 active torsions:
REMARK  status: ('A' for Active; 'I' for Inactive)
REMARK    1  A    between atoms: C_6  and  O_20
REMARK    2  A    between atoms: O_20  and  C_22
REMARK    3  A    between atoms: C_22  and  C_23
REMARK                            x       y       z     vdW  Elec       q    Type
REMARK                         _______ _______ _______ _____ _____    ______ ____
ROOT
ATOM      1  O   UNL     1      -2.226  12.528  19.385  0.00  0.00    +0.000 OA
ATOM      2  O   UNL     1       1.534  13.290  24.658  0.00  0.00    +0.000 OA
ATOM      3  O   UNL     1      -3.820  13.345  17.947  0.00  0.00    +0.000 OA
ATOM      4  O   UNL     1       1.681  15.591  24.382  0.00  0.00    +0.000 OA
ATOM      5  C   UNL     1      -1.920  14.425  20.756  0.00  0.00    +0.000 C 
ATOM      6  C   UNL     1      -1.388  15.344  21.762  0.00  0.00    +0.000 C 
ATOM      7  C   UNL     1      -1.533  13.052  20.484  0.00  0.00    +0.000 C 
ATOM      8  C   UNL     1      -0.998  14.938  23.065  0.00  0.00    +0.000 C 
ATOM      9  C   UNL     1      -2.917  14.714  19.747  0.00  0.00    +0.000 C 
ATOM     10  C   UNL     1      -0.462  14.459  24.302  0.00  0.00    +0.000 C 
ATOM     11  C   UNL     1      -0.657  12.204  21.201  0.00  0.00    +0.000 C 
ATOM     12  C   UNL     1       0.428  12.425  24.516  0.00  0.00    +0.000 C 
ATOM     13  C   UNL     1       0.441  11.644  23.322  0.00  0.00    +0.000 C 
ATOM     14  C   UNL     1       0.162  11.328  21.973  0.00  0.00    +0.000 C 
ATOM     15  C   UNL     1      -0.756  13.157  24.734  0.00  0.00    +0.000 C 
ATOM     16  C   UNL     1      -3.076  13.501  18.900  0.00  0.00    +0.000 C 
ATOM     17  C   UNL     1       1.025  14.569  24.480  0.00  0.00    +0.000 C 
ATOM     18  C   UNL     1      -3.637  15.836  19.630  0.00  0.00    +0.000 C 
ATOM     19  C   UNL     1       0.494   9.971  21.444  0.00  0.00    +0.000 C 
ENDROOT
BRANCH   6  20
ATOM     20  O   UNL     1      -1.481  16.732  21.560  0.00  0.00    +0.000 OA
BRANCH  20  22
ATOM     21  O   UNL     1       0.715  17.407  21.429  0.00  0.00    +0.000 OA
ATOM     22  C   UNL     1      -0.386  17.461  21.970  0.00  0.00    +0.000 C 
BRANCH  22  23
ATOM     23  C   UNL     1      -0.753  18.321  23.153  0.00  0.00    +0.000 C 
ATOM     24  C   UNL     1      -2.175  18.773  23.442  0.00  0.00    +0.000 C 
ATOM     25  C   UNL     1       0.154  18.690  24.066  0.00  0.00    +0.000 C 
ENDBRANCH  22  23
ENDBRANCH  20  22
ENDBRANCH   6  20
TORSDOF 3
ENDMDL
MODEL 2
REMARK VINA RESULT:      -5.6     11.643     14.531
REMARK  Name = 6325056_Deoxyelephantopin.pdbqt.pdb
REMARK  3 active torsions:
REMARK  status: ('A' for Active; 'I' for Inactive)
REMARK    1  A    between atoms: C_6  and  O_20
REMARK    2  A    between atoms: O_20  and  C_22
REMARK    3  A    between atoms: C_22  and  C_23
REMARK                            x       y       z     vdW  Elec       q    Type
REMARK                         _______ _______ _______ _____ _____    ______ ____
ROOT
ATOM      1  O   UNL     1      -3.150  23.838  14.282  0.00  0.00    +0.000 OA
ATOM      2  O   UNL     1      -0.086  29.594  14.160  0.00  0.00    +0.000 OA
ATOM      3  O   UNL     1      -4.221  22.183  15.461  0.00  0.00    +0.000 OA
ATOM      4  O   UNL     1      -1.295  30.423  15.960  0.00  0.00    +0.000 OA
ATOM      5  C   UNL     1      -2.828  25.410  16.012  0.00  0.00    +0.000 C 
ATOM      6  C   UNL     1      -2.497  26.641  16.732  0.00  0.00    +0.000 C 
ATOM      7  C   UNL     1      -2.631  25.097  14.609  0.00  0.00    +0.000 C 
ATOM      8  C   UNL     1      -1.332  27.410  16.472  0.00  0.00    +0.000 C 
ATOM      9  C   UNL     1      -3.502  24.243  16.540  0.00  0.00    +0.000 C 
ATOM     10  C   UNL     1      -0.242  28.241  16.063  0.00  0.00    +0.000 C 
ATOM     11  C   UNL     1      -1.945  25.828  13.610  0.00  0.00    +0.000 C 
ATOM     12  C   UNL     1       0.483  28.319  13.955  0.00  0.00    +0.000 C 
ATOM     13  C   UNL     1      -0.235  27.493  13.040  0.00  0.00    +0.000 C 
ATOM     14  C   UNL     1      -1.183  26.528  12.629  0.00  0.00    +0.000 C 
ATOM     15  C   UNL     1       0.745  27.728  15.207  0.00  0.00    +0.000 C 
ATOM     16  C   UNL     1      -3.694  23.282  15.421  0.00  0.00    +0.000 C 
ATOM     17  C   UNL     1      -0.596  29.566  15.450  0.00  0.00    +0.000 C 
ATOM     18  C   UNL     1      -3.830  24.016  17.817  0.00  0.00    +0.000 C 
ATOM     19  C   UNL     1      -1.197  26.057  11.210  0.00  0.00    +0.000 C 
ENDROOT
BRANCH   6  20
ATOM     20  O   UNL     1      -3.199  26.978  17.902  0.00  0.00    +0.000 OA
BRANCH  20  22
ATOM     21  O   UNL     1      -5.306  27.261  17.021  0.00  0.00    +0.000 OA
ATOM     22  C   UNL     1      -4.372  27.672  17.705  0.00  0.00    +0.000 C 
BRANCH  22  23
ATOM     23  C   UNL     1      -4.328  28.981  18.452  0.00  0.00    +0.000 C 
ATOM     24  C   UNL     1      -4.176  30.326  17.761  0.00  0.00    +0.000 C 
ATOM     25  C   UNL     1      -4.484  29.043  19.780  0.00  0.00    +0.000 C 
ENDBRANCH  22  23
ENDBRANCH  20  22
ENDBRANCH   6  20
TORSDOF 3
ENDMDL
MODEL 3
REMARK VINA RESULT:      -5.5     29.657     31.308
REMARK  Name = 6325056_Deoxyelephantopin.pdbqt.pdb
REMARK  3 active torsions:
REMARK  status: ('A' for Active; 'I' for Inactive)
REMARK    1  A    between atoms: C_6  and  O_20
REMARK    2  A    between atoms: O_20  and  C_22
REMARK    3  A    between atoms: C_22  and  C_23
REMARK                            x       y       z     vdW  Elec       q    Type
REMARK                         _______ _______ _______ _____ _____    ______ ____
ROOT
ATOM      1  O   UNL     1      29.370  14.644  19.453  0.00  0.00    +0.000 OA
ATOM      2  O   UNL     1      29.416  16.250  13.133  0.00  0.00    +0.000 OA
ATOM      3  O   UNL     1      29.113  13.061  21.098  0.00  0.00    +0.000 OA
ATOM      4  O   UNL     1      30.150  14.150  12.469  0.00  0.00    +0.000 OA
ATOM      5  C   UNL     1      29.191  13.264  17.546  0.00  0.00    +0.000 C 
ATOM      6  C   UNL     1      29.207  12.795  16.160  0.00  0.00    +0.000 C 
ATOM      7  C   UNL     1      29.381  14.611  18.053  0.00  0.00    +0.000 C 
ATOM      8  C   UNL     1      28.674  13.541  15.076  0.00  0.00    +0.000 C 
ATOM      9  C   UNL     1      29.049  12.458  18.741  0.00  0.00    +0.000 C 
ATOM     10  C   UNL     1      28.282  14.394  13.997  0.00  0.00    +0.000 C 
ATOM     11  C   UNL     1      29.486  15.833  17.347  0.00  0.00    +0.000 C 
ATOM     12  C   UNL     1      28.456  16.615  14.100  0.00  0.00    +0.000 C 
ATOM     13  C   UNL     1      29.006  17.122  15.315  0.00  0.00    +0.000 C 
ATOM     14  C   UNL     1      29.508  17.068  16.635  0.00  0.00    +0.000 C 
ATOM     15  C   UNL     1      27.540  15.556  14.259  0.00  0.00    +0.000 C 
ATOM     16  C   UNL     1      29.176  13.359  19.917  0.00  0.00    +0.000 C 
ATOM     17  C   UNL     1      29.373  14.864  13.078  0.00  0.00    +0.000 C 
ATOM     18  C   UNL     1      28.773  11.150  18.797  0.00  0.00    +0.000 C 
ATOM     19  C   UNL     1      29.809  18.336  17.368  0.00  0.00    +0.000 C 
ENDROOT
BRANCH   6  20
ATOM     20  O   UNL     1      29.526  11.456  15.878  0.00  0.00    +0.000 OA
BRANCH  20  22
ATOM     21  O   UNL     1      27.484  10.774  15.064  0.00  0.00    +0.000 OA
ATOM     22  C   UNL     1      28.707  10.836  14.960  0.00  0.00    +0.000 C 
BRANCH  22  23
ATOM     23  C   UNL     1      29.532  10.270  13.833  0.00  0.00    +0.000 C 
ATOM     24  C   UNL     1      29.099   9.067  13.011  0.00  0.00    +0.000 C 
ATOM     25  C   UNL     1      30.680  10.837  13.443  0.00  0.00    +0.000 C 
ENDBRANCH  22  23
ENDBRANCH  20  22
ENDBRANCH   6  20
TORSDOF 3
ENDMDL
MODEL 4
REMARK VINA RESULT:      -5.5     24.253     26.763
REMARK  Name = 6325056_Deoxyelephantopin.pdbqt.pdb
REMARK  3 active torsions:
REMARK  status: ('A' for Active; 'I' for Inactive)
REMARK    1  A    between atoms: C_6  and  O_20
REMARK    2  A    between atoms: O_20  and  C_22
REMARK    3  A    between atoms: C_22  and  C_23
REMARK                            x       y       z     vdW  Elec       q    Type
REMARK                         _______ _______ _______ _____ _____    ______ ____
ROOT
ATOM      1  O   UNL     1      27.486  15.168  26.466  0.00  0.00    +0.000 OA
ATOM      2  O   UNL     1      25.413   9.632  23.714  0.00  0.00    +0.000 OA
ATOM      3  O   UNL     1      27.051  17.289  27.234  0.00  0.00    +0.000 OA
ATOM      4  O   UNL     1      23.278   9.835  24.604  0.00  0.00    +0.000 OA
ATOM      5  C   UNL     1      25.296  14.497  25.896  0.00  0.00    +0.000 C 
ATOM      6  C   UNL     1      24.151  13.682  25.489  0.00  0.00    +0.000 C 
ATOM      7  C   UNL     1      26.700  14.132  25.947  0.00  0.00    +0.000 C 
ATOM      8  C   UNL     1      24.198  12.744  24.424  0.00  0.00    +0.000 C 
ATOM      9  C   UNL     1      25.267  15.849  26.413  0.00  0.00    +0.000 C 
ATOM     10  C   UNL     1      24.336  11.694  23.462  0.00  0.00    +0.000 C 
ATOM     11  C   UNL     1      27.343  12.958  25.487  0.00  0.00    +0.000 C 
ATOM     12  C   UNL     1      26.257  10.606  23.141  0.00  0.00    +0.000 C 
ATOM     13  C   UNL     1      27.333  11.022  23.980  0.00  0.00    +0.000 C 
ATOM     14  C   UNL     1      27.996  11.811  24.948  0.00  0.00    +0.000 C 
ATOM     15  C   UNL     1      25.464  11.654  22.629  0.00  0.00    +0.000 C 
ATOM     16  C   UNL     1      26.660  16.232  26.769  0.00  0.00    +0.000 C 
ATOM     17  C   UNL     1      24.218  10.288  23.976  0.00  0.00    +0.000 C 
ATOM     18  C   UNL     1      24.202  16.655  26.492  0.00  0.00    +0.000 C 
ATOM     19  C   UNL     1      29.454  11.604  25.202  0.00  0.00    +0.000 C 
ENDROOT
BRANCH   6  20
ATOM     20  O   UNL     1      22.869  13.984  25.977  0.00  0.00    +0.000 OA
BRANCH  20  22
ATOM     21  O   UNL     1      21.194  12.431  26.264  0.00  0.00    +0.000 OA
ATOM     22  C   UNL     1      22.237  12.958  26.645  0.00  0.00    +0.000 C 
BRANCH  22  23
ATOM     23  C   UNL     1      23.017  12.589  27.881  0.00  0.00    +0.000 C 
ATOM     24  C   UNL     1      23.848  11.321  27.990  0.00  0.00    +0.000 C 
ATOM     25  C   UNL     1      23.078  13.398  28.946  0.00  0.00    +0.000 C 
ENDBRANCH  22  23
ENDBRANCH  20  22
ENDBRANCH   6  20
TORSDOF 3
ENDMDL
MODEL 5
REMARK VINA RESULT:      -5.4      1.479      4.934
REMARK  Name = 6325056_Deoxyelephantopin.pdbqt.pdb
REMARK  3 active torsions:
REMARK  status: ('A' for Active; 'I' for Inactive)
REMARK    1  A    between atoms: C_6  and  O_20
REMARK    2  A    between atoms: O_20  and  C_22
REMARK    3  A    between atoms: C_22  and  C_23
REMARK                            x       y       z     vdW  Elec       q    Type
REMARK                         _______ _______ _______ _____ _____    ______ ____
ROOT
ATOM      1  O   UNL     1       1.145  15.018  25.237  0.00  0.00    +0.000 OA
ATOM      2  O   UNL     1      -2.186  11.912  20.570  0.00  0.00    +0.000 OA
ATOM      3  O   UNL     1       1.900  16.977  26.170  0.00  0.00    +0.000 OA
ATOM      4  O   UNL     1      -3.680  13.666  20.287  0.00  0.00    +0.000 OA
ATOM      5  C   UNL     1      -0.192  15.897  23.502  0.00  0.00    +0.000 C 
ATOM      6  C   UNL     1      -1.139  16.003  22.392  0.00  0.00    +0.000 C 
ATOM      7  C   UNL     1       0.307  14.703  24.161  0.00  0.00    +0.000 C 
ATOM      8  C   UNL     1      -1.175  15.092  21.304  0.00  0.00    +0.000 C 
ATOM      9  C   UNL     1       0.410  16.984  24.245  0.00  0.00    +0.000 C 
ATOM     10  C   UNL     1      -1.288  14.059  20.320  0.00  0.00    +0.000 C 
ATOM     11  C   UNL     1       0.127  13.342  23.817  0.00  0.00    +0.000 C 
ATOM     12  C   UNL     1      -0.787  11.929  20.753  0.00  0.00    +0.000 C 
ATOM     13  C   UNL     1      -0.365  11.669  22.091  0.00  0.00    +0.000 C 
ATOM     14  C   UNL     1       0.011  11.978  23.418  0.00  0.00    +0.000 C 
ATOM     15  C   UNL     1      -0.265  13.108  20.185  0.00  0.00    +0.000 C 
ATOM     16  C   UNL     1       1.236  16.392  25.332  0.00  0.00    +0.000 C 
ATOM     17  C   UNL     1      -2.543  13.235  20.347  0.00  0.00    +0.000 C 
ATOM     18  C   UNL     1       0.317  18.290  23.971  0.00  0.00    +0.000 C 
ATOM     19  C   UNL     1       0.537  10.902  24.311  0.00  0.00    +0.000 C 
ENDROOT
BRANCH   6  20
ATOM     20  O   UNL     1      -1.895  17.176  22.227  0.00  0.00    +0.000 OA
BRANCH  20  22
ATOM     21  O   UNL     1      -0.653  18.220  20.595  0.00  0.00    +0.000 OA
ATOM     22  C   UNL     1      -1.733  17.816  21.018  0.00  0.00    +0.000 C 
BRANCH  22  23
ATOM     23  C   UNL     1      -3.060  17.927  20.311  0.00  0.00    +0.000 C 
ATOM     24  C   UNL     1      -3.390  17.165  19.038  0.00  0.00    +0.000 C 
ATOM     25  C   UNL     1      -4.064  18.665  20.804  0.00  0.00    +0.000 C 
ENDBRANCH  22  23
ENDBRANCH  20  22
ENDBRANCH   6  20
TORSDOF 3
ENDMDL
MODEL 6
REMARK VINA RESULT:      -5.4     24.774     27.295
REMARK  Name = 6325056_Deoxyelephantopin.pdbqt.pdb
REMARK  3 active torsions:
REMARK  status: ('A' for Active; 'I' for Inactive)
REMARK    1  A    between atoms: C_6  and  O_20
REMARK    2  A    between atoms: O_20  and  C_22
REMARK    3  A    between atoms: C_22  and  C_23
REMARK                            x       y       z     vdW  Elec       q    Type
REMARK                         _______ _______ _______ _____ _____    ______ ____
ROOT
ATOM      1  O   UNL     1      26.457  16.269  24.869  0.00  0.00    +0.000 OA
ATOM      2  O   UNL     1      22.448  11.322  26.279  0.00  0.00    +0.000 OA
ATOM      3  O   UNL     1      28.478  17.025  24.082  0.00  0.00    +0.000 OA
ATOM      4  O   UNL     1      23.309   9.973  24.598  0.00  0.00    +0.000 OA
ATOM      5  C   UNL     1      26.711  13.959  24.456  0.00  0.00    +0.000 C 
ATOM      6  C   UNL     1      26.429  12.530  24.319  0.00  0.00    +0.000 C 
ATOM      7  C   UNL     1      25.852  15.010  24.972  0.00  0.00    +0.000 C 
ATOM      8  C   UNL     1      25.677  11.786  25.267  0.00  0.00    +0.000 C 
ATOM      9  C   UNL     1      27.904  14.659  24.031  0.00  0.00    +0.000 C 
ATOM     10  C   UNL     1      24.776  11.117  26.154  0.00  0.00    +0.000 C 
ATOM     11  C   UNL     1      24.591  14.913  25.606  0.00  0.00    +0.000 C 
ATOM     12  C   UNL     1      23.108  12.174  27.191  0.00  0.00    +0.000 C 
ATOM     13  C   UNL     1      22.993  13.563  26.889  0.00  0.00    +0.000 C 
ATOM     14  C   UNL     1      23.360  14.803  26.316  0.00  0.00    +0.000 C 
ATOM     15  C   UNL     1      24.427  11.713  27.376  0.00  0.00    +0.000 C 
ATOM     16  C   UNL     1      27.703  16.109  24.299  0.00  0.00    +0.000 C 
ATOM     17  C   UNL     1      23.459  10.683  25.577  0.00  0.00    +0.000 C 
ATOM     18  C   UNL     1      29.029  14.112  23.555  0.00  0.00    +0.000 C 
ATOM     19  C   UNL     1      22.603  16.040  26.677  0.00  0.00    +0.000 C 
ENDROOT
BRANCH   6  20
ATOM     20  O   UNL     1      27.118  11.769  23.359  0.00  0.00    +0.000 OA
BRANCH  20  22
ATOM     21  O   UNL     1      25.292  11.748  21.957  0.00  0.00    +0.000 OA
ATOM     22  C   UNL     1      26.507  11.685  22.127  0.00  0.00    +0.000 C 
BRANCH  22  23
ATOM     23  C   UNL     1      27.546  11.515  21.047  0.00  0.00    +0.000 C 
ATOM     24  C   UNL     1      28.000  10.157  20.538  0.00  0.00    +0.000 C 
ATOM     25  C   UNL     1      28.092  12.565  20.420  0.00  0.00    +0.000 C 
ENDBRANCH  22  23
ENDBRANCH  20  22
ENDBRANCH   6  20
TORSDOF 3
ENDMDL
MODEL 7
REMARK VINA RESULT:      -5.4      1.866      2.965
REMARK  Name = 6325056_Deoxyelephantopin.pdbqt.pdb
REMARK  3 active torsions:
REMARK  status: ('A' for Active; 'I' for Inactive)
REMARK    1  A    between atoms: C_6  and  O_20
REMARK    2  A    between atoms: O_20  and  C_22
REMARK    3  A    between atoms: C_22  and  C_23
REMARK                            x       y       z     vdW  Elec       q    Type
REMARK                         _______ _______ _______ _____ _____    ______ ____
ROOT
ATOM      1  O   UNL     1      -0.876  12.294  21.852  0.00  0.00    +0.000 OA
ATOM      2  O   UNL     1       1.033  17.403  25.427  0.00  0.00    +0.000 OA
ATOM      3  O   UNL     1      -2.229  11.405  20.222  0.00  0.00    +0.000 OA
ATOM      4  O   UNL     1       0.545  18.928  23.746  0.00  0.00    +0.000 OA
ATOM      5  C   UNL     1      -1.509  14.563  21.696  0.00  0.00    +0.000 C 
ATOM      6  C   UNL     1      -1.548  16.013  21.884  0.00  0.00    +0.000 C 
ATOM      7  C   UNL     1      -0.672  13.582  22.363  0.00  0.00    +0.000 C 
ATOM      8  C   UNL     1      -1.394  16.643  23.147  0.00  0.00    +0.000 C 
ATOM      9  C   UNL     1      -2.261  13.785  20.735  0.00  0.00    +0.000 C 
ATOM     10  C   UNL     1      -1.066  17.240  24.405  0.00  0.00    +0.000 C 
ATOM     11  C   UNL     1       0.210  13.745  23.457  0.00  0.00    +0.000 C 
ATOM     12  C   UNL     1       0.312  16.273  25.869  0.00  0.00    +0.000 C 
ATOM     13  C   UNL     1       0.858  15.024  25.448  0.00  0.00    +0.000 C 
ATOM     14  C   UNL     1       1.034  13.899  24.611  0.00  0.00    +0.000 C 
ATOM     15  C   UNL     1      -1.053  16.456  25.569  0.00  0.00    +0.000 C 
ATOM     16  C   UNL     1      -1.830  12.366  20.857  0.00  0.00    +0.000 C 
ATOM     17  C   UNL     1       0.225  18.005  24.473  0.00  0.00    +0.000 C 
ATOM     18  C   UNL     1      -3.232  14.229  19.928  0.00  0.00    +0.000 C 
ATOM     19  C   UNL     1       1.881  12.756  25.070  0.00  0.00    +0.000 C 
ENDROOT
BRANCH   6  20
ATOM     20  O   UNL     1      -2.002  16.842  20.843  0.00  0.00    +0.000 OA
BRANCH  20  22
ATOM     21  O   UNL     1      -0.341  18.420  20.624  0.00  0.00    +0.000 OA
ATOM     22  C   UNL     1      -1.511  18.129  20.859  0.00  0.00    +0.000 C 
BRANCH  22  23
ATOM     23  C   UNL     1      -2.617  19.098  21.195  0.00  0.00    +0.000 C 
ATOM     24  C   UNL     1      -4.067  18.871  20.801  0.00  0.00    +0.000 C 
ATOM     25  C   UNL     1      -2.395  20.199  21.924  0.00  0.00    +0.000 C 
ENDBRANCH  22  23
ENDBRANCH  20  22
ENDBRANCH   6  20
TORSDOF 3
ENDMDL
MODEL 8
REMARK VINA RESULT:      -5.2     12.962     15.685
REMARK  Name = 6325056_Deoxyelephantopin.pdbqt.pdb
REMARK  3 active torsions:
REMARK  status: ('A' for Active; 'I' for Inactive)
REMARK    1  A    between atoms: C_6  and  O_20
REMARK    2  A    between atoms: O_20  and  C_22
REMARK    3  A    between atoms: C_22  and  C_23
REMARK                            x       y       z     vdW  Elec       q    Type
REMARK                         _______ _______ _______ _____ _____    ______ ____
ROOT
ATOM      1  O   UNL     1       7.110  19.513  30.982  0.00  0.00    +0.000 OA
ATOM      2  O   UNL     1       6.292  25.891  29.900  0.00  0.00    +0.000 OA
ATOM      3  O   UNL     1       8.485  17.676  31.085  0.00  0.00    +0.000 OA
ATOM      4  O   UNL     1       8.433  26.423  30.626  0.00  0.00    +0.000 OA
ATOM      5  C   UNL     1       8.718  21.188  30.565  0.00  0.00    +0.000 C 
ATOM      6  C   UNL     1       9.353  22.494  30.378  0.00  0.00    +0.000 C 
ATOM      7  C   UNL     1       7.314  20.881  30.764  0.00  0.00    +0.000 C 
ATOM      8  C   UNL     1       8.765  23.550  29.635  0.00  0.00    +0.000 C 
ATOM      9  C   UNL     1       9.376  19.902  30.665  0.00  0.00    +0.000 C 
ATOM     10  C   UNL     1       8.065  24.639  29.025  0.00  0.00    +0.000 C 
ATOM     11  C   UNL     1       6.186  21.731  30.685  0.00  0.00    +0.000 C 
ATOM     12  C   UNL     1       5.843  24.824  29.093  0.00  0.00    +0.000 C 
ATOM     13  C   UNL     1       5.173  23.787  29.808  0.00  0.00    +0.000 C 
ATOM     14  C   UNL     1       5.047  22.574  30.524  0.00  0.00    +0.000 C 
ATOM     15  C   UNL     1       6.905  24.391  28.275  0.00  0.00    +0.000 C 
ATOM     16  C   UNL     1       8.333  18.877  30.936  0.00  0.00    +0.000 C 
ATOM     17  C   UNL     1       7.675  25.778  29.923  0.00  0.00    +0.000 C 
ATOM     18  C   UNL     1      10.675  19.649  30.473  0.00  0.00    +0.000 C 
ATOM     19  C   UNL     1       3.690  22.055  30.872  0.00  0.00    +0.000 C 
ENDROOT
BRANCH   6  20
ATOM     20  O   UNL     1      10.706  22.669  30.718  0.00  0.00    +0.000 OA
BRANCH  20  22
ATOM     21  O   UNL     1      11.553  24.752  31.206  0.00  0.00    +0.000 OA
ATOM     22  C   UNL     1      10.969  23.729  31.556  0.00  0.00    +0.000 C 
BRANCH  22  23
ATOM     23  C   UNL     1      10.430  23.442  32.935  0.00  0.00    +0.000 C 
ATOM     24  C   UNL     1       9.267  24.206  33.547  0.00  0.00    +0.000 C 
ATOM     25  C   UNL     1      10.909  22.444  33.688  0.00  0.00    +0.000 C 
ENDBRANCH  22  23
ENDBRANCH  20  22
ENDBRANCH   6  20
TORSDOF 3
ENDMDL
MODEL 9
REMARK VINA RESULT:      -5.2      2.374      4.354
REMARK  Name = 6325056_Deoxyelephantopin.pdbqt.pdb
REMARK  3 active torsions:
REMARK  status: ('A' for Active; 'I' for Inactive)
REMARK    1  A    between atoms: C_6  and  O_20
REMARK    2  A    between atoms: O_20  and  C_22
REMARK    3  A    between atoms: C_22  and  C_23
REMARK                            x       y       z     vdW  Elec       q    Type
REMARK                         _______ _______ _______ _____ _____    ______ ____
ROOT
ATOM      1  O   UNL     1       0.442   8.037  21.372  0.00  0.00    +0.000 OA
ATOM      2  O   UNL     1       1.668  13.412  24.855  0.00  0.00    +0.000 OA
ATOM      3  O   UNL     1      -0.925   6.862  19.949  0.00  0.00    +0.000 OA
ATOM      4  O   UNL     1       0.532  14.791  23.372  0.00  0.00    +0.000 OA
ATOM      5  C   UNL     1      -0.738  10.080  21.457  0.00  0.00    +0.000 C 
ATOM      6  C   UNL     1      -1.093  11.473  21.731  0.00  0.00    +0.000 C 
ATOM      7  C   UNL     1       0.417   9.328  21.914  0.00  0.00    +0.000 C 
ATOM      8  C   UNL     1      -0.872  12.104  22.983  0.00  0.00    +0.000 C 
ATOM      9  C   UNL     1      -1.440   9.152  20.595  0.00  0.00    +0.000 C 
ATOM     10  C   UNL     1      -0.477  12.747  24.199  0.00  0.00    +0.000 C 
ATOM     11  C   UNL     1       1.415   9.691  22.849  0.00  0.00    +0.000 C 
ATOM     12  C   UNL     1       1.333  12.133  25.348  0.00  0.00    +0.000 C 
ATOM     13  C   UNL     1       2.081  11.064  24.770  0.00  0.00    +0.000 C 
ATOM     14  C   UNL     1       2.370  10.029  23.852  0.00  0.00    +0.000 C 
ATOM     15  C   UNL     1      -0.066  11.975  25.296  0.00  0.00    +0.000 C 
ATOM     16  C   UNL     1      -0.663   7.884  20.560  0.00  0.00    +0.000 C 
ATOM     17  C   UNL     1       0.581  13.807  24.089  0.00  0.00    +0.000 C 
ATOM     18  C   UNL     1      -2.617   9.352  19.992  0.00  0.00    +0.000 C 
ATOM     19  C   UNL     1       3.537   9.127  24.094  0.00  0.00    +0.000 C 
ENDROOT
BRANCH   6  20
ATOM     20  O   UNL     1      -1.912  12.176  20.832  0.00  0.00    +0.000 OA
BRANCH  20  22
ATOM     21  O   UNL     1      -0.221  13.337  19.788  0.00  0.00    +0.000 OA
ATOM     22  C   UNL     1      -1.346  13.304  20.279  0.00  0.00    +0.000 C 
BRANCH  22  23
ATOM     23  C   UNL     1      -2.312  14.459  20.364  0.00  0.00    +0.000 C 
ATOM     24  C   UNL     1      -2.333  15.439  21.526  0.00  0.00    +0.000 C 
ATOM     25  C   UNL     1      -3.177  14.731  19.380  0.00  0.00    +0.000 C 
ENDBRANCH  22  23
ENDBRANCH  20  22
ENDBRANCH   6  20
TORSDOF 3
ENDMDL
