MODEL 1
REMARK VINA RESULT:      -6.1      0.000      0.000
REMARK  Name = 641785_Cardamonin.pdbqt.pdb
REMARK  6 active torsions:
REMARK  status: ('A' for Active; 'I' for Inactive)
REMARK    1  A    between atoms: C_1  and  C_14
REMARK    2  A    between atoms: C_2  and  O_7
REMARK    3  A    between atoms: C_3  and  O_9
REMARK    4  A    between atoms: C_6  and  O_11
REMARK    5  A    between atoms: C_14  and  C_15
REMARK    6  A    between atoms: C_16  and  C_17
REMARK                            x       y       z     vdW  Elec       q    Type
REMARK                         _______ _______ _______ _____ _____    ______ ____
ROOT
ATOM      1  C   UNL     1       8.146  25.856  28.327  0.00  0.00    +0.000 A 
ATOM      2  C   UNL     1       9.050  26.455  29.225  0.00  0.00    +0.000 A 
ATOM      3  C   UNL     1       8.294  26.105  26.947  0.00  0.00    +0.000 A 
ATOM      4  C   UNL     1      10.053  27.300  28.727  0.00  0.00    +0.000 A 
ATOM      5  C   UNL     1       9.289  26.957  26.470  0.00  0.00    +0.000 A 
ATOM      6  C   UNL     1      10.160  27.554  27.366  0.00  0.00    +0.000 A 
ENDROOT
BRANCH   2   7
ATOM      7  O   UNL     1       8.976  26.134  30.561  0.00  0.00    +0.000 OA
ATOM      8  C   UNL     1      10.102  25.504  31.105  0.00  0.00    +0.000 C 
ENDBRANCH   2   7
BRANCH   3   9
ATOM      9  O   UNL     1       7.489  25.548  25.985  0.00  0.00    +0.000 OA
ATOM     10  H   UNL     1       7.153  26.252  25.387  0.00  0.00    +0.000 HD
ENDBRANCH   3   9
BRANCH   6  11
ATOM     11  O   UNL     1      11.127  28.385  26.886  0.00  0.00    +0.000 OA
ATOM     12  H   UNL     1      10.707  29.196  26.548  0.00  0.00    +0.000 HD
ENDBRANCH   6  11
BRANCH   1  14
ATOM     13  O   UNL     1       5.879  25.364  28.731  0.00  0.00    +0.000 OA
ATOM     14  C   UNL     1       7.037  24.964  28.753  0.00  0.00    +0.000 C 
BRANCH  14  15
ATOM     15  C   UNL     1       7.313  23.646  29.269  0.00  0.00    +0.000 C 
ATOM     16  C   UNL     1       7.525  22.546  29.706  0.00  0.00    +0.000 C 
BRANCH  16  17
ATOM     17  C   UNL     1       7.784  21.243  30.223  0.00  0.00    +0.000 A 
ATOM     18  C   UNL     1       9.014  20.633  29.984  0.00  0.00    +0.000 A 
ATOM     19  C   UNL     1       6.807  20.581  30.963  0.00  0.00    +0.000 A 
ATOM     20  C   UNL     1       9.267  19.358  30.487  0.00  0.00    +0.000 A 
ATOM     21  C   UNL     1       7.061  19.307  31.466  0.00  0.00    +0.000 A 
ATOM     22  C   UNL     1       8.290  18.697  31.227  0.00  0.00    +0.000 A 
ENDBRANCH  16  17
ENDBRANCH  14  15
ENDBRANCH   1  14
TORSDOF 6
ENDMDL
MODEL 2
REMARK VINA RESULT:      -5.4      5.618      8.327
REMARK  Name = 641785_Cardamonin.pdbqt.pdb
REMARK  6 active torsions:
REMARK  status: ('A' for Active; 'I' for Inactive)
REMARK    1  A    between atoms: C_1  and  C_14
REMARK    2  A    between atoms: C_2  and  O_7
REMARK    3  A    between atoms: C_3  and  O_9
REMARK    4  A    between atoms: C_6  and  O_11
REMARK    5  A    between atoms: C_14  and  C_15
REMARK    6  A    between atoms: C_16  and  C_17
REMARK                            x       y       z     vdW  Elec       q    Type
REMARK                         _______ _______ _______ _____ _____    ______ ____
ROOT
ATOM      1  C   UNL     1      12.613  17.335  29.685  0.00  0.00    +0.000 A 
ATOM      2  C   UNL     1      13.163  18.501  30.250  0.00  0.00    +0.000 A 
ATOM      3  C   UNL     1      13.382  16.153  29.683  0.00  0.00    +0.000 A 
ATOM      4  C   UNL     1      14.465  18.463  30.771  0.00  0.00    +0.000 A 
ATOM      5  C   UNL     1      14.679  16.136  30.195  0.00  0.00    +0.000 A 
ATOM      6  C   UNL     1      15.215  17.295  30.731  0.00  0.00    +0.000 A 
ENDROOT
BRANCH   2   7
ATOM      7  O   UNL     1      12.380  19.629  30.348  0.00  0.00    +0.000 OA
ATOM      8  C   UNL     1      12.982  20.830  29.953  0.00  0.00    +0.000 C 
ENDBRANCH   2   7
BRANCH   3   9
ATOM      9  O   UNL     1      12.932  14.955  29.187  0.00  0.00    +0.000 OA
ATOM     10  H   UNL     1      13.562  14.240  29.427  0.00  0.00    +0.000 HD
ENDBRANCH   3   9
BRANCH   6  11
ATOM     11  O   UNL     1      16.483  17.263  31.227  0.00  0.00    +0.000 OA
ATOM     12  H   UNL     1      17.091  16.992  30.517  0.00  0.00    +0.000 HD
ENDBRANCH   6  11
BRANCH   1  14
ATOM     13  O   UNL     1      11.037  16.563  28.114  0.00  0.00    +0.000 OA
ATOM     14  C   UNL     1      11.254  17.276  29.088  0.00  0.00    +0.000 C 
BRANCH  14  15
ATOM     15  C   UNL     1      10.193  18.109  29.596  0.00  0.00    +0.000 C 
ATOM     16  C   UNL     1       9.320  18.818  30.022  0.00  0.00    +0.000 C 
BRANCH  16  17
ATOM     17  C   UNL     1       8.281  19.653  30.528  0.00  0.00    +0.000 A 
ATOM     18  C   UNL     1       8.251  21.005  30.190  0.00  0.00    +0.000 A 
ATOM     19  C   UNL     1       7.300  19.118  31.359  0.00  0.00    +0.000 A 
ATOM     20  C   UNL     1       7.237  21.822  30.685  0.00  0.00    +0.000 A 
ATOM     21  C   UNL     1       6.286  19.936  31.853  0.00  0.00    +0.000 A 
ATOM     22  C   UNL     1       6.256  21.287  31.517  0.00  0.00    +0.000 A 
ENDBRANCH  16  17
ENDBRANCH  14  15
ENDBRANCH   1  14
TORSDOF 6
ENDMDL
MODEL 3
REMARK VINA RESULT:      -5.3      7.280      9.594
REMARK  Name = 641785_Cardamonin.pdbqt.pdb
REMARK  6 active torsions:
REMARK  status: ('A' for Active; 'I' for Inactive)
REMARK    1  A    between atoms: C_1  and  C_14
REMARK    2  A    between atoms: C_2  and  O_7
REMARK    3  A    between atoms: C_3  and  O_9
REMARK    4  A    between atoms: C_6  and  O_11
REMARK    5  A    between atoms: C_14  and  C_15
REMARK    6  A    between atoms: C_16  and  C_17
REMARK                            x       y       z     vdW  Elec       q    Type
REMARK                         _______ _______ _______ _____ _____    ______ ____
ROOT
ATOM      1  C   UNL     1      12.742  16.873  29.856  0.00  0.00    +0.000 A 
ATOM      2  C   UNL     1      13.018  17.701  30.961  0.00  0.00    +0.000 A 
ATOM      3  C   UNL     1      13.799  16.150  29.268  0.00  0.00    +0.000 A 
ATOM      4  C   UNL     1      14.337  17.803  31.428  0.00  0.00    +0.000 A 
ATOM      5  C   UNL     1      15.106  16.272  29.739  0.00  0.00    +0.000 A 
ATOM      6  C   UNL     1      15.367  17.104  30.814  0.00  0.00    +0.000 A 
ENDROOT
BRANCH   2   7
ATOM      7  O   UNL     1      11.976  18.328  31.603  0.00  0.00    +0.000 OA
ATOM      8  C   UNL     1      11.909  19.719  31.453  0.00  0.00    +0.000 C 
ENDBRANCH   2   7
BRANCH   3   9
ATOM      9  O   UNL     1      13.635  15.292  28.210  0.00  0.00    +0.000 OA
ATOM     10  H   UNL     1      13.173  15.755  27.477  0.00  0.00    +0.000 HD
ENDBRANCH   3   9
BRANCH   6  11
ATOM     11  O   UNL     1      16.649  17.214  31.262  0.00  0.00    +0.000 OA
ATOM     12  H   UNL     1      16.637  17.600  32.157  0.00  0.00    +0.000 HD
ENDBRANCH   6  11
BRANCH   1  14
ATOM     13  O   UNL     1      10.944  17.553  28.495  0.00  0.00    +0.000 OA
ATOM     14  C   UNL     1      11.386  16.713  29.271  0.00  0.00    +0.000 C 
BRANCH  14  15
ATOM     15  C   UNL     1      10.543  15.611  29.665  0.00  0.00    +0.000 C 
ATOM     16  C   UNL     1       9.825  14.702  29.986  0.00  0.00    +0.000 C 
BRANCH  16  17
ATOM     17  C   UNL     1       8.978  13.621  30.371  0.00  0.00    +0.000 A 
ATOM     18  C   UNL     1       9.534  12.464  30.914  0.00  0.00    +0.000 A 
ATOM     19  C   UNL     1       7.599  13.722  30.201  0.00  0.00    +0.000 A 
ATOM     20  C   UNL     1       8.708  11.407  31.288  0.00  0.00    +0.000 A 
ATOM     21  C   UNL     1       6.774  12.664  30.576  0.00  0.00    +0.000 A 
ATOM     22  C   UNL     1       7.329  11.508  31.119  0.00  0.00    +0.000 A 
ENDBRANCH  16  17
ENDBRANCH  14  15
ENDBRANCH   1  14
TORSDOF 6
ENDMDL
MODEL 4
REMARK VINA RESULT:      -5.1      2.942      4.449
REMARK  Name = 641785_Cardamonin.pdbqt.pdb
REMARK  6 active torsions:
REMARK  status: ('A' for Active; 'I' for Inactive)
REMARK    1  A    between atoms: C_1  and  C_14
REMARK    2  A    between atoms: C_2  and  O_7
REMARK    3  A    between atoms: C_3  and  O_9
REMARK    4  A    between atoms: C_6  and  O_11
REMARK    5  A    between atoms: C_14  and  C_15
REMARK    6  A    between atoms: C_16  and  C_17
REMARK                            x       y       z     vdW  Elec       q    Type
REMARK                         _______ _______ _______ _____ _____    ______ ____
ROOT
ATOM      1  C   UNL     1       6.855  23.732  30.164  0.00  0.00    +0.000 A 
ATOM      2  C   UNL     1       6.310  23.652  31.460  0.00  0.00    +0.000 A 
ATOM      3  C   UNL     1       6.154  24.451  29.175  0.00  0.00    +0.000 A 
ATOM      4  C   UNL     1       5.076  24.266  31.724  0.00  0.00    +0.000 A 
ATOM      5  C   UNL     1       4.924  25.046  29.452  0.00  0.00    +0.000 A 
ATOM      6  C   UNL     1       4.389  24.944  30.725  0.00  0.00    +0.000 A 
ENDROOT
BRANCH   2   7
ATOM      7  O   UNL     1       7.037  23.040  32.454  0.00  0.00    +0.000 OA
ATOM      8  C   UNL     1       6.330  22.155  33.277  0.00  0.00    +0.000 C 
ENDBRANCH   2   7
BRANCH   3   9
ATOM      9  O   UNL     1       6.610  24.617  27.891  0.00  0.00    +0.000 OA
ATOM     10  H   UNL     1       7.014  25.508  27.797  0.00  0.00    +0.000 HD
ENDBRANCH   3   9
BRANCH   6  11
ATOM     11  O   UNL     1       3.187  25.529  30.981  0.00  0.00    +0.000 OA
ATOM     12  H   UNL     1       2.489  25.031  30.518  0.00  0.00    +0.000 HD
ENDBRANCH   6  11
BRANCH   1  14
ATOM     13  O   UNL     1       9.004  23.752  29.200  0.00  0.00    +0.000 OA
ATOM     14  C   UNL     1       8.141  23.098  29.776  0.00  0.00    +0.000 C 
BRANCH  14  15
ATOM     15  C   UNL     1       8.364  21.692  30.004  0.00  0.00    +0.000 C 
ATOM     16  C   UNL     1       8.555  20.517  30.175  0.00  0.00    +0.000 C 
BRANCH  16  17
ATOM     17  C   UNL     1       8.777  19.124  30.384  0.00  0.00    +0.000 A 
ATOM     18  C   UNL     1       7.875  18.384  31.146  0.00  0.00    +0.000 A 
ATOM     19  C   UNL     1       9.896  18.507  29.829  0.00  0.00    +0.000 A 
ATOM     20  C   UNL     1       8.093  17.023  31.352  0.00  0.00    +0.000 A 
ATOM     21  C   UNL     1      10.113  17.146  30.035  0.00  0.00    +0.000 A 
ATOM     22  C   UNL     1       9.211  16.406  30.797  0.00  0.00    +0.000 A 
ENDBRANCH  16  17
ENDBRANCH  14  15
ENDBRANCH   1  14
TORSDOF 6
ENDMDL
MODEL 5
REMARK VINA RESULT:      -5.0     16.058     18.622
REMARK  Name = 641785_Cardamonin.pdbqt.pdb
REMARK  6 active torsions:
REMARK  status: ('A' for Active; 'I' for Inactive)
REMARK    1  A    between atoms: C_1  and  C_14
REMARK    2  A    between atoms: C_2  and  O_7
REMARK    3  A    between atoms: C_3  and  O_9
REMARK    4  A    between atoms: C_6  and  O_11
REMARK    5  A    between atoms: C_14  and  C_15
REMARK    6  A    between atoms: C_16  and  C_17
REMARK                            x       y       z     vdW  Elec       q    Type
REMARK                         _______ _______ _______ _____ _____    ______ ____
ROOT
ATOM      1  C   UNL     1      -1.122  27.438  16.529  0.00  0.00    +0.000 A 
ATOM      2  C   UNL     1      -1.079  26.279  15.730  0.00  0.00    +0.000 A 
ATOM      3  C   UNL     1      -2.214  27.623  17.400  0.00  0.00    +0.000 A 
ATOM      4  C   UNL     1      -2.132  25.355  15.805  0.00  0.00    +0.000 A 
ATOM      5  C   UNL     1      -3.258  26.699  17.454  0.00  0.00    +0.000 A 
ATOM      6  C   UNL     1      -3.212  25.573  16.650  0.00  0.00    +0.000 A 
ENDROOT
BRANCH   2   7
ATOM      7  O   UNL     1       0.033  26.043  14.955  0.00  0.00    +0.000 OA
ATOM      8  C   UNL     1      -0.210  25.751  13.607  0.00  0.00    +0.000 C 
ENDBRANCH   2   7
BRANCH   3   9
ATOM      9  O   UNL     1      -2.339  28.698  18.243  0.00  0.00    +0.000 OA
ATOM     10  H   UNL     1      -1.694  29.395  17.989  0.00  0.00    +0.000 HD
ENDBRANCH   3   9
BRANCH   6  11
ATOM     11  O   UNL     1      -4.239  24.681  16.713  0.00  0.00    +0.000 OA
ATOM     12  H   UNL     1      -4.555  24.501  15.809  0.00  0.00    +0.000 HD
ENDBRANCH   6  11
BRANCH   1  14
ATOM     13  O   UNL     1       0.385  28.928  17.557  0.00  0.00    +0.000 OA
ATOM     14  C   UNL     1      -0.070  28.487  16.507  0.00  0.00    +0.000 C 
BRANCH  14  15
ATOM     15  C   UNL     1       0.376  29.053  15.258  0.00  0.00    +0.000 C 
ATOM     16  C   UNL     1       0.730  29.528  14.212  0.00  0.00    +0.000 C 
BRANCH  16  17
ATOM     17  C   UNL     1       1.156  30.089  12.972  0.00  0.00    +0.000 A 
ATOM     18  C   UNL     1       1.913  31.259  12.964  0.00  0.00    +0.000 A 
ATOM     19  C   UNL     1       0.812  29.470  11.773  0.00  0.00    +0.000 A 
ATOM     20  C   UNL     1       2.329  31.809  11.753  0.00  0.00    +0.000 A 
ATOM     21  C   UNL     1       1.228  30.020  10.563  0.00  0.00    +0.000 A 
ATOM     22  C   UNL     1       1.985  31.189  10.554  0.00  0.00    +0.000 A 
ENDBRANCH  16  17
ENDBRANCH  14  15
ENDBRANCH   1  14
TORSDOF 6
ENDMDL
MODEL 6
REMARK VINA RESULT:      -4.9      5.106      8.262
REMARK  Name = 641785_Cardamonin.pdbqt.pdb
REMARK  6 active torsions:
REMARK  status: ('A' for Active; 'I' for Inactive)
REMARK    1  A    between atoms: C_1  and  C_14
REMARK    2  A    between atoms: C_2  and  O_7
REMARK    3  A    between atoms: C_3  and  O_9
REMARK    4  A    between atoms: C_6  and  O_11
REMARK    5  A    between atoms: C_14  and  C_15
REMARK    6  A    between atoms: C_16  and  C_17
REMARK                            x       y       z     vdW  Elec       q    Type
REMARK                         _______ _______ _______ _____ _____    ______ ____
ROOT
ATOM      1  C   UNL     1      11.275  17.658  30.667  0.00  0.00    +0.000 A 
ATOM      2  C   UNL     1      12.645  17.951  30.525  0.00  0.00    +0.000 A 
ATOM      3  C   UNL     1      10.739  16.558  29.967  0.00  0.00    +0.000 A 
ATOM      4  C   UNL     1      13.431  17.159  29.674  0.00  0.00    +0.000 A 
ATOM      5  C   UNL     1      11.532  15.787  29.118  0.00  0.00    +0.000 A 
ATOM      6  C   UNL     1      12.874  16.098  28.972  0.00  0.00    +0.000 A 
ENDROOT
BRANCH   2   7
ATOM      7  O   UNL     1      13.195  18.958  31.283  0.00  0.00    +0.000 OA
ATOM      8  C   UNL     1      13.616  20.095  30.582  0.00  0.00    +0.000 C 
ENDBRANCH   2   7
BRANCH   3   9
ATOM      9  O   UNL     1       9.427  16.166  30.058  0.00  0.00    +0.000 OA
ATOM     10  H   UNL     1       9.382  15.209  30.277  0.00  0.00    +0.000 HD
ENDBRANCH   3   9
BRANCH   6  11
ATOM     11  O   UNL     1      13.637  15.337  28.138  0.00  0.00    +0.000 OA
ATOM     12  H   UNL     1      14.473  15.805  27.962  0.00  0.00    +0.000 HD
ENDBRANCH   6  11
BRANCH   1  14
ATOM     13  O   UNL     1       9.940  17.983  32.580  0.00  0.00    +0.000 OA
ATOM     14  C   UNL     1      10.353  18.448  31.523  0.00  0.00    +0.000 C 
BRANCH  14  15
ATOM     15  C   UNL     1       9.872  19.736  31.089  0.00  0.00    +0.000 C 
ATOM     16  C   UNL     1       9.479  20.819  30.743  0.00  0.00    +0.000 C 
BRANCH  16  17
ATOM     17  C   UNL     1       9.009  22.099  30.327  0.00  0.00    +0.000 A 
ATOM     18  C   UNL     1       7.663  22.276  30.014  0.00  0.00    +0.000 A 
ATOM     19  C   UNL     1       9.896  23.169  30.234  0.00  0.00    +0.000 A 
ATOM     20  C   UNL     1       7.204  23.526  29.606  0.00  0.00    +0.000 A 
ATOM     21  C   UNL     1       9.435  24.420  29.826  0.00  0.00    +0.000 A 
ATOM     22  C   UNL     1       8.090  24.597  29.513  0.00  0.00    +0.000 A 
ENDBRANCH  16  17
ENDBRANCH  14  15
ENDBRANCH   1  14
TORSDOF 6
ENDMDL
MODEL 7
REMARK VINA RESULT:      -4.9     17.865     20.220
REMARK  Name = 641785_Cardamonin.pdbqt.pdb
REMARK  6 active torsions:
REMARK  status: ('A' for Active; 'I' for Inactive)
REMARK    1  A    between atoms: C_1  and  C_14
REMARK    2  A    between atoms: C_2  and  O_7
REMARK    3  A    between atoms: C_3  and  O_9
REMARK    4  A    between atoms: C_6  and  O_11
REMARK    5  A    between atoms: C_14  and  C_15
REMARK    6  A    between atoms: C_16  and  C_17
REMARK                            x       y       z     vdW  Elec       q    Type
REMARK                         _______ _______ _______ _____ _____    ______ ____
ROOT
ATOM      1  C   UNL     1      24.438  11.615  25.959  0.00  0.00    +0.000 A 
ATOM      2  C   UNL     1      25.637  11.714  25.227  0.00  0.00    +0.000 A 
ATOM      3  C   UNL     1      23.509  10.614  25.610  0.00  0.00    +0.000 A 
ATOM      4  C   UNL     1      25.861  10.834  24.158  0.00  0.00    +0.000 A 
ATOM      5  C   UNL     1      23.743   9.754  24.538  0.00  0.00    +0.000 A 
ATOM      6  C   UNL     1      24.917   9.875  23.814  0.00  0.00    +0.000 A 
ENDROOT
BRANCH   2   7
ATOM      7  O   UNL     1      26.591  12.620  25.627  0.00  0.00    +0.000 OA
ATOM      8  C   UNL     1      26.858  13.665  24.735  0.00  0.00    +0.000 C 
ENDBRANCH   2   7
BRANCH   3   9
ATOM      9  O   UNL     1      22.327  10.410  26.277  0.00  0.00    +0.000 OA
ATOM     10  H   UNL     1      22.475  10.492  27.245  0.00  0.00    +0.000 HD
ENDBRANCH   3   9
BRANCH   6  11
ATOM     11  O   UNL     1      25.133   9.029  22.768  0.00  0.00    +0.000 OA
ATOM     12  H   UNL     1      25.308   8.136  23.116  0.00  0.00    +0.000 HD
ENDBRANCH   6  11
BRANCH   1  14
ATOM     13  O   UNL     1      24.053  12.074  28.237  0.00  0.00    +0.000 OA
ATOM     14  C   UNL     1      24.095  12.512  27.093  0.00  0.00    +0.000 C 
BRANCH  14  15
ATOM     15  C   UNL     1      23.734  13.888  26.856  0.00  0.00    +0.000 C 
ATOM     16  C   UNL     1      23.416  15.029  26.652  0.00  0.00    +0.000 C 
BRANCH  16  17
ATOM     17  C   UNL     1      23.046  16.385  26.411  0.00  0.00    +0.000 A 
ATOM     18  C   UNL     1      23.596  17.073  25.331  0.00  0.00    +0.000 A 
ATOM     19  C   UNL     1      22.138  17.019  27.255  0.00  0.00    +0.000 A 
ATOM     20  C   UNL     1      23.237  18.398  25.095  0.00  0.00    +0.000 A 
ATOM     21  C   UNL     1      21.779  18.345  27.018  0.00  0.00    +0.000 A 
ATOM     22  C   UNL     1      22.329  19.033  25.939  0.00  0.00    +0.000 A 
ENDBRANCH  16  17
ENDBRANCH  14  15
ENDBRANCH   1  14
TORSDOF 6
ENDMDL
MODEL 8
REMARK VINA RESULT:      -4.8     11.941     14.381
REMARK  Name = 641785_Cardamonin.pdbqt.pdb
REMARK  6 active torsions:
REMARK  status: ('A' for Active; 'I' for Inactive)
REMARK    1  A    between atoms: C_1  and  C_14
REMARK    2  A    between atoms: C_2  and  O_7
REMARK    3  A    between atoms: C_3  and  O_9
REMARK    4  A    between atoms: C_6  and  O_11
REMARK    5  A    between atoms: C_14  and  C_15
REMARK    6  A    between atoms: C_16  and  C_17
REMARK                            x       y       z     vdW  Elec       q    Type
REMARK                         _______ _______ _______ _____ _____    ______ ____
ROOT
ATOM      1  C   UNL     1       0.043  17.344  23.077  0.00  0.00    +0.000 A 
ATOM      2  C   UNL     1      -0.149  15.949  23.062  0.00  0.00    +0.000 A 
ATOM      3  C   UNL     1       0.600  17.941  24.227  0.00  0.00    +0.000 A 
ATOM      4  C   UNL     1       0.194  15.197  24.195  0.00  0.00    +0.000 A 
ATOM      5  C   UNL     1       0.926  17.179  25.349  0.00  0.00    +0.000 A 
ATOM      6  C   UNL     1       0.714  15.811  25.327  0.00  0.00    +0.000 A 
ENDROOT
BRANCH   2   7
ATOM      7  O   UNL     1      -0.595  15.349  21.907  0.00  0.00    +0.000 OA
ATOM      8  C   UNL     1      -1.933  14.936  21.907  0.00  0.00    +0.000 C 
ENDBRANCH   2   7
BRANCH   3   9
ATOM      9  O   UNL     1       0.858  19.284  24.336  0.00  0.00    +0.000 OA
ATOM     10  H   UNL     1       0.036  19.794  24.163  0.00  0.00    +0.000 HD
ENDBRANCH   3   9
BRANCH   6  11
ATOM     11  O   UNL     1       1.036  15.080  26.431  0.00  0.00    +0.000 OA
ATOM     12  H   UNL     1       0.214  14.784  26.862  0.00  0.00    +0.000 HD
ENDBRANCH   6  11
BRANCH   1  14
ATOM     13  O   UNL     1       0.330  18.179  20.894  0.00  0.00    +0.000 OA
ATOM     14  C   UNL     1      -0.308  18.232  21.940  0.00  0.00    +0.000 C 
BRANCH  14  15
ATOM     15  C   UNL     1      -1.351  19.219  22.074  0.00  0.00    +0.000 C 
ATOM     16  C   UNL     1      -2.218  20.042  22.205  0.00  0.00    +0.000 C 
BRANCH  16  17
ATOM     17  C   UNL     1      -3.248  21.017  22.353  0.00  0.00    +0.000 A 
ATOM     18  C   UNL     1      -3.288  22.119  21.501  0.00  0.00    +0.000 A 
ATOM     19  C   UNL     1      -4.209  20.867  23.350  0.00  0.00    +0.000 A 
ATOM     20  C   UNL     1      -4.293  23.072  21.646  0.00  0.00    +0.000 A 
ATOM     21  C   UNL     1      -5.214  21.822  23.494  0.00  0.00    +0.000 A 
ATOM     22  C   UNL     1      -5.255  22.923  22.643  0.00  0.00    +0.000 A 
ENDBRANCH  16  17
ENDBRANCH  14  15
ENDBRANCH   1  14
TORSDOF 6
ENDMDL
MODEL 9
REMARK VINA RESULT:      -4.7     22.225     25.136
REMARK  Name = 641785_Cardamonin.pdbqt.pdb
REMARK  6 active torsions:
REMARK  status: ('A' for Active; 'I' for Inactive)
REMARK    1  A    between atoms: C_1  and  C_14
REMARK    2  A    between atoms: C_2  and  O_7
REMARK    3  A    between atoms: C_3  and  O_9
REMARK    4  A    between atoms: C_6  and  O_11
REMARK    5  A    between atoms: C_14  and  C_15
REMARK    6  A    between atoms: C_16  and  C_17
REMARK                            x       y       z     vdW  Elec       q    Type
REMARK                         _______ _______ _______ _____ _____    ______ ____
ROOT
ATOM      1  C   UNL     1      21.101  31.225   7.903  0.00  0.00    +0.000 A 
ATOM      2  C   UNL     1      20.829  32.071   6.810  0.00  0.00    +0.000 A 
ATOM      3  C   UNL     1      20.506  29.948   7.939  0.00  0.00    +0.000 A 
ATOM      4  C   UNL     1      19.956  31.630   5.804  0.00  0.00    +0.000 A 
ATOM      5  C   UNL     1      19.633  29.530   6.935  0.00  0.00    +0.000 A 
ATOM      6  C   UNL     1      19.358  30.379   5.876  0.00  0.00    +0.000 A 
ENDROOT
BRANCH   2   7
ATOM      7  O   UNL     1      21.485  33.276   6.717  0.00  0.00    +0.000 OA
ATOM      8  C   UNL     1      20.695  34.420   6.880  0.00  0.00    +0.000 C 
ENDBRANCH   2   7
BRANCH   3   9
ATOM      9  O   UNL     1      20.729  29.035   8.939  0.00  0.00    +0.000 OA
ATOM     10  H   UNL     1      20.037  28.338   8.910  0.00  0.00    +0.000 HD
ENDBRANCH   3   9
BRANCH   6  11
ATOM     11  O   UNL     1      18.503  29.958   4.903  0.00  0.00    +0.000 OA
ATOM     12  H   UNL     1      17.934  30.704   4.641  0.00  0.00    +0.000 HD
ENDBRANCH   6  11
BRANCH   1  14
ATOM     13  O   UNL     1      23.173  31.278   9.022  0.00  0.00    +0.000 OA
ATOM     14  C   UNL     1      21.991  31.605   9.030  0.00  0.00    +0.000 C 
BRANCH  14  15
ATOM     15  C   UNL     1      21.464  32.296  10.180  0.00  0.00    +0.000 C 
ATOM     16  C   UNL     1      21.036  32.863  11.151  0.00  0.00    +0.000 C 
BRANCH  16  17
ATOM     17  C   UNL     1      20.524  33.538  12.297  0.00  0.00    +0.000 A 
ATOM     18  C   UNL     1      19.152  33.754  12.420  0.00  0.00    +0.000 A 
ATOM     19  C   UNL     1      21.394  33.981  13.291  0.00  0.00    +0.000 A 
ATOM     20  C   UNL     1      18.651  34.415  13.539  0.00  0.00    +0.000 A 
ATOM     21  C   UNL     1      20.891  34.642  14.410  0.00  0.00    +0.000 A 
ATOM     22  C   UNL     1      19.521  34.858  14.533  0.00  0.00    +0.000 A 
ENDBRANCH  16  17
ENDBRANCH  14  15
ENDBRANCH   1  14
TORSDOF 6
ENDMDL
