MODEL 1
REMARK VINA RESULT:      -5.2      0.000      0.000
REMARK  Name = 6440856_Goniothalamin.pdbqt.pdb
REMARK  2 active torsions:
REMARK  status: ('A' for Active; 'I' for Inactive)
REMARK    1  A    between atoms: C_1  and  C_5
REMARK    2  A    between atoms: C_2  and  C_10
REMARK                            x       y       z     vdW  Elec       q    Type
REMARK                         _______ _______ _______ _____ _____    ______ ____
ROOT
ATOM      1  C   UNL     1       8.346  23.850  29.156  0.00  0.00    +0.000 C 
ATOM      2  C   UNL     1       8.040  22.802  29.657  0.00  0.00    +0.000 C 
ENDROOT
BRANCH   1   5
ATOM      3  O   UNL     1       8.738  25.182  27.134  0.00  0.00    +0.000 OA
ATOM      4  O   UNL     1       9.161  26.619  25.364  0.00  0.00    +0.000 OA
ATOM      5  C   UNL     1       8.708  25.084  28.570  0.00  0.00    +0.000 A 
ATOM      6  C   UNL     1       9.054  26.273  29.269  0.00  0.00    +0.000 A 
ATOM      7  C   UNL     1       9.449  27.625  28.722  0.00  0.00    +0.000 A 
ATOM      8  C   UNL     1       9.398  27.442  27.540  0.00  0.00    +0.000 A 
ATOM      9  C   UNL     1       9.098  26.410  26.565  0.00  0.00    +0.000 A 
ENDBRANCH   1   5
BRANCH   2  10
ATOM     10  C   UNL     1       7.677  21.558  30.253  0.00  0.00    +0.000 A 
ATOM     11  C   UNL     1       6.435  21.418  30.869  0.00  0.00    +0.000 A 
ATOM     12  C   UNL     1       8.564  20.485  30.216  0.00  0.00    +0.000 A 
ATOM     13  C   UNL     1       6.081  20.202  31.450  0.00  0.00    +0.000 A 
ATOM     14  C   UNL     1       8.210  19.269  30.798  0.00  0.00    +0.000 A 
ATOM     15  C   UNL     1       6.968  19.129  31.414  0.00  0.00    +0.000 A 
ENDBRANCH   2  10
TORSDOF 2
ENDMDL
MODEL 2
REMARK VINA RESULT:      -5.1      1.606      2.625
REMARK  Name = 6440856_Goniothalamin.pdbqt.pdb
REMARK  2 active torsions:
REMARK  status: ('A' for Active; 'I' for Inactive)
REMARK    1  A    between atoms: C_1  and  C_5
REMARK    2  A    between atoms: C_2  and  C_10
REMARK                            x       y       z     vdW  Elec       q    Type
REMARK                         _______ _______ _______ _____ _____    ______ ____
ROOT
ATOM      1  C   UNL     1       8.507  24.985  28.279  0.00  0.00    +0.000 C 
ATOM      2  C   UNL     1       7.981  24.120  28.924  0.00  0.00    +0.000 C 
ENDROOT
BRANCH   1   5
ATOM      3  O   UNL     1      10.025  26.911  28.180  0.00  0.00    +0.000 OA
ATOM      4  O   UNL     1      11.409  28.743  27.858  0.00  0.00    +0.000 OA
ATOM      5  C   UNL     1       9.128  26.001  27.516  0.00  0.00    +0.000 A 
ATOM      6  C   UNL     1       8.956  26.224  26.122  0.00  0.00    +0.000 A 
ATOM      7  C   UNL     1       9.578  27.278  25.237  0.00  0.00    +0.000 A 
ATOM      8  C   UNL     1      10.259  27.886  26.012  0.00  0.00    +0.000 A 
ATOM      9  C   UNL     1      10.632  27.912  27.413  0.00  0.00    +0.000 A 
ENDBRANCH   1   5
BRANCH   2  10
ATOM     10  C   UNL     1       7.355  23.093  29.691  0.00  0.00    +0.000 A 
ATOM     11  C   UNL     1       8.049  21.921  29.980  0.00  0.00    +0.000 A 
ATOM     12  C   UNL     1       6.051  23.265  30.149  0.00  0.00    +0.000 A 
ATOM     13  C   UNL     1       7.437  20.917  30.729  0.00  0.00    +0.000 A 
ATOM     14  C   UNL     1       5.440  22.262  30.898  0.00  0.00    +0.000 A 
ATOM     15  C   UNL     1       6.133  21.089  31.188  0.00  0.00    +0.000 A 
ENDBRANCH   2  10
TORSDOF 2
ENDMDL
MODEL 3
REMARK VINA RESULT:      -5.1      5.292      8.041
REMARK  Name = 6440856_Goniothalamin.pdbqt.pdb
REMARK  2 active torsions:
REMARK  status: ('A' for Active; 'I' for Inactive)
REMARK    1  A    between atoms: C_1  and  C_5
REMARK    2  A    between atoms: C_2  and  C_10
REMARK                            x       y       z     vdW  Elec       q    Type
REMARK                         _______ _______ _______ _____ _____    ______ ____
ROOT
ATOM      1  C   UNL     1      10.578  18.040  30.234  0.00  0.00    +0.000 C 
ATOM      2  C   UNL     1       9.566  18.655  30.429  0.00  0.00    +0.000 C 
ENDROOT
BRANCH   1   5
ATOM      3  O   UNL     1      12.902  17.560  30.860  0.00  0.00    +0.000 OA
ATOM      4  O   UNL     1      15.101  16.955  31.275  0.00  0.00    +0.000 OA
ATOM      5  C   UNL     1      11.772  17.319  30.000  0.00  0.00    +0.000 A 
ATOM      6  C   UNL     1      11.980  16.353  28.978  0.00  0.00    +0.000 A 
ATOM      7  C   UNL     1      13.215  15.543  28.663  0.00  0.00    +0.000 A 
ATOM      8  C   UNL     1      13.984  15.923  29.499  0.00  0.00    +0.000 A 
ATOM      9  C   UNL     1      14.078  16.840  30.619  0.00  0.00    +0.000 A 
ENDBRANCH   1   5
BRANCH   2  10
ATOM     10  C   UNL     1       8.363  19.386  30.662  0.00  0.00    +0.000 A 
ATOM     11  C   UNL     1       8.268  20.716  30.260  0.00  0.00    +0.000 A 
ATOM     12  C   UNL     1       7.285  18.767  31.291  0.00  0.00    +0.000 A 
ATOM     13  C   UNL     1       7.094  21.429  30.489  0.00  0.00    +0.000 A 
ATOM     14  C   UNL     1       6.110  19.481  31.519  0.00  0.00    +0.000 A 
ATOM     15  C   UNL     1       6.015  20.811  31.117  0.00  0.00    +0.000 A 
ENDBRANCH   2  10
TORSDOF 2
ENDMDL
MODEL 4
REMARK VINA RESULT:      -5.1     24.491     27.212
REMARK  Name = 6440856_Goniothalamin.pdbqt.pdb
REMARK  2 active torsions:
REMARK  status: ('A' for Active; 'I' for Inactive)
REMARK    1  A    between atoms: C_1  and  C_5
REMARK    2  A    between atoms: C_2  and  C_10
REMARK                            x       y       z     vdW  Elec       q    Type
REMARK                         _______ _______ _______ _____ _____    ______ ____
ROOT
ATOM      1  C   UNL     1      20.995  29.308   6.468  0.00  0.00    +0.000 C 
ATOM      2  C   UNL     1      21.453  28.556   5.651  0.00  0.00    +0.000 C 
ENDROOT
BRANCH   1   5
ATOM      3  O   UNL     1      21.144  30.336   8.691  0.00  0.00    +0.000 OA
ATOM      4  O   UNL     1      21.089  31.422  10.739  0.00  0.00    +0.000 OA
ATOM      5  C   UNL     1      20.460  30.194   7.432  0.00  0.00    +0.000 A 
ATOM      6  C   UNL     1      19.287  30.982   7.284  0.00  0.00    +0.000 A 
ATOM      7  C   UNL     1      18.652  31.947   8.258  0.00  0.00    +0.000 A 
ATOM      8  C   UNL     1      19.393  31.880   9.196  0.00  0.00    +0.000 A 
ATOM      9  C   UNL     1      20.604  31.215   9.637  0.00  0.00    +0.000 A 
ENDBRANCH   1   5
BRANCH   2  10
ATOM     10  C   UNL     1      21.996  27.664   4.680  0.00  0.00    +0.000 A 
ATOM     11  C   UNL     1      23.290  27.172   4.834  0.00  0.00    +0.000 A 
ATOM     12  C   UNL     1      21.231  27.285   3.579  0.00  0.00    +0.000 A 
ATOM     13  C   UNL     1      23.820  26.301   3.885  0.00  0.00    +0.000 A 
ATOM     14  C   UNL     1      21.762  26.413   2.631  0.00  0.00    +0.000 A 
ATOM     15  C   UNL     1      23.056  25.922   2.785  0.00  0.00    +0.000 A 
ENDBRANCH   2  10
TORSDOF 2
ENDMDL
MODEL 5
REMARK VINA RESULT:      -4.9      2.474      4.117
REMARK  Name = 6440856_Goniothalamin.pdbqt.pdb
REMARK  2 active torsions:
REMARK  status: ('A' for Active; 'I' for Inactive)
REMARK    1  A    between atoms: C_1  and  C_5
REMARK    2  A    between atoms: C_2  and  C_10
REMARK                            x       y       z     vdW  Elec       q    Type
REMARK                         _______ _______ _______ _____ _____    ______ ____
ROOT
ATOM      1  C   UNL     1       8.408  20.823  30.109  0.00  0.00    +0.000 C 
ATOM      2  C   UNL     1       8.890  19.724  30.096  0.00  0.00    +0.000 C 
ENDROOT
BRANCH   1   5
ATOM      3  O   UNL     1       7.915  22.916  28.925  0.00  0.00    +0.000 OA
ATOM      4  O   UNL     1       7.349  24.966  28.002  0.00  0.00    +0.000 OA
ATOM      5  C   UNL     1       7.837  22.117  30.121  0.00  0.00    +0.000 A 
ATOM      6  C   UNL     1       7.175  22.730  31.220  0.00  0.00    +0.000 A 
ATOM      7  C   UNL     1       6.542  24.099  31.314  0.00  0.00    +0.000 A 
ATOM      8  C   UNL     1       6.740  24.542  30.220  0.00  0.00    +0.000 A 
ATOM      9  C   UNL     1       7.347  24.195  28.949  0.00  0.00    +0.000 A 
ENDBRANCH   1   5
BRANCH   2  10
ATOM     10  C   UNL     1       9.463  18.418  30.081  0.00  0.00    +0.000 A 
ATOM     11  C   UNL     1       8.870  17.390  30.810  0.00  0.00    +0.000 A 
ATOM     12  C   UNL     1      10.615  18.173  29.337  0.00  0.00    +0.000 A 
ATOM     13  C   UNL     1       9.430  16.114  30.796  0.00  0.00    +0.000 A 
ATOM     14  C   UNL     1      11.175  16.897  29.323  0.00  0.00    +0.000 A 
ATOM     15  C   UNL     1      10.581  15.869  30.052  0.00  0.00    +0.000 A 
ENDBRANCH   2  10
TORSDOF 2
ENDMDL
MODEL 6
REMARK VINA RESULT:      -4.8      4.210      7.599
REMARK  Name = 6440856_Goniothalamin.pdbqt.pdb
REMARK  2 active torsions:
REMARK  status: ('A' for Active; 'I' for Inactive)
REMARK    1  A    between atoms: C_1  and  C_5
REMARK    2  A    between atoms: C_2  and  C_10
REMARK                            x       y       z     vdW  Elec       q    Type
REMARK                         _______ _______ _______ _____ _____    ______ ____
ROOT
ATOM      1  C   UNL     1       9.093  18.856  30.301  0.00  0.00    +0.000 C 
ATOM      2  C   UNL     1       8.435  19.860  30.332  0.00  0.00    +0.000 C 
ENDROOT
BRANCH   1   5
ATOM      3  O   UNL     1      10.814  17.507  29.189  0.00  0.00    +0.000 OA
ATOM      4  O   UNL     1      12.408  16.073  28.306  0.00  0.00    +0.000 OA
ATOM      5  C   UNL     1       9.870  17.676  30.263  0.00  0.00    +0.000 A 
ATOM      6  C   UNL     1       9.818  16.609  31.201  0.00  0.00    +0.000 A 
ATOM      7  C   UNL     1      10.609  15.322  31.234  0.00  0.00    +0.000 A 
ATOM      8  C   UNL     1      11.298  15.428  30.260  0.00  0.00    +0.000 A 
ATOM      9  C   UNL     1      11.577  16.334  29.163  0.00  0.00    +0.000 A 
ENDBRANCH   1   5
BRANCH   2  10
ATOM     10  C   UNL     1       7.654  21.053  30.369  0.00  0.00    +0.000 A 
ATOM     11  C   UNL     1       6.366  21.025  30.898  0.00  0.00    +0.000 A 
ATOM     12  C   UNL     1       8.181  22.245  29.875  0.00  0.00    +0.000 A 
ATOM     13  C   UNL     1       5.603  22.191  30.933  0.00  0.00    +0.000 A 
ATOM     14  C   UNL     1       7.418  23.410  29.911  0.00  0.00    +0.000 A 
ATOM     15  C   UNL     1       6.130  23.382  30.441  0.00  0.00    +0.000 A 
ENDBRANCH   2  10
TORSDOF 2
ENDMDL
MODEL 7
REMARK VINA RESULT:      -4.8     16.091     16.920
REMARK  Name = 6440856_Goniothalamin.pdbqt.pdb
REMARK  2 active torsions:
REMARK  status: ('A' for Active; 'I' for Inactive)
REMARK    1  A    between atoms: C_1  and  C_5
REMARK    2  A    between atoms: C_2  and  C_10
REMARK                            x       y       z     vdW  Elec       q    Type
REMARK                         _______ _______ _______ _____ _____    ______ ____
ROOT
ATOM      1  C   UNL     1      23.276  16.957  25.818  0.00  0.00    +0.000 C 
ATOM      2  C   UNL     1      23.247  15.764  25.949  0.00  0.00    +0.000 C 
ENDROOT
BRANCH   1   5
ATOM      3  O   UNL     1      22.922  18.926  24.397  0.00  0.00    +0.000 OA
ATOM      4  O   UNL     1      22.656  20.915  23.236  0.00  0.00    +0.000 OA
ATOM      5  C   UNL     1      23.305  18.362  25.665  0.00  0.00    +0.000 A 
ATOM      6  C   UNL     1      23.683  19.304  26.661  0.00  0.00    +0.000 A 
ATOM      7  C   UNL     1      23.741  20.812  26.580  0.00  0.00    +0.000 A 
ATOM      8  C   UNL     1      23.386  21.016  25.455  0.00  0.00    +0.000 A 
ATOM      9  C   UNL     1      22.956  20.318  24.258  0.00  0.00    +0.000 A 
ENDBRANCH   1   5
BRANCH   2  10
ATOM     10  C   UNL     1      23.214  14.346  26.105  0.00  0.00    +0.000 A 
ATOM     11  C   UNL     1      24.107  13.547  25.395  0.00  0.00    +0.000 A 
ATOM     12  C   UNL     1      22.288  13.764  26.968  0.00  0.00    +0.000 A 
ATOM     13  C   UNL     1      24.074  12.163  25.547  0.00  0.00    +0.000 A 
ATOM     14  C   UNL     1      22.256  12.379  27.120  0.00  0.00    +0.000 A 
ATOM     15  C   UNL     1      23.149  11.580  26.410  0.00  0.00    +0.000 A 
ENDBRANCH   2  10
TORSDOF 2
ENDMDL
MODEL 8
REMARK VINA RESULT:      -4.8     16.348     17.861
REMARK  Name = 6440856_Goniothalamin.pdbqt.pdb
REMARK  2 active torsions:
REMARK  status: ('A' for Active; 'I' for Inactive)
REMARK    1  A    between atoms: C_1  and  C_5
REMARK    2  A    between atoms: C_2  and  C_10
REMARK                            x       y       z     vdW  Elec       q    Type
REMARK                         _______ _______ _______ _____ _____    ______ ____
ROOT
ATOM      1  C   UNL     1      22.886  16.175  26.502  0.00  0.00    +0.000 C 
ATOM      2  C   UNL     1      22.918  17.272  26.015  0.00  0.00    +0.000 C 
ENDROOT
BRANCH   1   5
ATOM      3  O   UNL     1      22.276  13.806  26.304  0.00  0.00    +0.000 OA
ATOM      4  O   UNL     1      21.784  11.540  26.332  0.00  0.00    +0.000 OA
ATOM      5  C   UNL     1      22.845  14.882  27.074  0.00  0.00    +0.000 A 
ATOM      6  C   UNL     1      23.319  14.523  28.364  0.00  0.00    +0.000 A 
ATOM      7  C   UNL     1      23.313  13.174  29.046  0.00  0.00    +0.000 A 
ATOM      8  C   UNL     1      22.801  12.477  28.217  0.00  0.00    +0.000 A 
ATOM      9  C   UNL     1      22.240  12.532  26.881  0.00  0.00    +0.000 A 
ENDBRANCH   1   5
BRANCH   2  10
ATOM     10  C   UNL     1      22.957  18.575  25.437  0.00  0.00    +0.000 A 
ATOM     11  C   UNL     1      23.426  19.654  26.184  0.00  0.00    +0.000 A 
ATOM     12  C   UNL     1      22.524  18.768  24.127  0.00  0.00    +0.000 A 
ATOM     13  C   UNL     1      23.462  20.927  25.619  0.00  0.00    +0.000 A 
ATOM     14  C   UNL     1      22.561  20.041  23.563  0.00  0.00    +0.000 A 
ATOM     15  C   UNL     1      23.031  21.119  24.309  0.00  0.00    +0.000 A 
ENDBRANCH   2  10
TORSDOF 2
ENDMDL
MODEL 9
REMARK VINA RESULT:      -4.7      3.540      7.166
REMARK  Name = 6440856_Goniothalamin.pdbqt.pdb
REMARK  2 active torsions:
REMARK  status: ('A' for Active; 'I' for Inactive)
REMARK    1  A    between atoms: C_1  and  C_5
REMARK    2  A    between atoms: C_2  and  C_10
REMARK                            x       y       z     vdW  Elec       q    Type
REMARK                         _______ _______ _______ _____ _____    ______ ____
ROOT
ATOM      1  C   UNL     1       8.513  20.228  30.166  0.00  0.00    +0.000 C 
ATOM      2  C   UNL     1       8.054  21.337  30.123  0.00  0.00    +0.000 C 
ENDROOT
BRANCH   1   5
ATOM      3  O   UNL     1      10.214  18.629  29.412  0.00  0.00    +0.000 OA
ATOM      4  O   UNL     1      11.719  16.960  28.838  0.00  0.00    +0.000 OA
ATOM      5  C   UNL     1       9.057  18.924  30.217  0.00  0.00    +0.000 A 
ATOM      6  C   UNL     1       8.568  17.843  31.000  0.00  0.00    +0.000 A 
ATOM      7  C   UNL     1       9.088  16.429  31.111  0.00  0.00    +0.000 A 
ATOM      8  C   UNL     1      10.024  16.446  30.364  0.00  0.00    +0.000 A 
ATOM      9  C   UNL     1      10.743  17.334  29.471  0.00  0.00    +0.000 A 
ENDBRANCH   1   5
BRANCH   2  10
ATOM     10  C   UNL     1       7.509  22.654  30.073  0.00  0.00    +0.000 A 
ATOM     11  C   UNL     1       8.217  23.676  29.443  0.00  0.00    +0.000 A 
ATOM     12  C   UNL     1       6.270  22.917  30.653  0.00  0.00    +0.000 A 
ATOM     13  C   UNL     1       7.685  24.962  29.395  0.00  0.00    +0.000 A 
ATOM     14  C   UNL     1       5.738  24.203  30.603  0.00  0.00    +0.000 A 
ATOM     15  C   UNL     1       6.446  25.225  29.974  0.00  0.00    +0.000 A 
ENDBRANCH   2  10
TORSDOF 2
ENDMDL
