MODEL 1
REMARK VINA RESULT:      -3.6      0.000      0.000
REMARK  Name = 649_Dihydrouracil.pdb
REMARK  0 active torsions:
REMARK  status: ('A' for Active; 'I' for Inactive)
REMARK                            x       y       z     vdW  Elec       q    Type
REMARK                         _______ _______ _______ _____ _____    ______ ____
ROOT
ATOM      1  O   UNL     1      14.750  16.772  31.164  0.00  0.00    +0.000 OA
ATOM      2  O   UNL     1      10.942  16.394  28.585  0.00  0.00    +0.000 OA
ATOM      3  N   UNL     1      11.741  18.503  28.999  0.00  0.00    +0.000 N 
ATOM      4  N   UNL     1      12.838  16.604  29.868  0.00  0.00    +0.000 N 
ATOM      5  C   UNL     1      12.650  19.303  29.571  0.00  0.00    +0.000 A 
ATOM      6  C   UNL     1      13.771  18.725  30.372  0.00  0.00    +0.000 A 
ATOM      7  C   UNL     1      13.856  17.299  30.520  0.00  0.00    +0.000 A 
ATOM      8  C   UNL     1      11.778  17.119  29.112  0.00  0.00    +0.000 A 
ATOM      9  H   UNL     1      10.986  18.905  28.458  0.00  0.00    +0.000 HD
ATOM     10  H   UNL     1      12.868  15.600  29.952  0.00  0.00    +0.000 HD
ENDROOT
TORSDOF 0
ENDMDL
MODEL 2
REMARK VINA RESULT:      -3.3     15.052     15.875
REMARK  Name = 649_Dihydrouracil.pdb
REMARK  0 active torsions:
REMARK  status: ('A' for Active; 'I' for Inactive)
REMARK                            x       y       z     vdW  Elec       q    Type
REMARK                         _______ _______ _______ _____ _____    ______ ____
ROOT
ATOM      1  O   UNL     1      26.401   7.396  23.152  0.00  0.00    +0.000 OA
ATOM      2  O   UNL     1      23.352  10.856  23.312  0.00  0.00    +0.000 OA
ATOM      3  N   UNL     1      23.490   9.476  25.138  0.00  0.00    +0.000 N 
ATOM      4  N   UNL     1      24.864   9.127  23.253  0.00  0.00    +0.000 N 
ATOM      5  C   UNL     1      24.043   8.420  25.749  0.00  0.00    +0.000 A 
ATOM      6  C   UNL     1      25.111   7.625  25.071  0.00  0.00    +0.000 A 
ATOM      7  C   UNL     1      25.533   8.010  23.754  0.00  0.00    +0.000 A 
ATOM      8  C   UNL     1      23.863   9.889  23.865  0.00  0.00    +0.000 A 
ATOM      9  H   UNL     1      22.768  10.008  25.606  0.00  0.00    +0.000 HD
ATOM     10  H   UNL     1      25.137   9.423  22.329  0.00  0.00    +0.000 HD
ENDROOT
TORSDOF 0
ENDMDL
MODEL 3
REMARK VINA RESULT:      -3.2      9.425      9.821
REMARK  Name = 649_Dihydrouracil.pdb
REMARK  0 active torsions:
REMARK  status: ('A' for Active; 'I' for Inactive)
REMARK                            x       y       z     vdW  Elec       q    Type
REMARK                         _______ _______ _______ _____ _____    ______ ____
ROOT
ATOM      1  O   UNL     1       8.550  25.007  26.782  0.00  0.00    +0.000 OA
ATOM      2  O   UNL     1       4.726  24.466  29.306  0.00  0.00    +0.000 OA
ATOM      3  N   UNL     1       6.463  25.630  30.246  0.00  0.00    +0.000 N 
ATOM      4  N   UNL     1       6.640  24.747  28.066  0.00  0.00    +0.000 N 
ATOM      5  C   UNL     1       7.704  26.126  30.157  0.00  0.00    +0.000 A 
ATOM      6  C   UNL     1       8.512  25.930  28.915  0.00  0.00    +0.000 A 
ATOM      7  C   UNL     1       7.936  25.199  27.820  0.00  0.00    +0.000 A 
ATOM      8  C   UNL     1       5.861  24.917  29.216  0.00  0.00    +0.000 A 
ATOM      9  H   UNL     1       5.925  25.769  31.092  0.00  0.00    +0.000 HD
ATOM     10  H   UNL     1       6.207  24.230  27.317  0.00  0.00    +0.000 HD
ENDROOT
TORSDOF 0
ENDMDL
MODEL 4
REMARK VINA RESULT:      -3.1     11.422     12.008
REMARK  Name = 649_Dihydrouracil.pdb
REMARK  0 active torsions:
REMARK  status: ('A' for Active; 'I' for Inactive)
REMARK                            x       y       z     vdW  Elec       q    Type
REMARK                         _______ _______ _______ _____ _____    ______ ____
ROOT
ATOM      1  O   UNL     1      23.287  18.361  25.385  0.00  0.00    +0.000 OA
ATOM      2  O   UNL     1      23.656  22.427  23.236  0.00  0.00    +0.000 OA
ATOM      3  N   UNL     1      22.881  22.432  25.394  0.00  0.00    +0.000 N 
ATOM      4  N   UNL     1      23.465  20.413  24.325  0.00  0.00    +0.000 N 
ATOM      5  C   UNL     1      22.548  21.761  26.504  0.00  0.00    +0.000 A 
ATOM      6  C   UNL     1      22.677  20.273  26.557  0.00  0.00    +0.000 A 
ATOM      7  C   UNL     1      23.162  19.576  25.399  0.00  0.00    +0.000 A 
ATOM      8  C   UNL     1      23.355  21.806  24.248  0.00  0.00    +0.000 A 
ATOM      9  H   UNL     1      22.790  23.440  25.369  0.00  0.00    +0.000 HD
ATOM     10  H   UNL     1      23.808  19.954  23.495  0.00  0.00    +0.000 HD
ENDROOT
TORSDOF 0
ENDMDL
MODEL 5
REMARK VINA RESULT:      -3.1      8.901      9.679
REMARK  Name = 649_Dihydrouracil.pdb
REMARK  0 active torsions:
REMARK  status: ('A' for Active; 'I' for Inactive)
REMARK                            x       y       z     vdW  Elec       q    Type
REMARK                         _______ _______ _______ _____ _____    ______ ____
ROOT
ATOM      1  O   UNL     1      10.849  25.599  29.894  0.00  0.00    +0.000 OA
ATOM      2  O   UNL     1       8.101  25.716  26.189  0.00  0.00    +0.000 OA
ATOM      3  N   UNL     1       9.496  27.503  26.535  0.00  0.00    +0.000 N 
ATOM      4  N   UNL     1       9.478  25.678  28.028  0.00  0.00    +0.000 N 
ATOM      5  C   UNL     1      10.438  28.108  27.269  0.00  0.00    +0.000 A 
ATOM      6  C   UNL     1      10.969  27.458  28.506  0.00  0.00    +0.000 A 
ATOM      7  C   UNL     1      10.452  26.176  28.893  0.00  0.00    +0.000 A 
ATOM      8  C   UNL     1       8.963  26.263  26.866  0.00  0.00    +0.000 A 
ATOM      9  H   UNL     1       9.144  27.952  25.699  0.00  0.00    +0.000 HD
ATOM     10  H   UNL     1       9.094  24.778  28.273  0.00  0.00    +0.000 HD
ENDROOT
TORSDOF 0
ENDMDL
MODEL 6
REMARK VINA RESULT:      -3.0     16.279     16.621
REMARK  Name = 649_Dihydrouracil.pdb
REMARK  0 active torsions:
REMARK  status: ('A' for Active; 'I' for Inactive)
REMARK                            x       y       z     vdW  Elec       q    Type
REMARK                         _______ _______ _______ _____ _____    ______ ____
ROOT
ATOM      1  O   UNL     1      15.823  33.043  24.295  0.00  0.00    +0.000 OA
ATOM      2  O   UNL     1      13.312  32.558  20.454  0.00  0.00    +0.000 OA
ATOM      3  N   UNL     1      12.243  32.288  22.464  0.00  0.00    +0.000 N 
ATOM      4  N   UNL     1      14.544  32.795  22.379  0.00  0.00    +0.000 N 
ATOM      5  C   UNL     1      12.284  32.274  23.803  0.00  0.00    +0.000 A 
ATOM      6  C   UNL     1      13.565  32.543  24.524  0.00  0.00    +0.000 A 
ATOM      7  C   UNL     1      14.749  32.817  23.759  0.00  0.00    +0.000 A 
ATOM      8  C   UNL     1      13.359  32.547  21.678  0.00  0.00    +0.000 A 
ATOM      9  H   UNL     1      11.370  32.105  21.986  0.00  0.00    +0.000 HD
ATOM     10  H   UNL     1      15.357  32.983  21.813  0.00  0.00    +0.000 HD
ENDROOT
TORSDOF 0
ENDMDL
MODEL 7
REMARK VINA RESULT:      -3.0     12.914     13.530
REMARK  Name = 649_Dihydrouracil.pdb
REMARK  0 active torsions:
REMARK  status: ('A' for Active; 'I' for Inactive)
REMARK                            x       y       z     vdW  Elec       q    Type
REMARK                         _______ _______ _______ _____ _____    ______ ____
ROOT
ATOM      1  O   UNL     1       0.340  14.427  23.335  0.00  0.00    +0.000 OA
ATOM      2  O   UNL     1       0.497  19.028  23.658  0.00  0.00    +0.000 OA
ATOM      3  N   UNL     1       0.968  17.813  25.545  0.00  0.00    +0.000 N 
ATOM      4  N   UNL     1       0.425  16.735  23.519  0.00  0.00    +0.000 N 
ATOM      5  C   UNL     1       1.107  16.626  26.151  0.00  0.00    +0.000 A 
ATOM      6  C   UNL     1       0.890  15.358  25.392  0.00  0.00    +0.000 A 
ATOM      7  C   UNL     1       0.531  15.431  24.004  0.00  0.00    +0.000 A 
ATOM      8  C   UNL     1       0.622  17.938  24.205  0.00  0.00    +0.000 A 
ATOM      9  H   UNL     1       1.118  18.666  26.068  0.00  0.00    +0.000 HD
ATOM     10  H   UNL     1       0.173  16.822  22.546  0.00  0.00    +0.000 HD
ENDROOT
TORSDOF 0
ENDMDL
MODEL 8
REMARK VINA RESULT:      -3.0     26.047     26.757
REMARK  Name = 649_Dihydrouracil.pdb
REMARK  0 active torsions:
REMARK  status: ('A' for Active; 'I' for Inactive)
REMARK                            x       y       z     vdW  Elec       q    Type
REMARK                         _______ _______ _______ _____ _____    ______ ____
ROOT
ATOM      1  O   UNL     1      19.613  30.921   4.814  0.00  0.00    +0.000 OA
ATOM      2  O   UNL     1      17.562  30.806   8.946  0.00  0.00    +0.000 OA
ATOM      3  N   UNL     1      19.120  29.187   8.487  0.00  0.00    +0.000 N 
ATOM      4  N   UNL     1      18.595  30.845   6.894  0.00  0.00    +0.000 N 
ATOM      5  C   UNL     1      20.004  28.640   7.642  0.00  0.00    +0.000 A 
ATOM      6  C   UNL     1      20.225  29.232   6.288  0.00  0.00    +0.000 A 
ATOM      7  C   UNL     1      19.474  30.395   5.908  0.00  0.00    +0.000 A 
ATOM      8  C   UNL     1      18.369  30.312   8.167  0.00  0.00    +0.000 A 
ATOM      9  H   UNL     1      18.978  28.778   9.402  0.00  0.00    +0.000 HD
ATOM     10  H   UNL     1      18.052  31.661   6.658  0.00  0.00    +0.000 HD
ENDROOT
TORSDOF 0
ENDMDL
MODEL 9
REMARK VINA RESULT:      -3.0     14.293     14.864
REMARK  Name = 649_Dihydrouracil.pdb
REMARK  0 active torsions:
REMARK  status: ('A' for Active; 'I' for Inactive)
REMARK                            x       y       z     vdW  Elec       q    Type
REMARK                         _______ _______ _______ _____ _____    ______ ____
ROOT
ATOM      1  O   UNL     1      -0.402  14.755  23.353  0.00  0.00    +0.000 OA
ATOM      2  O   UNL     1      -0.409  18.448  20.586  0.00  0.00    +0.000 OA
ATOM      3  N   UNL     1       0.125  18.774  22.792  0.00  0.00    +0.000 N 
ATOM      4  N   UNL     1      -0.399  16.622  21.981  0.00  0.00    +0.000 N 
ATOM      5  C   UNL     1       0.312  18.276  24.022  0.00  0.00    +0.000 A 
ATOM      6  C   UNL     1       0.134  16.816  24.284  0.00  0.00    +0.000 A 
ATOM      7  C   UNL     1      -0.241  15.956  23.197  0.00  0.00    +0.000 A 
ATOM      8  C   UNL     1      -0.239  17.985  21.708  0.00  0.00    +0.000 A 
ATOM      9  H   UNL     1       0.248  19.764  22.626  0.00  0.00    +0.000 HD
ATOM     10  H   UNL     1      -0.663  16.046  21.198  0.00  0.00    +0.000 HD
ENDROOT
TORSDOF 0
ENDMDL
