MODEL 1
REMARK VINA RESULT:      -8.0      0.000      0.000
REMARK  Name = 6509753_ManzamineA.pdbqt.pdb
REMARK  2 active torsions:
REMARK  status: ('A' for Active; 'I' for Inactive)
REMARK    1  A    between atoms: C_7  and  O_42
REMARK    2  A    between atoms: C_11  and  C_30
REMARK                            x       y       z     vdW  Elec       q    Type
REMARK                         _______ _______ _______ _____ _____    ______ ____
ROOT
ATOM      1  N   UNL     1      24.037  12.268  24.690  0.00  0.00    +0.000 N 
ATOM      2  N   UNL     1      28.475  11.122  26.647  0.00  0.00    +0.000 N 
ATOM      3  C   UNL     1      26.377  11.300  24.689  0.00  0.00    +0.000 C 
ATOM      4  C   UNL     1      24.845  11.031  24.845  0.00  0.00    +0.000 C 
ATOM      5  C   UNL     1      27.212  10.423  23.667  0.00  0.00    +0.000 C 
ATOM      6  C   UNL     1      26.254  12.676  24.214  0.00  0.00    +0.000 C 
ATOM      7  C   UNL     1      24.261   9.727  24.295  0.00  0.00    +0.000 C 
ATOM      8  C   UNL     1      27.139  11.283  25.986  0.00  0.00    +0.000 C 
ATOM      9  C   UNL     1      25.021  13.331  24.388  0.00  0.00    +0.000 C 
ATOM     10  C   UNL     1      28.582  10.233  24.073  0.00  0.00    +0.000 C 
ATOM     11  C   UNL     1      26.513   9.342  22.986  0.00  0.00    +0.000 C 
ATOM     12  C   UNL     1      25.300   9.216  23.425  0.00  0.00    +0.000 C 
ATOM     13  C   UNL     1      29.130  10.526  25.473  0.00  0.00    +0.000 C 
ATOM     14  C   UNL     1      23.232  12.553  25.880  0.00  0.00    +0.000 C 
ATOM     15  C   UNL     1      23.893   8.832  25.388  0.00  0.00    +0.000 C 
ATOM     16  C   UNL     1      24.851  14.665  24.866  0.00  0.00    +0.000 C 
ATOM     17  C   UNL     1      28.345  10.095  27.667  0.00  0.00    +0.000 C 
ATOM     18  C   UNL     1      22.573  13.384  26.997  0.00  0.00    +0.000 C 
ATOM     19  C   UNL     1      23.685   7.898  26.582  0.00  0.00    +0.000 C 
ATOM     20  C   UNL     1      24.436  15.546  25.570  0.00  0.00    +0.000 C 
ATOM     21  C   UNL     1      22.625  14.848  27.428  0.00  0.00    +0.000 C 
ATOM     22  C   UNL     1      28.024   9.009  28.699  0.00  0.00    +0.000 C 
ATOM     23  C   UNL     1      23.504  15.884  26.735  0.00  0.00    +0.000 C 
ATOM     24  C   UNL     1      23.952   7.125  27.871  0.00  0.00    +0.000 C 
ATOM     25  C   UNL     1      27.247   7.927  29.442  0.00  0.00    +0.000 C 
ATOM     26  C   UNL     1      25.983   7.088  29.533  0.00  0.00    +0.000 C 
ATOM     27  C   UNL     1      24.675   6.870  28.791  0.00  0.00    +0.000 C 
ENDROOT
BRANCH  11  30
ATOM     28  N   UNL     1      27.875   8.810  21.050  0.00  0.00    +0.000 NA
ATOM     29  N   UNL     1      26.146   6.310  23.162  0.00  0.00    +0.000 N 
ATOM     30  C   UNL     1      27.102   8.375  22.071  0.00  0.00    +0.000 A 
ATOM     31  C   UNL     1      26.869   7.010  22.222  0.00  0.00    +0.000 A 
ATOM     32  C   UNL     1      27.413   6.072  21.343  0.00  0.00    +0.000 A 
ATOM     33  C   UNL     1      28.398   7.896  20.204  0.00  0.00    +0.000 A 
ATOM     34  C   UNL     1      28.213   6.523  20.282  0.00  0.00    +0.000 A 
ATOM     35  C   UNL     1      26.987   4.779  21.778  0.00  0.00    +0.000 A 
ATOM     36  C   UNL     1      26.200   4.960  22.913  0.00  0.00    +0.000 A 
ATOM     37  C   UNL     1      27.205   3.471  21.307  0.00  0.00    +0.000 A 
ATOM     38  C   UNL     1      25.614   3.898  23.610  0.00  0.00    +0.000 A 
ATOM     39  C   UNL     1      26.628   2.397  21.990  0.00  0.00    +0.000 A 
ATOM     40  C   UNL     1      25.848   2.612  23.121  0.00  0.00    +0.000 A 
ATOM     41  H   UNL     1      25.651   6.728  23.937  0.00  0.00    +0.000 HD
ENDBRANCH  11  30
BRANCH   7  42
ATOM     42  O   UNL     1      23.114   9.982  23.498  0.00  0.00    +0.000 OA
ATOM     43  H   UNL     1      22.809  10.872  23.742  0.00  0.00    +0.000 HD
ENDBRANCH   7  42
TORSDOF 2
ENDMDL
MODEL 2
REMARK VINA RESULT:      -8.0      3.985      9.840
REMARK  Name = 6509753_ManzamineA.pdbqt.pdb
REMARK  2 active torsions:
REMARK  status: ('A' for Active; 'I' for Inactive)
REMARK    1  A    between atoms: C_7  and  O_42
REMARK    2  A    between atoms: C_11  and  C_30
REMARK                            x       y       z     vdW  Elec       q    Type
REMARK                         _______ _______ _______ _____ _____    ______ ____
ROOT
ATOM      1  N   UNL     1      24.042  10.403  27.994  0.00  0.00    +0.000 N 
ATOM      2  N   UNL     1      27.937  13.507  27.792  0.00  0.00    +0.000 N 
ATOM      3  C   UNL     1      25.201  12.654  28.033  0.00  0.00    +0.000 C 
ATOM      4  C   UNL     1      24.410  11.599  27.193  0.00  0.00    +0.000 C 
ATOM      5  C   UNL     1      24.701  14.158  28.048  0.00  0.00    +0.000 C 
ATOM      6  C   UNL     1      24.989  12.023  29.332  0.00  0.00    +0.000 C 
ATOM      7  C   UNL     1      23.410  12.087  26.142  0.00  0.00    +0.000 C 
ATOM      8  C   UNL     1      26.675  12.700  27.732  0.00  0.00    +0.000 C 
ATOM      9  C   UNL     1      24.543  10.688  29.358  0.00  0.00    +0.000 C 
ATOM     10  C   UNL     1      25.772  15.109  28.207  0.00  0.00    +0.000 C 
ATOM     11  C   UNL     1      23.568  14.495  27.198  0.00  0.00    +0.000 C 
ATOM     12  C   UNL     1      23.211  13.485  26.468  0.00  0.00    +0.000 C 
ATOM     13  C   UNL     1      27.260  14.789  28.041  0.00  0.00    +0.000 C 
ATOM     14  C   UNL     1      24.593   9.170  27.426  0.00  0.00    +0.000 C 
ATOM     15  C   UNL     1      23.924  11.847  24.797  0.00  0.00    +0.000 C 
ATOM     16  C   UNL     1      25.063   9.655  30.193  0.00  0.00    +0.000 C 
ATOM     17  C   UNL     1      28.505  13.543  26.455  0.00  0.00    +0.000 C 
ATOM     18  C   UNL     1      25.262   7.783  27.395  0.00  0.00    +0.000 C 
ATOM     19  C   UNL     1      24.605  11.705  23.434  0.00  0.00    +0.000 C 
ATOM     20  C   UNL     1      25.547   8.590  30.469  0.00  0.00    +0.000 C 
ATOM     21  C   UNL     1      25.893   6.864  28.440  0.00  0.00    +0.000 C 
ATOM     22  C   UNL     1      28.965  13.465  24.996  0.00  0.00    +0.000 C 
ATOM     23  C   UNL     1      26.015   7.245  29.911  0.00  0.00    +0.000 C 
ATOM     24  C   UNL     1      25.659  11.791  22.334  0.00  0.00    +0.000 C 
ATOM     25  C   UNL     1      28.933  13.164  23.501  0.00  0.00    +0.000 C 
ATOM     26  C   UNL     1      28.143  12.638  22.314  0.00  0.00    +0.000 C 
ATOM     27  C   UNL     1      26.765  12.088  21.985  0.00  0.00    +0.000 C 
ENDROOT
BRANCH  11  30
ATOM     28  N   UNL     1      23.237  16.485  25.852  0.00  0.00    +0.000 NA
ATOM     29  N   UNL     1      21.817  15.965  29.229  0.00  0.00    +0.000 N 
ATOM     30  C   UNL     1      22.997  15.820  27.004  0.00  0.00    +0.000 A 
ATOM     31  C   UNL     1      22.219  16.417  27.993  0.00  0.00    +0.000 A 
ATOM     32  C   UNL     1      21.677  17.693  27.828  0.00  0.00    +0.000 A 
ATOM     33  C   UNL     1      22.709  17.720  25.700  0.00  0.00    +0.000 A 
ATOM     34  C   UNL     1      21.929  18.386  26.634  0.00  0.00    +0.000 A 
ATOM     35  C   UNL     1      20.940  18.003  29.012  0.00  0.00    +0.000 A 
ATOM     36  C   UNL     1      21.045  16.907  29.867  0.00  0.00    +0.000 A 
ATOM     37  C   UNL     1      20.191  19.118  29.431  0.00  0.00    +0.000 A 
ATOM     38  C   UNL     1      20.438  16.862  31.125  0.00  0.00    +0.000 A 
ATOM     39  C   UNL     1      19.576  19.092  30.686  0.00  0.00    +0.000 A 
ATOM     40  C   UNL     1      19.700  17.982  31.514  0.00  0.00    +0.000 A 
ATOM     41  H   UNL     1      22.047  15.060  29.615  0.00  0.00    +0.000 HD
ENDBRANCH  11  30
BRANCH   7  42
ATOM     42  O   UNL     1      22.161  11.426  26.286  0.00  0.00    +0.000 OA
ATOM     43  H   UNL     1      22.178  10.682  25.660  0.00  0.00    +0.000 HD
ENDBRANCH   7  42
TORSDOF 2
ENDMDL
MODEL 3
REMARK VINA RESULT:      -7.9      2.449      4.458
REMARK  Name = 6509753_ManzamineA.pdbqt.pdb
REMARK  2 active torsions:
REMARK  status: ('A' for Active; 'I' for Inactive)
REMARK    1  A    between atoms: C_7  and  O_42
REMARK    2  A    between atoms: C_11  and  C_30
REMARK                            x       y       z     vdW  Elec       q    Type
REMARK                         _______ _______ _______ _____ _____    ______ ____
ROOT
ATOM      1  N   UNL     1      24.090  13.719  25.180  0.00  0.00    +0.000 N 
ATOM      2  N   UNL     1      28.469  12.354  27.131  0.00  0.00    +0.000 N 
ATOM      3  C   UNL     1      26.463  12.837  25.127  0.00  0.00    +0.000 C 
ATOM      4  C   UNL     1      24.937  12.499  25.145  0.00  0.00    +0.000 C 
ATOM      5  C   UNL     1      27.381  12.193  24.008  0.00  0.00    +0.000 C 
ATOM      6  C   UNL     1      26.310  14.273  24.911  0.00  0.00    +0.000 C 
ATOM      7  C   UNL     1      24.432  11.305  24.330  0.00  0.00    +0.000 C 
ATOM      8  C   UNL     1      27.161  12.598  26.439  0.00  0.00    +0.000 C 
ATOM      9  C   UNL     1      25.046  14.848  25.136  0.00  0.00    +0.000 C 
ATOM     10  C   UNL     1      28.736  11.970  24.446  0.00  0.00    +0.000 C 
ATOM     11  C   UNL     1      26.759  11.240  23.099  0.00  0.00    +0.000 C 
ATOM     12  C   UNL     1      25.532  10.997  23.439  0.00  0.00    +0.000 C 
ATOM     13  C   UNL     1      29.203  12.009  25.904  0.00  0.00    +0.000 C 
ATOM     14  C   UNL     1      23.217  13.750  26.356  0.00  0.00    +0.000 C 
ATOM     15  C   UNL     1      24.046  10.210  25.215  0.00  0.00    +0.000 C 
ATOM     16  C   UNL     1      24.800  16.062  25.845  0.00  0.00    +0.000 C 
ATOM     17  C   UNL     1      28.328  11.149  27.933  0.00  0.00    +0.000 C 
ATOM     18  C   UNL     1      22.473  14.336  27.570  0.00  0.00    +0.000 C 
ATOM     19  C   UNL     1      23.816   9.062  26.200  0.00  0.00    +0.000 C 
ATOM     20  C   UNL     1      24.317  16.782  26.677  0.00  0.00    +0.000 C 
ATOM     21  C   UNL     1      22.446  15.694  28.269  0.00  0.00    +0.000 C 
ATOM     22  C   UNL     1      28.000   9.880  28.724  0.00  0.00    +0.000 C 
ATOM     23  C   UNL     1      23.317  16.867  27.831  0.00  0.00    +0.000 C 
ATOM     24  C   UNL     1      24.050   8.068  27.335  0.00  0.00    +0.000 C 
ATOM     25  C   UNL     1      27.231   8.655  29.209  0.00  0.00    +0.000 C 
ATOM     26  C   UNL     1      25.997   7.778  29.071  0.00  0.00    +0.000 C 
ATOM     27  C   UNL     1      24.737   7.666  28.230  0.00  0.00    +0.000 C 
ENDROOT
BRANCH  11  30
ATOM     28  N   UNL     1      27.489   9.133  22.145  0.00  0.00    +0.000 NA
ATOM     29  N   UNL     1      28.093  12.453  20.628  0.00  0.00    +0.000 N 
ATOM     30  C   UNL     1      27.429  10.480  22.053  0.00  0.00    +0.000 A 
ATOM     31  C   UNL     1      28.020  11.121  20.967  0.00  0.00    +0.000 A 
ATOM     32  C   UNL     1      28.679  10.408  19.964  0.00  0.00    +0.000 A 
ATOM     33  C   UNL     1      28.128   8.449  21.170  0.00  0.00    +0.000 A 
ATOM     34  C   UNL     1      28.745   9.009  20.060  0.00  0.00    +0.000 A 
ATOM     35  C   UNL     1      29.162  11.355  19.010  0.00  0.00    +0.000 A 
ATOM     36  C   UNL     1      28.782  12.621  19.451  0.00  0.00    +0.000 A 
ATOM     37  C   UNL     1      29.887  11.247  17.809  0.00  0.00    +0.000 A 
ATOM     38  C   UNL     1      29.086  13.794  18.752  0.00  0.00    +0.000 A 
ATOM     39  C   UNL     1      30.202  12.407  17.097  0.00  0.00    +0.000 A 
ATOM     40  C   UNL     1      29.806  13.655  17.564  0.00  0.00    +0.000 A 
ATOM     41  H   UNL     1      27.688  13.208  21.165  0.00  0.00    +0.000 HD
ENDBRANCH  11  30
BRANCH   7  42
ATOM     42  O   UNL     1      23.316  11.672  23.532  0.00  0.00    +0.000 OA
ATOM     43  H   UNL     1      22.535  11.579  24.104  0.00  0.00    +0.000 HD
ENDBRANCH   7  42
TORSDOF 2
ENDMDL
MODEL 4
REMARK VINA RESULT:      -7.9     26.411     29.711
REMARK  Name = 6509753_ManzamineA.pdbqt.pdb
REMARK  2 active torsions:
REMARK  status: ('A' for Active; 'I' for Inactive)
REMARK    1  A    between atoms: C_7  and  O_42
REMARK    2  A    between atoms: C_11  and  C_30
REMARK                            x       y       z     vdW  Elec       q    Type
REMARK                         _______ _______ _______ _____ _____    ______ ____
ROOT
ATOM      1  N   UNL     1      13.598  32.687  22.151  0.00  0.00    +0.000 N 
ATOM      2  N   UNL     1      12.348  37.483  21.623  0.00  0.00    +0.000 N 
ATOM      3  C   UNL     1      12.775  34.731  20.904  0.00  0.00    +0.000 C 
ATOM      4  C   UNL     1      13.980  33.792  21.235  0.00  0.00    +0.000 C 
ATOM      5  C   UNL     1      12.434  35.042  19.388  0.00  0.00    +0.000 C 
ATOM      6  C   UNL     1      11.743  33.893  21.508  0.00  0.00    +0.000 C 
ATOM      7  C   UNL     1      15.004  33.486  20.139  0.00  0.00    +0.000 C 
ATOM      8  C   UNL     1      12.819  36.059  21.611  0.00  0.00    +0.000 C 
ATOM      9  C   UNL     1      12.147  32.868  22.383  0.00  0.00    +0.000 C 
ATOM     10  C   UNL     1      11.861  36.349  19.193  0.00  0.00    +0.000 C 
ATOM     11  C   UNL     1      13.329  34.497  18.377  0.00  0.00    +0.000 C 
ATOM     12  C   UNL     1      14.350  33.910  18.918  0.00  0.00    +0.000 C 
ATOM     13  C   UNL     1      11.872  37.475  20.232  0.00  0.00    +0.000 C 
ATOM     14  C   UNL     1      14.383  32.701  23.388  0.00  0.00    +0.000 C 
ATOM     15  C   UNL     1      16.267  34.164  20.416  0.00  0.00    +0.000 C 
ATOM     16  C   UNL     1      11.550  32.570  23.644  0.00  0.00    +0.000 C 
ATOM     17  C   UNL     1      13.521  38.338  21.700  0.00  0.00    +0.000 C 
ATOM     18  C   UNL     1      14.681  32.592  24.895  0.00  0.00    +0.000 C 
ATOM     19  C   UNL     1      17.495  35.033  20.697  0.00  0.00    +0.000 C 
ATOM     20  C   UNL     1      11.498  32.379  24.829  0.00  0.00    +0.000 C 
ATOM     21  C   UNL     1      13.837  32.384  26.151  0.00  0.00    +0.000 C 
ATOM     22  C   UNL     1      14.856  39.081  21.796  0.00  0.00    +0.000 C 
ATOM     23  C   UNL     1      12.317  32.267  26.116  0.00  0.00    +0.000 C 
ATOM     24  C   UNL     1      18.352  36.252  21.027  0.00  0.00    +0.000 C 
ATOM     25  C   UNL     1      16.364  39.318  21.809  0.00  0.00    +0.000 C 
ATOM     26  C   UNL     1      17.756  38.731  21.648  0.00  0.00    +0.000 C 
ATOM     27  C   UNL     1      18.432  37.410  21.320  0.00  0.00    +0.000 C 
ENDROOT
BRANCH  11  30
ATOM     28  N   UNL     1      12.268  34.115  16.229  0.00  0.00    +0.000 NA
ATOM     29  N   UNL     1      15.232  36.266  16.761  0.00  0.00    +0.000 N 
ATOM     30  C   UNL     1      13.246  34.720  16.940  0.00  0.00    +0.000 A 
ATOM     31  C   UNL     1      14.167  35.535  16.286  0.00  0.00    +0.000 A 
ATOM     32  C   UNL     1      14.110  35.745  14.907  0.00  0.00    +0.000 A 
ATOM     33  C   UNL     1      12.219  34.323  14.895  0.00  0.00    +0.000 A 
ATOM     34  C   UNL     1      13.097  35.115  14.167  0.00  0.00    +0.000 A 
ATOM     35  C   UNL     1      15.184  36.622  14.561  0.00  0.00    +0.000 A 
ATOM     36  C   UNL     1      15.865  36.929  15.737  0.00  0.00    +0.000 A 
ATOM     37  C   UNL     1      15.634  37.184  13.352  0.00  0.00    +0.000 A 
ATOM     38  C   UNL     1      16.979  37.774  15.773  0.00  0.00    +0.000 A 
ATOM     39  C   UNL     1      16.746  38.030  13.367  0.00  0.00    +0.000 A 
ATOM     40  C   UNL     1      17.402  38.317  14.559  0.00  0.00    +0.000 A 
ATOM     41  H   UNL     1      15.508  36.318  17.732  0.00  0.00    +0.000 HD
ENDBRANCH  11  30
BRANCH   7  42
ATOM     42  O   UNL     1      15.240  32.089  20.042  0.00  0.00    +0.000 OA
ATOM     43  H   UNL     1      14.917  31.704  20.874  0.00  0.00    +0.000 HD
ENDBRANCH   7  42
TORSDOF 2
ENDMDL
MODEL 5
REMARK VINA RESULT:      -7.8      3.593      5.418
REMARK  Name = 6509753_ManzamineA.pdbqt.pdb
REMARK  2 active torsions:
REMARK  status: ('A' for Active; 'I' for Inactive)
REMARK    1  A    between atoms: C_7  and  O_42
REMARK    2  A    between atoms: C_11  and  C_30
REMARK                            x       y       z     vdW  Elec       q    Type
REMARK                         _______ _______ _______ _____ _____    ______ ____
ROOT
ATOM      1  N   UNL     1      23.124  15.832  25.981  0.00  0.00    +0.000 N 
ATOM      2  N   UNL     1      27.886  15.454  27.405  0.00  0.00    +0.000 N 
ATOM      3  C   UNL     1      25.522  15.036  25.820  0.00  0.00    +0.000 C 
ATOM      4  C   UNL     1      24.061  14.718  26.277  0.00  0.00    +0.000 C 
ATOM      5  C   UNL     1      26.285  13.994  24.902  0.00  0.00    +0.000 C 
ATOM      6  C   UNL     1      25.201  16.249  25.075  0.00  0.00    +0.000 C 
ATOM      7  C   UNL     1      23.534  13.288  26.136  0.00  0.00    +0.000 C 
ATOM      8  C   UNL     1      26.459  15.373  26.949  0.00  0.00    +0.000 C 
ATOM      9  C   UNL     1      23.948  16.851  25.293  0.00  0.00    +0.000 C 
ATOM     10  C   UNL     1      27.710  13.989  25.113  0.00  0.00    +0.000 C 
ATOM     11  C   UNL     1      25.604  12.742  24.602  0.00  0.00    +0.000 C 
ATOM     12  C   UNL     1      24.484  12.650  25.247  0.00  0.00    +0.000 C 
ATOM     13  C   UNL     1      28.421  14.638  26.305  0.00  0.00    +0.000 C 
ATOM     14  C   UNL     1      22.473  16.341  27.190  0.00  0.00    +0.000 C 
ATOM     15  C   UNL     1      23.413  12.657  27.447  0.00  0.00    +0.000 C 
ATOM     16  C   UNL     1      23.719  18.247  25.481  0.00  0.00    +0.000 C 
ATOM     17  C   UNL     1      28.001  14.692  28.637  0.00  0.00    +0.000 C 
ATOM     18  C   UNL     1      21.903  17.371  28.183  0.00  0.00    +0.000 C 
ATOM     19  C   UNL     1      23.468  12.021  28.837  0.00  0.00    +0.000 C 
ATOM     20  C   UNL     1      23.326  19.243  26.026  0.00  0.00    +0.000 C 
ATOM     21  C   UNL     1      21.874  18.896  28.260  0.00  0.00    +0.000 C 
ATOM     22  C   UNL     1      27.937  13.864  29.924  0.00  0.00    +0.000 C 
ATOM     23  C   UNL     1      22.541  19.790  27.220  0.00  0.00    +0.000 C 
ATOM     24  C   UNL     1      23.990  11.593  30.207  0.00  0.00    +0.000 C 
ATOM     25  C   UNL     1      27.382  12.943  31.007  0.00  0.00    +0.000 C 
ATOM     26  C   UNL     1      26.231  12.075  31.485  0.00  0.00    +0.000 C 
ATOM     27  C   UNL     1      24.858  11.608  31.031  0.00  0.00    +0.000 C 
ENDROOT
BRANCH  11  30
ATOM     28  N   UNL     1      25.956  10.362  24.293  0.00  0.00    +0.000 NA
ATOM     29  N   UNL     1      27.194  12.990  22.001  0.00  0.00    +0.000 N 
ATOM     30  C   UNL     1      26.146  11.623  23.845  0.00  0.00    +0.000 A 
ATOM     31  C   UNL     1      26.870  11.834  22.673  0.00  0.00    +0.000 A 
ATOM     32  C   UNL     1      27.410  10.772  21.944  0.00  0.00    +0.000 A 
ATOM     33  C   UNL     1      26.481   9.340  23.582  0.00  0.00    +0.000 A 
ATOM     34  C   UNL     1      27.215   9.463  22.411  0.00  0.00    +0.000 A 
ATOM     35  C   UNL     1      28.081  11.327  20.811  0.00  0.00    +0.000 A 
ATOM     36  C   UNL     1      27.929  12.710  20.873  0.00  0.00    +0.000 A 
ATOM     37  C   UNL     1      28.801  10.773  19.736  0.00  0.00    +0.000 A 
ATOM     38  C   UNL     1      28.460  13.578  19.914  0.00  0.00    +0.000 A 
ATOM     39  C   UNL     1      29.340  11.624  18.768  0.00  0.00    +0.000 A 
ATOM     40  C   UNL     1      29.169  13.000  18.859  0.00  0.00    +0.000 A 
ATOM     41  H   UNL     1      26.922  13.920  22.288  0.00  0.00    +0.000 HD
ENDBRANCH  11  30
BRANCH   7  42
ATOM     42  O   UNL     1      22.266  13.276  25.497  0.00  0.00    +0.000 OA
ATOM     43  H   UNL     1      22.412  13.635  24.605  0.00  0.00    +0.000 HD
ENDBRANCH   7  42
TORSDOF 2
ENDMDL
MODEL 6
REMARK VINA RESULT:      -7.7     11.644     14.510
REMARK  Name = 6509753_ManzamineA.pdbqt.pdb
REMARK  2 active torsions:
REMARK  status: ('A' for Active; 'I' for Inactive)
REMARK    1  A    between atoms: C_7  and  O_42
REMARK    2  A    between atoms: C_11  and  C_30
REMARK                            x       y       z     vdW  Elec       q    Type
REMARK                         _______ _______ _______ _____ _____    ______ ____
ROOT
ATOM      1  N   UNL     1      28.710  22.643  15.902  0.00  0.00    +0.000 N 
ATOM      2  N   UNL     1      33.568  21.863  16.700  0.00  0.00    +0.000 N 
ATOM      3  C   UNL     1      30.772  21.260  16.397  0.00  0.00    +0.000 C 
ATOM      4  C   UNL     1      29.525  22.009  16.970  0.00  0.00    +0.000 C 
ATOM      5  C   UNL     1      31.021  19.751  16.812  0.00  0.00    +0.000 C 
ATOM      6  C   UNL     1      30.391  21.356  14.991  0.00  0.00    +0.000 C 
ATOM      7  C   UNL     1      28.786  21.409  18.169  0.00  0.00    +0.000 C 
ATOM      8  C   UNL     1      32.076  21.981  16.615  0.00  0.00    +0.000 C 
ATOM      9  C   UNL     1      29.386  22.275  14.637  0.00  0.00    +0.000 C 
ATOM     10  C   UNL     1      32.418  19.397  16.851  0.00  0.00    +0.000 C 
ATOM     11  C   UNL     1      30.110  19.166  17.785  0.00  0.00    +0.000 C 
ATOM     12  C   UNL     1      29.275  20.048  18.239  0.00  0.00    +0.000 C 
ATOM     13  C   UNL     1      33.576  20.399  16.840  0.00  0.00    +0.000 C 
ATOM     14  C   UNL     1      28.589  24.091  16.088  0.00  0.00    +0.000 C 
ATOM     15  C   UNL     1      29.031  22.203  19.369  0.00  0.00    +0.000 C 
ATOM     16  C   UNL     1      29.434  23.172  13.528  0.00  0.00    +0.000 C 
ATOM     17  C   UNL     1      33.988  22.445  17.964  0.00  0.00    +0.000 C 
ATOM     18  C   UNL     1      28.543  25.583  15.710  0.00  0.00    +0.000 C 
ATOM     19  C   UNL     1      29.467  22.995  20.604  0.00  0.00    +0.000 C 
ATOM     20  C   UNL     1      29.395  24.225  12.951  0.00  0.00    +0.000 C 
ATOM     21  C   UNL     1      28.757  26.380  14.424  0.00  0.00    +0.000 C 
ATOM     22  C   UNL     1      34.251  23.106  19.320  0.00  0.00    +0.000 C 
ATOM     23  C   UNL     1      29.149  25.728  13.103  0.00  0.00    +0.000 C 
ATOM     24  C   UNL     1      30.358  23.697  21.625  0.00  0.00    +0.000 C 
ATOM     25  C   UNL     1      33.973  23.739  20.680  0.00  0.00    +0.000 C 
ATOM     26  C   UNL     1      32.944  24.130  21.727  0.00  0.00    +0.000 C 
ATOM     27  C   UNL     1      31.447  24.047  21.976  0.00  0.00    +0.000 C 
ENDROOT
BRANCH  11  30
ATOM     28  N   UNL     1      30.732  17.668  19.589  0.00  0.00    +0.000 NA
ATOM     29  N   UNL     1      29.169  16.601  16.409  0.00  0.00    +0.000 N 
ATOM     30  C   UNL     1      30.198  17.830  18.357  0.00  0.00    +0.000 A 
ATOM     31  C   UNL     1      29.754  16.715  17.650  0.00  0.00    +0.000 A 
ATOM     32  C   UNL     1      29.846  15.427  18.178  0.00  0.00    +0.000 A 
ATOM     33  C   UNL     1      30.817  16.418  20.094  0.00  0.00    +0.000 A 
ATOM     34  C   UNL     1      30.403  15.257  19.455  0.00  0.00    +0.000 A 
ATOM     35  C   UNL     1      29.305  14.525  17.210  0.00  0.00    +0.000 A 
ATOM     36  C   UNL     1      28.892  15.286  16.119  0.00  0.00    +0.000 A 
ATOM     37  C   UNL     1      29.128  13.130  17.168  0.00  0.00    +0.000 A 
ATOM     38  C   UNL     1      28.306  14.727  14.979  0.00  0.00    +0.000 A 
ATOM     39  C   UNL     1      28.546  12.552  16.037  0.00  0.00    +0.000 A 
ATOM     40  C   UNL     1      28.143  13.340  14.965  0.00  0.00    +0.000 A 
ATOM     41  H   UNL     1      28.961  17.376  15.795  0.00  0.00    +0.000 HD
ENDBRANCH  11  30
BRANCH   7  42
ATOM     42  O   UNL     1      27.388  21.356  17.926  0.00  0.00    +0.000 OA
ATOM     43  H   UNL     1      26.960  21.623  18.757  0.00  0.00    +0.000 HD
ENDBRANCH   7  42
TORSDOF 2
ENDMDL
MODEL 7
REMARK VINA RESULT:      -7.7      7.400     12.436
REMARK  Name = 6509753_ManzamineA.pdbqt.pdb
REMARK  2 active torsions:
REMARK  status: ('A' for Active; 'I' for Inactive)
REMARK    1  A    between atoms: C_7  and  O_42
REMARK    2  A    between atoms: C_11  and  C_30
REMARK                            x       y       z     vdW  Elec       q    Type
REMARK                         _______ _______ _______ _____ _____    ______ ____
ROOT
ATOM      1  N   UNL     1      30.132  10.728  13.672  0.00  0.00    +0.000 N 
ATOM      2  N   UNL     1      33.311  13.490  16.340  0.00  0.00    +0.000 N 
ATOM      3  C   UNL     1      31.229  11.583  15.788  0.00  0.00    +0.000 C 
ATOM      4  C   UNL     1      30.021  11.687  14.801  0.00  0.00    +0.000 C 
ATOM      5  C   UNL     1      30.945  11.398  17.336  0.00  0.00    +0.000 C 
ATOM      6  C   UNL     1      31.804  10.369  15.216  0.00  0.00    +0.000 C 
ATOM      7  C   UNL     1      28.625  11.964  15.365  0.00  0.00    +0.000 C 
ATOM      8  C   UNL     1      32.218  12.711  15.669  0.00  0.00    +0.000 C 
ATOM      9  C   UNL     1      31.375   9.969  13.937  0.00  0.00    +0.000 C 
ATOM     10  C   UNL     1      31.955  11.995  18.173  0.00  0.00    +0.000 C 
ATOM     11  C   UNL     1      29.555  11.423  17.769  0.00  0.00    +0.000 C 
ATOM     12  C   UNL     1      28.760  11.703  16.783  0.00  0.00    +0.000 C 
ATOM     13  C   UNL     1      33.013  12.993  17.692  0.00  0.00    +0.000 C 
ATOM     14  C   UNL     1      30.140  11.406  12.373  0.00  0.00    +0.000 C 
ATOM     15  C   UNL     1      28.202  13.322  15.037  0.00  0.00    +0.000 C 
ATOM     16  C   UNL     1      32.222   9.529  12.877  0.00  0.00    +0.000 C 
ATOM     17  C   UNL     1      32.954  14.897  16.281  0.00  0.00    +0.000 C 
ATOM     18  C   UNL     1      30.557  11.715  10.923  0.00  0.00    +0.000 C 
ATOM     19  C   UNL     1      27.906  14.803  14.788  0.00  0.00    +0.000 C 
ATOM     20  C   UNL     1      32.700   9.510  11.775  0.00  0.00    +0.000 C 
ATOM     21  C   UNL     1      31.627  11.186   9.970  0.00  0.00    +0.000 C 
ATOM     22  C   UNL     1      32.429  16.326  16.117  0.00  0.00    +0.000 C 
ATOM     23  C   UNL     1      32.640  10.121  10.373  0.00  0.00    +0.000 C 
ATOM     24  C   UNL     1      28.082  16.318  14.734  0.00  0.00    +0.000 C 
ATOM     25  C   UNL     1      31.478  17.471  15.783  0.00  0.00    +0.000 C 
ATOM     26  C   UNL     1      30.096  17.896  15.313  0.00  0.00    +0.000 C 
ATOM     27  C   UNL     1      28.768  17.284  14.903  0.00  0.00    +0.000 C 
ENDROOT
BRANCH  11  30
ATOM     28  N   UNL     1      28.792  10.140  19.680  0.00  0.00    +0.000 NA
ATOM     29  N   UNL     1      29.111  13.825  19.610  0.00  0.00    +0.000 N 
ATOM     30  C   UNL     1      29.075  11.347  19.141  0.00  0.00    +0.000 A 
ATOM     31  C   UNL     1      28.892  12.498  19.903  0.00  0.00    +0.000 A 
ATOM     32  C   UNL     1      28.419  12.443  21.215  0.00  0.00    +0.000 A 
ATOM     33  C   UNL     1      28.335  10.093  20.950  0.00  0.00    +0.000 A 
ATOM     34  C   UNL     1      28.121  11.190  21.774  0.00  0.00    +0.000 A 
ATOM     35  C   UNL     1      28.350  13.783  21.704  0.00  0.00    +0.000 A 
ATOM     36  C   UNL     1      28.788  14.623  20.682  0.00  0.00    +0.000 A 
ATOM     37  C   UNL     1      27.956  14.356  22.928  0.00  0.00    +0.000 A 
ATOM     38  C   UNL     1      28.856  16.013  20.815  0.00  0.00    +0.000 A 
ATOM     39  C   UNL     1      28.016  15.743  23.080  0.00  0.00    +0.000 A 
ATOM     40  C   UNL     1      28.460  16.553  22.040  0.00  0.00    +0.000 A 
ATOM     41  H   UNL     1      29.471  14.171  18.731  0.00  0.00    +0.000 HD
ENDBRANCH  11  30
BRANCH   7  42
ATOM     42  O   UNL     1      27.677  11.044  14.843  0.00  0.00    +0.000 OA
ATOM     43  H   UNL     1      27.051  10.865  15.565  0.00  0.00    +0.000 HD
ENDBRANCH   7  42
TORSDOF 2
ENDMDL
MODEL 8
REMARK VINA RESULT:      -7.6     13.553     18.152
REMARK  Name = 6509753_ManzamineA.pdbqt.pdb
REMARK  2 active torsions:
REMARK  status: ('A' for Active; 'I' for Inactive)
REMARK    1  A    between atoms: C_7  and  O_42
REMARK    2  A    between atoms: C_11  and  C_30
REMARK                            x       y       z     vdW  Elec       q    Type
REMARK                         _______ _______ _______ _____ _____    ______ ____
ROOT
ATOM      1  N   UNL     1      19.692  -1.621  11.536  0.00  0.00    +0.000 N 
ATOM      2  N   UNL     1      21.570  -5.193  14.460  0.00  0.00    +0.000 N 
ATOM      3  C   UNL     1      19.593  -3.532  13.193  0.00  0.00    +0.000 C 
ATOM      4  C   UNL     1      19.587  -1.985  12.972  0.00  0.00    +0.000 C 
ATOM      5  C   UNL     1      18.440  -4.191  14.058  0.00  0.00    +0.000 C 
ATOM      6  C   UNL     1      19.462  -3.900  11.786  0.00  0.00    +0.000 C 
ATOM      7  C   UNL     1      18.702  -1.111  13.865  0.00  0.00    +0.000 C 
ATOM      8  C   UNL     1      20.890  -4.071  13.733  0.00  0.00    +0.000 C 
ATOM      9  C   UNL     1      19.717  -2.913  10.815  0.00  0.00    +0.000 C 
ATOM     10  C   UNL     1      18.868  -5.370  14.768  0.00  0.00    +0.000 C 
ATOM     11  C   UNL     1      17.475  -3.295  14.679  0.00  0.00    +0.000 C 
ATOM     12  C   UNL     1      17.797  -2.053  14.492  0.00  0.00    +0.000 C 
ATOM     13  C   UNL     1      20.327  -5.787  14.974  0.00  0.00    +0.000 C 
ATOM     14  C   UNL     1      20.865  -0.788  11.262  0.00  0.00    +0.000 C 
ATOM     15  C   UNL     1      19.520  -0.344  14.800  0.00  0.00    +0.000 C 
ATOM     16  C   UNL     1      20.496  -3.094   9.633  0.00  0.00    +0.000 C 
ATOM     17  C   UNL     1      22.299  -4.620  15.579  0.00  0.00    +0.000 C 
ATOM     18  C   UNL     1      22.110  -0.269  10.518  0.00  0.00    +0.000 C 
ATOM     19  C   UNL     1      20.435   0.297  15.845  0.00  0.00    +0.000 C 
ATOM     20  C   UNL     1      21.367  -2.876   8.835  0.00  0.00    +0.000 C 
ATOM     21  C   UNL     1      22.888  -0.706   9.278  0.00  0.00    +0.000 C 
ATOM     22  C   UNL     1      23.014  -3.848  16.692  0.00  0.00    +0.000 C 
ATOM     23  C   UNL     1      22.522  -1.943   8.466  0.00  0.00    +0.000 C 
ATOM     24  C   UNL     1      21.510   0.454  16.918  0.00  0.00    +0.000 C 
ATOM     25  C   UNL     1      23.423  -2.685  17.592  0.00  0.00    +0.000 C 
ATOM     26  C   UNL     1      23.230  -1.226  17.969  0.00  0.00    +0.000 C 
ATOM     27  C   UNL     1      22.381  -0.027  17.584  0.00  0.00    +0.000 C 
ENDROOT
BRANCH  11  30
ATOM     28  N   UNL     1      15.218  -4.104  15.042  0.00  0.00    +0.000 NA
ATOM     29  N   UNL     1      17.597  -3.220  17.735  0.00  0.00    +0.000 N 
ATOM     30  C   UNL     1      16.388  -3.678  15.568  0.00  0.00    +0.000 A 
ATOM     31  C   UNL     1      16.531  -3.600  16.952  0.00  0.00    +0.000 A 
ATOM     32  C   UNL     1      15.492  -3.949  17.817  0.00  0.00    +0.000 A 
ATOM     33  C   UNL     1      14.218  -4.441  15.886  0.00  0.00    +0.000 A 
ATOM     34  C   UNL     1      14.276  -4.388  17.272  0.00  0.00    +0.000 A 
ATOM     35  C   UNL     1      15.963  -3.759  19.152  0.00  0.00    +0.000 A 
ATOM     36  C   UNL     1      17.278  -3.304  19.069  0.00  0.00    +0.000 A 
ATOM     37  C   UNL     1      15.388  -3.936  20.424  0.00  0.00    +0.000 A 
ATOM     38  C   UNL     1      18.056  -3.016  20.195  0.00  0.00    +0.000 A 
ATOM     39  C   UNL     1      16.149  -3.652  21.561  0.00  0.00    +0.000 A 
ATOM     40  C   UNL     1      17.459  -3.201  21.443  0.00  0.00    +0.000 A 
ATOM     41  H   UNL     1      18.497  -2.928  17.381  0.00  0.00    +0.000 HD
ENDBRANCH  11  30
BRANCH   7  42
ATOM     42  O   UNL     1      17.925  -0.215  13.086  0.00  0.00    +0.000 OA
ATOM     43  H   UNL     1      16.998  -0.479  13.216  0.00  0.00    +0.000 HD
ENDBRANCH   7  42
TORSDOF 2
ENDMDL
MODEL 9
REMARK VINA RESULT:      -7.6      5.013     11.505
REMARK  Name = 6509753_ManzamineA.pdbqt.pdb
REMARK  2 active torsions:
REMARK  status: ('A' for Active; 'I' for Inactive)
REMARK    1  A    between atoms: C_7  and  O_42
REMARK    2  A    between atoms: C_11  and  C_30
REMARK                            x       y       z     vdW  Elec       q    Type
REMARK                         _______ _______ _______ _____ _____    ______ ____
ROOT
ATOM      1  N   UNL     1      24.746  13.469  25.985  0.00  0.00    +0.000 N 
ATOM      2  N   UNL     1      22.334  15.740  29.710  0.00  0.00    +0.000 N 
ATOM      3  C   UNL     1      23.328  15.276  27.051  0.00  0.00    +0.000 C 
ATOM      4  C   UNL     1      24.752  14.828  26.585  0.00  0.00    +0.000 C 
ATOM      5  C   UNL     1      22.763  16.673  26.562  0.00  0.00    +0.000 C 
ATOM      6  C   UNL     1      22.598  14.174  26.431  0.00  0.00    +0.000 C 
ATOM      7  C   UNL     1      25.696  15.870  25.979  0.00  0.00    +0.000 C 
ATOM      8  C   UNL     1      23.128  15.235  28.542  0.00  0.00    +0.000 C 
ATOM      9  C   UNL     1      23.328  13.047  26.012  0.00  0.00    +0.000 C 
ATOM     10  C   UNL     1      21.875  17.290  27.515  0.00  0.00    +0.000 C 
ATOM     11  C   UNL     1      23.648  17.512  25.766  0.00  0.00    +0.000 C 
ATOM     12  C   UNL     1      24.832  16.992  25.674  0.00  0.00    +0.000 C 
ATOM     13  C   UNL     1      21.727  16.863  28.978  0.00  0.00    +0.000 C 
ATOM     14  C   UNL     1      25.633  12.548  26.700  0.00  0.00    +0.000 C 
ATOM     15  C   UNL     1      26.781  16.176  26.906  0.00  0.00    +0.000 C 
ATOM     16  C   UNL     1      22.958  11.687  26.239  0.00  0.00    +0.000 C 
ATOM     17  C   UNL     1      23.269  16.280  30.682  0.00  0.00    +0.000 C 
ATOM     18  C   UNL     1      26.109  11.237  27.354  0.00  0.00    +0.000 C 
ATOM     19  C   UNL     1      27.788  16.554  27.995  0.00  0.00    +0.000 C 
ATOM     20  C   UNL     1      23.081  10.552  26.614  0.00  0.00    +0.000 C 
ATOM     21  C   UNL     1      25.479   9.871  27.616  0.00  0.00    +0.000 C 
ATOM     22  C   UNL     1      24.390  16.789  31.593  0.00  0.00    +0.000 C 
ATOM     23  C   UNL     1      24.037   9.540  27.248  0.00  0.00    +0.000 C 
ATOM     24  C   UNL     1      28.359  16.963  29.350  0.00  0.00    +0.000 C 
ATOM     25  C   UNL     1      25.789  17.187  32.054  0.00  0.00    +0.000 C 
ATOM     26  C   UNL     1      27.256  17.361  31.697  0.00  0.00    +0.000 C 
ATOM     27  C   UNL     1      28.189  17.219  30.507  0.00  0.00    +0.000 C 
ENDROOT
BRANCH  11  30
ATOM     28  N   UNL     1      22.855  19.016  24.036  0.00  0.00    +0.000 NA
ATOM     29  N   UNL     1      24.103  20.089  27.350  0.00  0.00    +0.000 N 
ATOM     30  C   UNL     1      23.361  18.854  25.279  0.00  0.00    +0.000 A 
ATOM     31  C   UNL     1      23.612  19.973  26.070  0.00  0.00    +0.000 A 
ATOM     32  C   UNL     1      23.357  21.267  25.612  0.00  0.00    +0.000 A 
ATOM     33  C   UNL     1      22.610  20.271  23.600  0.00  0.00    +0.000 A 
ATOM     34  C   UNL     1      22.834  21.436  24.320  0.00  0.00    +0.000 A 
ATOM     35  C   UNL     1      23.719  22.172  26.656  0.00  0.00    +0.000 A 
ATOM     36  C   UNL     1      24.180  21.409  27.727  0.00  0.00    +0.000 A 
ATOM     37  C   UNL     1      23.691  23.573  26.786  0.00  0.00    +0.000 A 
ATOM     38  C   UNL     1      24.618  21.971  28.930  0.00  0.00    +0.000 A 
ATOM     39  C   UNL     1      24.125  24.154  27.980  0.00  0.00    +0.000 A 
ATOM     40  C   UNL     1      24.579  23.364  29.030  0.00  0.00    +0.000 A 
ATOM     41  H   UNL     1      24.363  19.311  27.941  0.00  0.00    +0.000 HD
ENDBRANCH  11  30
BRANCH   7  42
ATOM     42  O   UNL     1      26.248  15.403  24.757  0.00  0.00    +0.000 OA
ATOM     43  H   UNL     1      25.731  14.617  24.512  0.00  0.00    +0.000 HD
ENDBRANCH   7  42
TORSDOF 2
ENDMDL
