MODEL 1
REMARK VINA RESULT:      -4.2      0.000      0.000
REMARK  Name = 67499_Pyrazolo.pdbqt.pdb
REMARK  0 active torsions:
REMARK  status: ('A' for Active; 'I' for Inactive)
REMARK                            x       y       z     vdW  Elec       q    Type
REMARK                         _______ _______ _______ _____ _____    ______ ____
ROOT
ATOM      1  N   UNL     1      11.442  16.271  28.358  0.00  0.00    +0.000 N 
ATOM      2  N   UNL     1      10.661  17.311  28.722  0.00  0.00    +0.000 NA
ATOM      3  N   UNL     1      13.580  15.279  28.915  0.00  0.00    +0.000 NA
ATOM      4  N   UNL     1      14.709  16.506  30.672  0.00  0.00    +0.000 NA
ATOM      5  C   UNL     1      12.597  17.260  29.934  0.00  0.00    +0.000 A 
ATOM      6  C   UNL     1      12.613  16.197  29.055  0.00  0.00    +0.000 A 
ATOM      7  C   UNL     1      11.375  17.909  29.685  0.00  0.00    +0.000 A 
ATOM      8  C   UNL     1      13.697  17.403  30.767  0.00  0.00    +0.000 A 
ATOM      9  C   UNL     1      14.598  15.511  29.767  0.00  0.00    +0.000 A 
ATOM     10  H   UNL     1      11.123  15.645  27.628  0.00  0.00    +0.000 HD
ENDROOT
TORSDOF 0
ENDMDL
MODEL 2
REMARK VINA RESULT:      -3.9     15.796     16.776
REMARK  Name = 67499_Pyrazolo.pdbqt.pdb
REMARK  0 active torsions:
REMARK  status: ('A' for Active; 'I' for Inactive)
REMARK                            x       y       z     vdW  Elec       q    Type
REMARK                         _______ _______ _______ _____ _____    ______ ____
ROOT
ATOM      1  N   UNL     1      19.173   3.874  23.489  0.00  0.00    +0.000 N 
ATOM      2  N   UNL     1      19.431   3.442  22.236  0.00  0.00    +0.000 NA
ATOM      3  N   UNL     1      18.697   2.984  25.691  0.00  0.00    +0.000 NA
ATOM      4  N   UNL     1      18.663   0.562  25.693  0.00  0.00    +0.000 NA
ATOM      5  C   UNL     1      19.105   1.692  23.668  0.00  0.00    +0.000 A 
ATOM      6  C   UNL     1      18.971   2.864  24.384  0.00  0.00    +0.000 A 
ATOM      7  C   UNL     1      19.387   2.108  22.355  0.00  0.00    +0.000 A 
ATOM      8  C   UNL     1      18.941   0.505  24.368  0.00  0.00    +0.000 A 
ATOM      9  C   UNL     1      18.558   1.776  26.272  0.00  0.00    +0.000 A 
ATOM     10  H   UNL     1      19.148   4.870  23.674  0.00  0.00    +0.000 HD
ENDROOT
TORSDOF 0
ENDMDL
MODEL 3
REMARK VINA RESULT:      -3.6      1.184      3.117
REMARK  Name = 67499_Pyrazolo.pdbqt.pdb
REMARK  0 active torsions:
REMARK  status: ('A' for Active; 'I' for Inactive)
REMARK                            x       y       z     vdW  Elec       q    Type
REMARK                         _______ _______ _______ _____ _____    ______ ____
ROOT
ATOM      1  N   UNL     1      14.699  16.018  29.406  0.00  0.00    +0.000 N 
ATOM      2  N   UNL     1      15.591  16.607  30.230  0.00  0.00    +0.000 NA
ATOM      3  N   UNL     1      12.358  16.171  28.802  0.00  0.00    +0.000 NA
ATOM      4  N   UNL     1      11.222  17.915  30.040  0.00  0.00    +0.000 NA
ATOM      5  C   UNL     1      13.521  17.550  30.436  0.00  0.00    +0.000 A 
ATOM      6  C   UNL     1      13.444  16.547  29.492  0.00  0.00    +0.000 A 
ATOM      7  C   UNL     1      14.863  17.542  30.855  0.00  0.00    +0.000 A 
ATOM      8  C   UNL     1      12.354  18.250  30.707  0.00  0.00    +0.000 A 
ATOM      9  C   UNL     1      11.285  16.911  29.140  0.00  0.00    +0.000 A 
ATOM     10  H   UNL     1      15.003  15.259  28.807  0.00  0.00    +0.000 HD
ENDROOT
TORSDOF 0
ENDMDL
MODEL 4
REMARK VINA RESULT:      -3.5      2.661      2.948
REMARK  Name = 67499_Pyrazolo.pdbqt.pdb
REMARK  0 active torsions:
REMARK  status: ('A' for Active; 'I' for Inactive)
REMARK                            x       y       z     vdW  Elec       q    Type
REMARK                         _______ _______ _______ _____ _____    ______ ____
ROOT
ATOM      1  N   UNL     1      10.956  15.651  28.728  0.00  0.00    +0.000 N 
ATOM      2  N   UNL     1      11.004  16.977  28.477  0.00  0.00    +0.000 NA
ATOM      3  N   UNL     1      10.772  14.130  30.604  0.00  0.00    +0.000 NA
ATOM      4  N   UNL     1      10.628  15.314  32.711  0.00  0.00    +0.000 NA
ATOM      5  C   UNL     1      10.815  16.561  30.715  0.00  0.00    +0.000 A 
ATOM      6  C   UNL     1      10.843  15.351  30.054  0.00  0.00    +0.000 A 
ATOM      7  C   UNL     1      10.918  17.525  29.696  0.00  0.00    +0.000 A 
ATOM      8  C   UNL     1      10.703  16.521  32.098  0.00  0.00    +0.000 A 
ATOM      9  C   UNL     1      10.666  14.205  31.945  0.00  0.00    +0.000 A 
ATOM     10  H   UNL     1      11.004  14.999  27.954  0.00  0.00    +0.000 HD
ENDROOT
TORSDOF 0
ENDMDL
MODEL 5
REMARK VINA RESULT:      -3.5     10.645     11.834
REMARK  Name = 67499_Pyrazolo.pdbqt.pdb
REMARK  0 active torsions:
REMARK  status: ('A' for Active; 'I' for Inactive)
REMARK                            x       y       z     vdW  Elec       q    Type
REMARK                         _______ _______ _______ _____ _____    ______ ____
ROOT
ATOM      1  N   UNL     1      22.518  19.497  26.778  0.00  0.00    +0.000 N 
ATOM      2  N   UNL     1      21.842  18.432  26.293  0.00  0.00    +0.000 NA
ATOM      3  N   UNL     1      23.558  21.540  25.997  0.00  0.00    +0.000 NA
ATOM      4  N   UNL     1      23.345  21.797  23.598  0.00  0.00    +0.000 NA
ATOM      5  C   UNL     1      22.415  19.885  24.625  0.00  0.00    +0.000 A 
ATOM      6  C   UNL     1      22.883  20.395  25.818  0.00  0.00    +0.000 A 
ATOM      7  C   UNL     1      21.785  18.678  24.977  0.00  0.00    +0.000 A 
ATOM      8  C   UNL     1      22.666  20.629  23.481  0.00  0.00    +0.000 A 
ATOM      9  C   UNL     1      23.747  22.182  24.827  0.00  0.00    +0.000 A 
ATOM     10  H   UNL     1      22.700  19.555  27.773  0.00  0.00    +0.000 HD
ENDROOT
TORSDOF 0
ENDMDL
MODEL 6
REMARK VINA RESULT:      -3.5     21.718     22.081
REMARK  Name = 67499_Pyrazolo.pdbqt.pdb
REMARK  0 active torsions:
REMARK  status: ('A' for Active; 'I' for Inactive)
REMARK                            x       y       z     vdW  Elec       q    Type
REMARK                         _______ _______ _______ _____ _____    ______ ____
ROOT
ATOM      1  N   UNL     1       0.287  25.928  14.568  0.00  0.00    +0.000 N 
ATOM      2  N   UNL     1      -0.642  25.030  14.961  0.00  0.00    +0.000 NA
ATOM      3  N   UNL     1       0.911  28.235  14.961  0.00  0.00    +0.000 NA
ATOM      4  N   UNL     1      -0.566  29.307  16.553  0.00  0.00    +0.000 NA
ATOM      5  C   UNL     1      -0.950  27.048  15.986  0.00  0.00    +0.000 A 
ATOM      6  C   UNL     1       0.144  27.152  15.154  0.00  0.00    +0.000 A 
ATOM      7  C   UNL     1      -1.393  25.723  15.827  0.00  0.00    +0.000 A 
ATOM      8  C   UNL     1      -1.304  28.181  16.706  0.00  0.00    +0.000 A 
ATOM      9  C   UNL     1       0.483  29.274  15.704  0.00  0.00    +0.000 A 
ATOM     10  H   UNL     1       0.993  25.648  13.897  0.00  0.00    +0.000 HD
ENDROOT
TORSDOF 0
ENDMDL
MODEL 7
REMARK VINA RESULT:      -3.4     17.849     18.868
REMARK  Name = 67499_Pyrazolo.pdbqt.pdb
REMARK  0 active torsions:
REMARK  status: ('A' for Active; 'I' for Inactive)
REMARK                            x       y       z     vdW  Elec       q    Type
REMARK                         _______ _______ _______ _____ _____    ______ ____
ROOT
ATOM      1  N   UNL     1      11.751  33.368  22.125  0.00  0.00    +0.000 N 
ATOM      2  N   UNL     1      12.171  32.372  22.935  0.00  0.00    +0.000 NA
ATOM      3  N   UNL     1      12.337  34.412  20.020  0.00  0.00    +0.000 NA
ATOM      4  N   UNL     1      14.282  33.376  19.014  0.00  0.00    +0.000 NA
ATOM      5  C   UNL     1      13.493  32.550  21.080  0.00  0.00    +0.000 A 
ATOM      6  C   UNL     1      12.510  33.514  21.001  0.00  0.00    +0.000 A 
ATOM      7  C   UNL     1      13.236  31.879  22.288  0.00  0.00    +0.000 A 
ATOM      8  C   UNL     1      14.406  32.494  20.037  0.00  0.00    +0.000 A 
ATOM      9  C   UNL     1      13.273  34.271  19.061  0.00  0.00    +0.000 A 
ATOM     10  H   UNL     1      10.940  33.914  22.392  0.00  0.00    +0.000 HD
ENDROOT
TORSDOF 0
ENDMDL
MODEL 8
REMARK VINA RESULT:      -3.4      9.064     10.507
REMARK  Name = 67499_Pyrazolo.pdbqt.pdb
REMARK  0 active torsions:
REMARK  status: ('A' for Active; 'I' for Inactive)
REMARK                            x       y       z     vdW  Elec       q    Type
REMARK                         _______ _______ _______ _____ _____    ______ ____
ROOT
ATOM      1  N   UNL     1       8.584  25.369  27.664  0.00  0.00    +0.000 N 
ATOM      2  N   UNL     1       8.759  24.419  28.607  0.00  0.00    +0.000 NA
ATOM      3  N   UNL     1       9.595  27.438  26.912  0.00  0.00    +0.000 NA
ATOM      4  N   UNL     1      11.533  28.026  28.240  0.00  0.00    +0.000 NA
ATOM      5  C   UNL     1      10.354  26.048  28.761  0.00  0.00    +0.000 A 
ATOM      6  C   UNL     1       9.514  26.367  27.714  0.00  0.00    +0.000 A 
ATOM      7  C   UNL     1       9.842  24.842  29.273  0.00  0.00    +0.000 A 
ATOM      8  C   UNL     1      11.399  26.924  29.019  0.00  0.00    +0.000 A 
ATOM      9  C   UNL     1      10.640  28.219  27.247  0.00  0.00    +0.000 A 
ATOM     10  H   UNL     1       7.812  25.284  27.013  0.00  0.00    +0.000 HD
ENDROOT
TORSDOF 0
ENDMDL
MODEL 9
REMARK VINA RESULT:      -3.4     13.662     14.560
REMARK  Name = 67499_Pyrazolo.pdbqt.pdb
REMARK  0 active torsions:
REMARK  status: ('A' for Active; 'I' for Inactive)
REMARK                            x       y       z     vdW  Elec       q    Type
REMARK                         _______ _______ _______ _____ _____    ______ ____
ROOT
ATOM      1  N   UNL     1       0.078  19.254  22.289  0.00  0.00    +0.000 N 
ATOM      2  N   UNL     1      -0.095  18.613  21.112  0.00  0.00    +0.000 NA
ATOM      3  N   UNL     1       0.153  18.775  24.662  0.00  0.00    +0.000 NA
ATOM      4  N   UNL     1      -0.181  16.419  25.114  0.00  0.00    +0.000 NA
ATOM      5  C   UNL     1      -0.207  17.163  22.874  0.00  0.00    +0.000 A 
ATOM      6  C   UNL     1       0.019  18.428  23.374  0.00  0.00    +0.000 A 
ATOM      7  C   UNL     1      -0.268  17.337  21.480  0.00  0.00    +0.000 A 
ATOM      8  C   UNL     1      -0.309  16.130  23.796  0.00  0.00    +0.000 A 
ATOM      9  C   UNL     1       0.038  17.702  25.469  0.00  0.00    +0.000 A 
ATOM     10  H   UNL     1       0.232  20.255  22.289  0.00  0.00    +0.000 HD
ENDROOT
TORSDOF 0
ENDMDL
