MODEL 1
REMARK VINA RESULT:      -4.8      0.000      0.000
REMARK  Name = 71369791_5FluoroDione.pdbqt.pdb
REMARK  1 active torsions:
REMARK  status: ('A' for Active; 'I' for Inactive)
REMARK    1  A    between atoms: N_4  and  C_12
REMARK                            x       y       z     vdW  Elec       q    Type
REMARK                         _______ _______ _______ _____ _____    ______ ____
ROOT
ATOM      1  F   UNL     1      23.019  19.659  28.490  0.00  0.00    +0.000 F 
ATOM      2  O   UNL     1      22.424  20.225  23.106  0.00  0.00    +0.000 OA
ATOM      3  O   UNL     1      21.271  18.032  26.966  0.00  0.00    +0.000 OA
ATOM      4  N   UNL     1      23.257  21.126  25.126  0.00  0.00    +0.000 N 
ATOM      5  N   UNL     1      21.827  19.246  25.088  0.00  0.00    +0.000 N 
ATOM      6  C   UNL     1      23.231  20.951  26.462  0.00  0.00    +0.000 C 
ATOM      7  C   UNL     1      22.578  20.015  27.272  0.00  0.00    +0.000 C 
ATOM      8  C   UNL     1      22.511  20.227  24.330  0.00  0.00    +0.000 C 
ATOM      9  C   UNL     1      21.827  19.004  26.470  0.00  0.00    +0.000 C 
ATOM     10  H   UNL     1      21.322  18.569  24.534  0.00  0.00    +0.000 HD
ENDROOT
BRANCH   4  12
ATOM     11  O   UNL     1      24.065  22.427  23.242  0.00  0.00    +0.000 OA
ATOM     12  C   UNL     1      23.999  22.153  24.613  0.00  0.00    +0.000 C 
ATOM     13  C   UNL     1      24.809  23.099  25.295  0.00  0.00    +0.000 C 
ATOM     14  C   UNL     1      25.582  24.194  24.557  0.00  0.00    +0.000 C 
ATOM     15  C   UNL     1      24.892  23.467  23.403  0.00  0.00    +0.000 C 
ENDBRANCH   4  12
TORSDOF 1
ENDMDL
MODEL 2
REMARK VINA RESULT:      -4.7     25.994     26.517
REMARK  Name = 71369791_5FluoroDione.pdbqt.pdb
REMARK  1 active torsions:
REMARK  status: ('A' for Active; 'I' for Inactive)
REMARK    1  A    between atoms: N_4  and  C_12
REMARK                            x       y       z     vdW  Elec       q    Type
REMARK                         _______ _______ _______ _____ _____    ______ ____
ROOT
ATOM      1  F   UNL     1       0.112  25.430  14.124  0.00  0.00    +0.000 F 
ATOM      2  O   UNL     1      -1.087  30.435  15.903  0.00  0.00    +0.000 OA
ATOM      3  O   UNL     1      -1.865  25.920  16.094  0.00  0.00    +0.000 OA
ATOM      4  N   UNL     1       0.395  29.053  14.687  0.00  0.00    +0.000 N 
ATOM      5  N   UNL     1      -1.347  28.163  16.012  0.00  0.00    +0.000 N 
ATOM      6  C   UNL     1       0.665  27.762  14.413  0.00  0.00    +0.000 C 
ATOM      7  C   UNL     1       0.066  26.569  14.834  0.00  0.00    +0.000 C 
ATOM      8  C   UNL     1      -0.689  29.330  15.551  0.00  0.00    +0.000 C 
ATOM      9  C   UNL     1      -1.126  26.814  15.700  0.00  0.00    +0.000 C 
ATOM     10  H   UNL     1      -2.151  28.342  16.598  0.00  0.00    +0.000 HD
ENDROOT
BRANCH   4  12
ATOM     11  O   UNL     1       0.884  30.591  12.872  0.00  0.00    +0.000 OA
ATOM     12  C   UNL     1       1.173  30.021  14.118  0.00  0.00    +0.000 C 
ATOM     13  C   UNL     1       2.359  30.623  14.616  0.00  0.00    +0.000 C 
ATOM     14  C   UNL     1       3.115  31.703  13.839  0.00  0.00    +0.000 C 
ATOM     15  C   UNL     1       1.949  31.400  12.899  0.00  0.00    +0.000 C 
ENDBRANCH   4  12
TORSDOF 1
ENDMDL
MODEL 3
REMARK VINA RESULT:      -4.7     11.283     11.817
REMARK  Name = 71369791_5FluoroDione.pdbqt.pdb
REMARK  1 active torsions:
REMARK  status: ('A' for Active; 'I' for Inactive)
REMARK    1  A    between atoms: N_4  and  C_12
REMARK                            x       y       z     vdW  Elec       q    Type
REMARK                         _______ _______ _______ _____ _____    ______ ____
ROOT
ATOM      1  F   UNL     1      11.768  16.348  29.063  0.00  0.00    +0.000 F 
ATOM      2  O   UNL     1      14.918  19.780  31.885  0.00  0.00    +0.000 OA
ATOM      3  O   UNL     1      14.067  15.497  30.483  0.00  0.00    +0.000 OA
ATOM      4  N   UNL     1      13.185  19.508  30.300  0.00  0.00    +0.000 N 
ATOM      5  N   UNL     1      14.483  17.687  31.063  0.00  0.00    +0.000 N 
ATOM      6  C   UNL     1      12.555  18.576  29.560  0.00  0.00    +0.000 C 
ATOM      7  C   UNL     1      12.743  17.194  29.434  0.00  0.00    +0.000 C 
ATOM      8  C   UNL     1      14.241  19.081  31.137  0.00  0.00    +0.000 C 
ATOM      9  C   UNL     1      13.809  16.687  30.348  0.00  0.00    +0.000 C 
ATOM     10  H   UNL     1      15.207  17.356  31.686  0.00  0.00    +0.000 HD
ENDROOT
BRANCH   4  12
ATOM     11  O   UNL     1      13.460  21.769  29.459  0.00  0.00    +0.000 OA
ATOM     12  C   UNL     1      12.773  20.807  30.209  0.00  0.00    +0.000 C 
ATOM     13  C   UNL     1      11.646  21.432  30.805  0.00  0.00    +0.000 C 
ATOM     14  C   UNL     1      11.329  22.915  30.598  0.00  0.00    +0.000 C 
ATOM     15  C   UNL     1      12.602  22.748  29.769  0.00  0.00    +0.000 C 
ENDBRANCH   4  12
TORSDOF 1
ENDMDL
MODEL 4
REMARK VINA RESULT:      -4.6     18.900     19.883
REMARK  Name = 71369791_5FluoroDione.pdbqt.pdb
REMARK  1 active torsions:
REMARK  status: ('A' for Active; 'I' for Inactive)
REMARK    1  A    between atoms: N_4  and  C_12
REMARK                            x       y       z     vdW  Elec       q    Type
REMARK                         _______ _______ _______ _____ _____    ______ ____
ROOT
ATOM      1  F   UNL     1      17.221  33.906   9.698  0.00  0.00    +0.000 F 
ATOM      2  O   UNL     1      21.878  31.185  10.458  0.00  0.00    +0.000 OA
ATOM      3  O   UNL     1      18.996  34.478  11.831  0.00  0.00    +0.000 OA
ATOM      4  N   UNL     1      19.797  31.304   9.343  0.00  0.00    +0.000 N 
ATOM      5  N   UNL     1      20.343  32.742  11.137  0.00  0.00    +0.000 N 
ATOM      6  C   UNL     1      18.632  31.981   9.331  0.00  0.00    +0.000 C 
ATOM      7  C   UNL     1      18.150  33.032  10.121  0.00  0.00    +0.000 C 
ATOM      8  C   UNL     1      20.764  31.677  10.304  0.00  0.00    +0.000 C 
ATOM      9  C   UNL     1      19.164  33.501  11.111  0.00  0.00    +0.000 C 
ATOM     10  H   UNL     1      21.037  33.051  11.803  0.00  0.00    +0.000 HD
ENDROOT
BRANCH   4  12
ATOM     11  O   UNL     1      20.362  29.007   8.798  0.00  0.00    +0.000 OA
ATOM     12  C   UNL     1      19.984  30.304   8.432  0.00  0.00    +0.000 C 
ATOM     13  C   UNL     1      19.851  30.345   7.018  0.00  0.00    +0.000 C 
ATOM     14  C   UNL     1      20.104  29.119   6.139  0.00  0.00    +0.000 C 
ATOM     15  C   UNL     1      20.372  28.562   7.536  0.00  0.00    +0.000 C 
ENDBRANCH   4  12
TORSDOF 1
ENDMDL
MODEL 5
REMARK VINA RESULT:      -4.4     25.756     26.734
REMARK  Name = 71369791_5FluoroDione.pdbqt.pdb
REMARK  1 active torsions:
REMARK  status: ('A' for Active; 'I' for Inactive)
REMARK    1  A    between atoms: N_4  and  C_12
REMARK                            x       y       z     vdW  Elec       q    Type
REMARK                         _______ _______ _______ _____ _____    ______ ____
ROOT
ATOM      1  F   UNL     1       3.220  31.958  15.131  0.00  0.00    +0.000 F 
ATOM      2  O   UNL     1       0.297  29.011  11.606  0.00  0.00    +0.000 OA
ATOM      3  O   UNL     1       3.469  32.244  12.323  0.00  0.00    +0.000 OA
ATOM      4  N   UNL     1       1.010  29.318  13.838  0.00  0.00    +0.000 N 
ATOM      5  N   UNL     1       1.941  30.542  12.045  0.00  0.00    +0.000 N 
ATOM      6  C   UNL     1       1.866  30.032  14.595  0.00  0.00    +0.000 C 
ATOM      7  C   UNL     1       2.811  31.012  14.269  0.00  0.00    +0.000 C 
ATOM      8  C   UNL     1       1.008  29.555  12.444  0.00  0.00    +0.000 C 
ATOM      9  C   UNL     1       2.801  31.341  12.813  0.00  0.00    +0.000 C 
ATOM     10  H   UNL     1       1.925  30.756  11.058  0.00  0.00    +0.000 HD
ENDROOT
BRANCH   4  12
ATOM     11  O   UNL     1      -0.965  28.783  15.146  0.00  0.00    +0.000 OA
ATOM     12  C   UNL     1       0.193  28.411  14.451  0.00  0.00    +0.000 C 
ATOM     13  C   UNL     1       0.317  26.998  14.522  0.00  0.00    +0.000 C 
ATOM     14  C   UNL     1      -0.699  26.125  15.260  0.00  0.00    +0.000 C 
ATOM     15  C   UNL     1      -1.274  27.524  15.476  0.00  0.00    +0.000 C 
ENDBRANCH   4  12
TORSDOF 1
ENDMDL
MODEL 6
REMARK VINA RESULT:      -4.3      9.940     12.010
REMARK  Name = 71369791_5FluoroDione.pdbqt.pdb
REMARK  1 active torsions:
REMARK  status: ('A' for Active; 'I' for Inactive)
REMARK    1  A    between atoms: N_4  and  C_12
REMARK                            x       y       z     vdW  Elec       q    Type
REMARK                         _______ _______ _______ _____ _____    ______ ____
ROOT
ATOM      1  F   UNL     1      15.743  21.363  31.404  0.00  0.00    +0.000 F 
ATOM      2  O   UNL     1      14.364  16.143  30.687  0.00  0.00    +0.000 OA
ATOM      3  O   UNL     1      17.512  19.223  31.967  0.00  0.00    +0.000 OA
ATOM      4  N   UNL     1      13.654  18.394  30.814  0.00  0.00    +0.000 N 
ATOM      5  N   UNL     1      15.846  17.736  31.402  0.00  0.00    +0.000 N 
ATOM      6  C   UNL     1      14.083  19.631  31.133  0.00  0.00    +0.000 C 
ATOM      7  C   UNL     1      15.316  20.104  31.597  0.00  0.00    +0.000 C 
ATOM      8  C   UNL     1      14.571  17.326  30.940  0.00  0.00    +0.000 C 
ATOM      9  C   UNL     1      16.338  19.018  31.687  0.00  0.00    +0.000 C 
ATOM     10  H   UNL     1      16.528  16.993  31.459  0.00  0.00    +0.000 HD
ENDROOT
BRANCH   4  12
ATOM     11  O   UNL     1      12.007  18.304  29.031  0.00  0.00    +0.000 OA
ATOM     12  C   UNL     1      12.367  18.237  30.383  0.00  0.00    +0.000 C 
ATOM     13  C   UNL     1      11.193  17.993  31.143  0.00  0.00    +0.000 C 
ATOM     14  C   UNL     1       9.816  17.844  30.493  0.00  0.00    +0.000 C 
ATOM     15  C   UNL     1      10.710  18.087  29.278  0.00  0.00    +0.000 C 
ENDBRANCH   4  12
TORSDOF 1
ENDMDL
MODEL 7
REMARK VINA RESULT:      -4.3      2.066      4.642
REMARK  Name = 71369791_5FluoroDione.pdbqt.pdb
REMARK  1 active torsions:
REMARK  status: ('A' for Active; 'I' for Inactive)
REMARK    1  A    between atoms: N_4  and  C_12
REMARK                            x       y       z     vdW  Elec       q    Type
REMARK                         _______ _______ _______ _____ _____    ______ ____
ROOT
ATOM      1  F   UNL     1      23.996  23.542  27.912  0.00  0.00    +0.000 F 
ATOM      2  O   UNL     1      22.935  20.557  23.482  0.00  0.00    +0.000 OA
ATOM      3  O   UNL     1      23.870  24.658  25.310  0.00  0.00    +0.000 OA
ATOM      4  N   UNL     1      23.506  20.589  25.775  0.00  0.00    +0.000 N 
ATOM      5  N   UNL     1      23.502  22.549  24.457  0.00  0.00    +0.000 N 
ATOM      6  C   UNL     1      23.879  21.419  26.769  0.00  0.00    +0.000 C 
ATOM      7  C   UNL     1      24.114  22.798  26.799  0.00  0.00    +0.000 C 
ATOM      8  C   UNL     1      23.286  21.150  24.496  0.00  0.00    +0.000 C 
ATOM      9  C   UNL     1      23.834  23.445  25.484  0.00  0.00    +0.000 C 
ATOM     10  H   UNL     1      23.310  22.976  23.561  0.00  0.00    +0.000 HD
ENDROOT
BRANCH   4  12
ATOM     11  O   UNL     1      24.413  18.345  25.971  0.00  0.00    +0.000 OA
ATOM     12  C   UNL     1      23.355  19.260  26.052  0.00  0.00    +0.000 C 
ATOM     13  C   UNL     1      22.189  18.555  26.452  0.00  0.00    +0.000 C 
ATOM     14  C   UNL     1      22.198  17.049  26.722  0.00  0.00    +0.000 C 
ATOM     15  C   UNL     1      23.653  17.305  26.336  0.00  0.00    +0.000 C 
ENDBRANCH   4  12
TORSDOF 1
ENDMDL
MODEL 8
REMARK VINA RESULT:      -4.2     26.477     27.516
REMARK  Name = 71369791_5FluoroDione.pdbqt.pdb
REMARK  1 active torsions:
REMARK  status: ('A' for Active; 'I' for Inactive)
REMARK    1  A    between atoms: N_4  and  C_12
REMARK                            x       y       z     vdW  Elec       q    Type
REMARK                         _______ _______ _______ _____ _____    ______ ____
ROOT
ATOM      1  F   UNL     1      -2.398  30.823  14.310  0.00  0.00    +0.000 F 
ATOM      2  O   UNL     1       1.412  27.055  15.282  0.00  0.00    +0.000 OA
ATOM      3  O   UNL     1       0.374  31.406  14.272  0.00  0.00    +0.000 OA
ATOM      4  N   UNL     1      -0.876  27.643  15.358  0.00  0.00    +0.000 N 
ATOM      5  N   UNL     1       0.810  29.226  14.878  0.00  0.00    +0.000 N 
ATOM      6  C   UNL     1      -1.714  28.687  15.205  0.00  0.00    +0.000 C 
ATOM      7  C   UNL     1      -1.485  30.035  14.903  0.00  0.00    +0.000 C 
ATOM      8  C   UNL     1       0.508  27.879  15.191  0.00  0.00    +0.000 C 
ATOM      9  C   UNL     1      -0.041  30.319  14.655  0.00  0.00    +0.000 C 
ATOM     10  H   UNL     1       1.791  29.406  14.713  0.00  0.00    +0.000 HD
ENDROOT
BRANCH   4  12
ATOM     11  O   UNL     1      -1.742  26.043  16.967  0.00  0.00    +0.000 OA
ATOM     12  C   UNL     1      -1.403  26.420  15.662  0.00  0.00    +0.000 C 
ATOM     13  C   UNL     1      -1.701  25.334  14.796  0.00  0.00    +0.000 C 
ATOM     14  C   UNL     1      -2.292  24.020  15.308  0.00  0.00    +0.000 C 
ATOM     15  C   UNL     1      -2.164  24.828  16.598  0.00  0.00    +0.000 C 
ENDBRANCH   4  12
TORSDOF 1
ENDMDL
MODEL 9
REMARK VINA RESULT:      -4.2     14.048     15.372
REMARK  Name = 71369791_5FluoroDione.pdbqt.pdb
REMARK  1 active torsions:
REMARK  status: ('A' for Active; 'I' for Inactive)
REMARK    1  A    between atoms: N_4  and  C_12
REMARK                            x       y       z     vdW  Elec       q    Type
REMARK                         _______ _______ _______ _____ _____    ______ ____
ROOT
ATOM      1  F   UNL     1      12.673  12.415  31.848  0.00  0.00    +0.000 F 
ATOM      2  O   UNL     1       8.153  14.342  29.498  0.00  0.00    +0.000 OA
ATOM      3  O   UNL     1      10.372  10.818  31.420  0.00  0.00    +0.000 OA
ATOM      4  N   UNL     1      10.246  14.820  30.487  0.00  0.00    +0.000 N 
ATOM      5  N   UNL     1       9.290  12.661  30.557  0.00  0.00    +0.000 N 
ATOM      6  C   UNL     1      11.256  14.250  31.172  0.00  0.00    +0.000 C 
ATOM      7  C   UNL     1      11.456  12.942  31.631  0.00  0.00    +0.000 C 
ATOM      8  C   UNL     1       9.151  14.002  30.126  0.00  0.00    +0.000 C 
ATOM      9  C   UNL     1      10.352  12.026  31.219  0.00  0.00    +0.000 C 
ATOM     10  H   UNL     1       8.537  12.051  30.273  0.00  0.00    +0.000 HD
ENDROOT
BRANCH   4  12
ATOM     11  O   UNL     1       9.254  17.030  30.318  0.00  0.00    +0.000 OA
ATOM     12  C   UNL     1      10.332  16.148  30.176  0.00  0.00    +0.000 C 
ATOM     13  C   UNL     1      11.441  16.879  29.675  0.00  0.00    +0.000 C 
ATOM     14  C   UNL     1      11.363  18.377  29.376  0.00  0.00    +0.000 C 
ATOM     15  C   UNL     1       9.949  18.085  29.876  0.00  0.00    +0.000 C 
ENDBRANCH   4  12
TORSDOF 1
ENDMDL
