MODEL 1
REMARK VINA RESULT:      -2.6      0.000      0.000
REMARK  Name = 7288_3Pentanone.pdbqt.pdb
REMARK  2 active torsions:
REMARK  status: ('A' for Active; 'I' for Inactive)
REMARK    1  A    between atoms: C_2  and  C_3
REMARK    2  A    between atoms: C_2  and  C_5
REMARK                            x       y       z     vdW  Elec       q    Type
REMARK                         _______ _______ _______ _____ _____    ______ ____
ROOT
ATOM      1  O   UNL     1      12.264  31.882  22.987  0.00  0.00    +0.000 OA
ATOM      2  C   UNL     1      13.407  32.175  22.655  0.00  0.00    +0.000 C 
ENDROOT
BRANCH   2   3
ATOM      3  C   UNL     1      14.391  32.551  23.643  0.00  0.00    +0.000 C 
ATOM      4  C   UNL     1      15.432  32.936  24.712  0.00  0.00    +0.000 C 
ENDBRANCH   2   3
BRANCH   2   5
ATOM      5  C   UNL     1      13.804  32.154  21.268  0.00  0.00    +0.000 C 
ATOM      6  C   UNL     1      14.226  32.108  19.785  0.00  0.00    +0.000 C 
ENDBRANCH   2   5
TORSDOF 2
ENDMDL
MODEL 2
REMARK VINA RESULT:      -2.6      9.139      9.587
REMARK  Name = 7288_3Pentanone.pdbqt.pdb
REMARK  2 active torsions:
REMARK  status: ('A' for Active; 'I' for Inactive)
REMARK    1  A    between atoms: C_2  and  C_3
REMARK    2  A    between atoms: C_2  and  C_5
REMARK                            x       y       z     vdW  Elec       q    Type
REMARK                         _______ _______ _______ _____ _____    ______ ____
ROOT
ATOM      1  O   UNL     1       7.835  24.530  27.337  0.00  0.00    +0.000 OA
ATOM      2  C   UNL     1       8.739  25.349  27.448  0.00  0.00    +0.000 C 
ENDROOT
BRANCH   2   3
ATOM      3  C   UNL     1       9.480  25.472  28.681  0.00  0.00    +0.000 C 
ATOM      4  C   UNL     1      10.290  25.593  29.987  0.00  0.00    +0.000 C 
ENDBRANCH   2   3
BRANCH   2   5
ATOM      5  C   UNL     1       9.091  26.218  26.350  0.00  0.00    +0.000 C 
ATOM      6  C   UNL     1       9.460  27.129  25.162  0.00  0.00    +0.000 C 
ENDBRANCH   2   5
TORSDOF 2
ENDMDL
MODEL 3
REMARK VINA RESULT:      -2.5     10.052     10.877
REMARK  Name = 7288_3Pentanone.pdbqt.pdb
REMARK  2 active torsions:
REMARK  status: ('A' for Active; 'I' for Inactive)
REMARK    1  A    between atoms: C_2  and  C_3
REMARK    2  A    between atoms: C_2  and  C_5
REMARK                            x       y       z     vdW  Elec       q    Type
REMARK                         _______ _______ _______ _____ _____    ______ ____
ROOT
ATOM      1  O   UNL     1       8.204  25.535  26.213  0.00  0.00    +0.000 OA
ATOM      2  C   UNL     1       8.248  25.466  27.435  0.00  0.00    +0.000 C 
ENDROOT
BRANCH   2   3
ATOM      3  C   UNL     1       7.127  24.960  28.190  0.00  0.00    +0.000 C 
ATOM      4  C   UNL     1       5.917  24.419  28.976  0.00  0.00    +0.000 C 
ENDBRANCH   2   3
BRANCH   2   5
ATOM      5  C   UNL     1       9.424  25.890  28.158  0.00  0.00    +0.000 C 
ATOM      6  C   UNL     1      10.668  26.339  28.952  0.00  0.00    +0.000 C 
ENDBRANCH   2   5
TORSDOF 2
ENDMDL
MODEL 4
REMARK VINA RESULT:      -2.4      0.736      3.340
REMARK  Name = 7288_3Pentanone.pdbqt.pdb
REMARK  2 active torsions:
REMARK  status: ('A' for Active; 'I' for Inactive)
REMARK    1  A    between atoms: C_2  and  C_3
REMARK    2  A    between atoms: C_2  and  C_5
REMARK                            x       y       z     vdW  Elec       q    Type
REMARK                         _______ _______ _______ _____ _____    ______ ____
ROOT
ATOM      1  O   UNL     1      11.973  32.219  22.298  0.00  0.00    +0.000 OA
ATOM      2  C   UNL     1      13.145  32.501  22.077  0.00  0.00    +0.000 C 
ENDROOT
BRANCH   2   3
ATOM      3  C   UNL     1      13.620  32.682  20.726  0.00  0.00    +0.000 C 
ATOM      4  C   UNL     1      14.151  32.878  19.292  0.00  0.00    +0.000 C 
ENDBRANCH   2   3
BRANCH   2   5
ATOM      5  C   UNL     1      14.086  32.661  23.160  0.00  0.00    +0.000 C 
ATOM      6  C   UNL     1      15.109  32.831  24.301  0.00  0.00    +0.000 C 
ENDBRANCH   2   5
TORSDOF 2
ENDMDL
MODEL 5
REMARK VINA RESULT:      -2.4     14.520     15.615
REMARK  Name = 7288_3Pentanone.pdbqt.pdb
REMARK  2 active torsions:
REMARK  status: ('A' for Active; 'I' for Inactive)
REMARK    1  A    between atoms: C_2  and  C_3
REMARK    2  A    between atoms: C_2  and  C_5
REMARK                            x       y       z     vdW  Elec       q    Type
REMARK                         _______ _______ _______ _____ _____    ______ ____
ROOT
ATOM      1  O   UNL     1      -0.564  30.278  15.590  0.00  0.00    +0.000 OA
ATOM      2  C   UNL     1       0.396  29.663  15.140  0.00  0.00    +0.000 C 
ENDROOT
BRANCH   2   3
ATOM      3  C   UNL     1       0.351  28.229  14.985  0.00  0.00    +0.000 C 
ATOM      4  C   UNL     1       0.324  26.695  14.833  0.00  0.00    +0.000 C 
ENDBRANCH   2   3
BRANCH   2   5
ATOM      5  C   UNL     1       1.603  30.355  14.752  0.00  0.00    +0.000 C 
ATOM      6  C   UNL     1       2.896  31.098  14.361  0.00  0.00    +0.000 C 
ENDBRANCH   2   5
TORSDOF 2
ENDMDL
MODEL 6
REMARK VINA RESULT:      -2.4      9.621     10.484
REMARK  Name = 7288_3Pentanone.pdbqt.pdb
REMARK  2 active torsions:
REMARK  status: ('A' for Active; 'I' for Inactive)
REMARK    1  A    between atoms: C_2  and  C_3
REMARK    2  A    between atoms: C_2  and  C_5
REMARK                            x       y       z     vdW  Elec       q    Type
REMARK                         _______ _______ _______ _____ _____    ______ ____
ROOT
ATOM      1  O   UNL     1       7.615  25.920  29.062  0.00  0.00    +0.000 OA
ATOM      2  C   UNL     1       8.673  25.702  28.485  0.00  0.00    +0.000 C 
ENDROOT
BRANCH   2   3
ATOM      3  C   UNL     1       8.920  26.230  27.164  0.00  0.00    +0.000 C 
ATOM      4  C   UNL     1       9.176  26.816  25.762  0.00  0.00    +0.000 C 
ENDBRANCH   2   3
BRANCH   2   5
ATOM      5  C   UNL     1       9.707  24.911  29.108  0.00  0.00    +0.000 C 
ATOM      6  C   UNL     1      10.798  24.046  29.771  0.00  0.00    +0.000 C 
ENDBRANCH   2   5
TORSDOF 2
ENDMDL
MODEL 7
REMARK VINA RESULT:      -2.3     15.349     16.338
REMARK  Name = 7288_3Pentanone.pdbqt.pdb
REMARK  2 active torsions:
REMARK  status: ('A' for Active; 'I' for Inactive)
REMARK    1  A    between atoms: C_2  and  C_3
REMARK    2  A    between atoms: C_2  and  C_5
REMARK                            x       y       z     vdW  Elec       q    Type
REMARK                         _______ _______ _______ _____ _____    ______ ____
ROOT
ATOM      1  O   UNL     1      -0.612  27.802  16.393  0.00  0.00    +0.000 OA
ATOM      2  C   UNL     1       0.027  27.819  15.348  0.00  0.00    +0.000 C 
ENDROOT
BRANCH   2   3
ATOM      3  C   UNL     1       0.874  28.940  15.015  0.00  0.00    +0.000 C 
ATOM      4  C   UNL     1       1.787  30.124  14.641  0.00  0.00    +0.000 C 
ENDBRANCH   2   3
BRANCH   2   5
ATOM      5  C   UNL     1      -0.046  26.719  14.416  0.00  0.00    +0.000 C 
ATOM      6  C   UNL     1      -0.148  25.550  13.415  0.00  0.00    +0.000 C 
ENDBRANCH   2   5
TORSDOF 2
ENDMDL
MODEL 8
REMARK VINA RESULT:      -2.3      1.636      2.566
REMARK  Name = 7288_3Pentanone.pdbqt.pdb
REMARK  2 active torsions:
REMARK  status: ('A' for Active; 'I' for Inactive)
REMARK    1  A    between atoms: C_2  and  C_3
REMARK    2  A    between atoms: C_2  and  C_5
REMARK                            x       y       z     vdW  Elec       q    Type
REMARK                         _______ _______ _______ _____ _____    ______ ____
ROOT
ATOM      1  O   UNL     1      13.803  31.715  21.627  0.00  0.00    +0.000 OA
ATOM      2  C   UNL     1      13.568  32.168  22.741  0.00  0.00    +0.000 C 
ENDROOT
BRANCH   2   3
ATOM      3  C   UNL     1      14.626  32.712  23.558  0.00  0.00    +0.000 C 
ATOM      4  C   UNL     1      15.740  33.296  24.449  0.00  0.00    +0.000 C 
ENDBRANCH   2   3
BRANCH   2   5
ATOM      5  C   UNL     1      12.225  32.172  23.270  0.00  0.00    +0.000 C 
ATOM      6  C   UNL     1      10.799  32.168  23.857  0.00  0.00    +0.000 C 
ENDBRANCH   2   5
TORSDOF 2
ENDMDL
MODEL 9
REMARK VINA RESULT:      -2.3     33.936     34.505
REMARK  Name = 7288_3Pentanone.pdbqt.pdb
REMARK  2 active torsions:
REMARK  status: ('A' for Active; 'I' for Inactive)
REMARK    1  A    between atoms: C_2  and  C_3
REMARK    2  A    between atoms: C_2  and  C_5
REMARK                            x       y       z     vdW  Elec       q    Type
REMARK                         _______ _______ _______ _____ _____    ______ ____
ROOT
ATOM      1  O   UNL     1      20.736  -0.412  13.720  0.00  0.00    +0.000 OA
ATOM      2  C   UNL     1      20.114  -0.696  14.737  0.00  0.00    +0.000 C 
ENDROOT
BRANCH   2   3
ATOM      3  C   UNL     1      20.489  -0.139  16.015  0.00  0.00    +0.000 C 
ATOM      4  C   UNL     1      20.904   0.436  17.383  0.00  0.00    +0.000 C 
ENDBRANCH   2   3
BRANCH   2   5
ATOM      5  C   UNL     1      18.987  -1.597  14.689  0.00  0.00    +0.000 C 
ATOM      6  C   UNL     1      17.788  -2.564  14.614  0.00  0.00    +0.000 C 
ENDBRANCH   2   5
TORSDOF 2
ENDMDL
