MODEL 1
REMARK VINA RESULT:      -6.7      0.000      0.000
REMARK  Name = 73299_Hederagenin.pdbqt.pdb
REMARK  5 active torsions:
REMARK  status: ('A' for Active; 'I' for Inactive)
REMARK    1  A    between atoms: C_9  and  C_35
REMARK    2  A    between atoms: C_14  and  C_32
REMARK    3  A    between atoms: C_17  and  O_29
REMARK    4  A    between atoms: C_32  and  O_33
REMARK    5  A    between atoms: C_35  and  O_36
REMARK                            x       y       z     vdW  Elec       q    Type
REMARK                         _______ _______ _______ _____ _____    ______ ____
ROOT
ATOM      1  C   UNL     1      -2.379  25.018  14.378  0.00  0.00    +0.000 C 
ATOM      2  C   UNL     1      -3.758  25.270  13.636  0.00  0.00    +0.000 C 
ATOM      3  C   UNL     1      -4.729  24.146  13.257  0.00  0.00    +0.000 C 
ATOM      4  C   UNL     1      -1.165  25.973  13.781  0.00  0.00    +0.000 C 
ATOM      5  C   UNL     1      -4.107  22.774  12.869  0.00  0.00    +0.000 C 
ATOM      6  C   UNL     1      -2.083  23.596  14.176  0.00  0.00    +0.000 C 
ATOM      7  C   UNL     1      -2.849  22.519  13.483  0.00  0.00    +0.000 C 
ATOM      8  C   UNL     1      -1.611  27.530  13.661  0.00  0.00    +0.000 C 
ATOM      9  C   UNL     1      -4.650  21.897  11.727  0.00  0.00    +0.000 C 
ATOM     10  C   UNL     1      -0.756  28.683  14.020  0.00  0.00    +0.000 C 
ATOM     11  C   UNL     1      -3.945  26.645  13.291  0.00  0.00    +0.000 C 
ATOM     12  C   UNL     1      -5.519  24.547  12.097  0.00  0.00    +0.000 C 
ATOM     13  C   UNL     1       0.027  26.021  14.648  0.00  0.00    +0.000 C 
ATOM     14  C   UNL     1       0.399  28.616  15.197  0.00  0.00    +0.000 C 
ATOM     15  C   UNL     1      -2.631  25.305  15.914  0.00  0.00    +0.000 C 
ATOM     16  C   UNL     1       0.750  27.198  15.260  0.00  0.00    +0.000 C 
ATOM     17  C   UNL     1      -5.828  22.446  10.879  0.00  0.00    +0.000 C 
ATOM     18  C   UNL     1      -2.865  27.689  13.350  0.00  0.00    +0.000 C 
ATOM     19  C   UNL     1      -5.661  23.903  14.472  0.00  0.00    +0.000 C 
ATOM     20  C   UNL     1      -6.101  23.824  10.928  0.00  0.00    +0.000 C 
ATOM     21  C   UNL     1      -0.736  25.550  12.309  0.00  0.00    +0.000 C 
ATOM     22  C   UNL     1      -0.533  29.715  13.007  0.00  0.00    +0.000 C 
ATOM     23  C   UNL     1       1.468  29.526  14.705  0.00  0.00    +0.000 C 
ATOM     24  C   UNL     1       0.452  30.731  12.477  0.00  0.00    +0.000 C 
ATOM     25  C   UNL     1      -5.088  20.517  12.320  0.00  0.00    +0.000 C 
ATOM     26  C   UNL     1       1.520  30.504  13.502  0.00  0.00    +0.000 C 
ATOM     27  C   UNL     1       0.928  30.359  11.061  0.00  0.00    +0.000 C 
ATOM     28  C   UNL     1      -0.119  32.159  12.548  0.00  0.00    +0.000 C 
ENDROOT
BRANCH  17  29
ATOM     29  O   UNL     1      -6.776  21.595  10.334  0.00  0.00    +0.000 OA
ATOM     30  H   UNL     1      -7.122  20.979  11.013  0.00  0.00    +0.000 HD
ENDBRANCH  17  29
BRANCH  14  32
ATOM     31  O   UNL     1      -1.246  29.823  16.576  0.00  0.00    +0.000 OA
ATOM     32  C   UNL     1      -0.226  29.152  16.490  0.00  0.00    +0.000 C 
BRANCH  32  33
ATOM     33  O   UNL     1       0.490  28.889  17.606  0.00  0.00    +0.000 OA
ATOM     34  H   UNL     1       0.710  27.934  17.549  0.00  0.00    +0.000 HD
ENDBRANCH  32  33
ENDBRANCH  14  32
BRANCH   9  35
ATOM     35  C   UNL     1      -3.534  21.683  10.752  0.00  0.00    +0.000 C 
BRANCH  35  36
ATOM     36  O   UNL     1      -2.531  21.486   9.892  0.00  0.00    +0.000 OA
ATOM     37  H   UNL     1      -2.610  20.618   9.454  0.00  0.00    +0.000 HD
ENDBRANCH  35  36
ENDBRANCH   9  35
TORSDOF 5
ENDMDL
MODEL 2
REMARK VINA RESULT:      -6.2     33.065     35.385
REMARK  Name = 73299_Hederagenin.pdbqt.pdb
REMARK  5 active torsions:
REMARK  status: ('A' for Active; 'I' for Inactive)
REMARK    1  A    between atoms: C_9  and  C_35
REMARK    2  A    between atoms: C_14  and  C_32
REMARK    3  A    between atoms: C_17  and  O_29
REMARK    4  A    between atoms: C_32  and  O_33
REMARK    5  A    between atoms: C_35  and  O_36
REMARK                            x       y       z     vdW  Elec       q    Type
REMARK                         _______ _______ _______ _____ _____    ______ ____
ROOT
ATOM      1  C   UNL     1      29.064  10.325  22.318  0.00  0.00    +0.000 C 
ATOM      2  C   UNL     1      27.671  10.966  22.722  0.00  0.00    +0.000 C 
ATOM      3  C   UNL     1      26.876  10.544  23.963  0.00  0.00    +0.000 C 
ATOM      4  C   UNL     1      29.191  10.083  20.685  0.00  0.00    +0.000 C 
ATOM      5  C   UNL     1      26.969   9.050  24.389  0.00  0.00    +0.000 C 
ATOM      6  C   UNL     1      29.134   9.055  23.049  0.00  0.00    +0.000 C 
ATOM      7  C   UNL     1      28.189   8.421  24.015  0.00  0.00    +0.000 C 
ATOM      8  C   UNL     1      28.764  11.400  19.835  0.00  0.00    +0.000 C 
ATOM      9  C   UNL     1      25.765   8.249  24.912  0.00  0.00    +0.000 C 
ATOM     10  C   UNL     1      29.477  11.900  18.638  0.00  0.00    +0.000 C 
ATOM     11  C   UNL     1      27.210  11.914  21.755  0.00  0.00    +0.000 C 
ATOM     12  C   UNL     1      25.454  10.790  23.745  0.00  0.00    +0.000 C 
ATOM     13  C   UNL     1      30.569   9.814  20.235  0.00  0.00    +0.000 C 
ATOM     14  C   UNL     1      31.098  11.697  18.404  0.00  0.00    +0.000 C 
ATOM     15  C   UNL     1      30.187  11.311  22.841  0.00  0.00    +0.000 C 
ATOM     16  C   UNL     1      31.418  10.509  19.196  0.00  0.00    +0.000 C 
ATOM     17  C   UNL     1      24.379   8.947  24.946  0.00  0.00    +0.000 C 
ATOM     18  C   UNL     1      27.803  12.084  20.385  0.00  0.00    +0.000 C 
ATOM     19  C   UNL     1      27.382  11.396  25.155  0.00  0.00    +0.000 C 
ATOM     20  C   UNL     1      24.198  10.109  24.176  0.00  0.00    +0.000 C 
ATOM     21  C   UNL     1      28.227   8.928  20.171  0.00  0.00    +0.000 C 
ATOM     22  C   UNL     1      28.705  12.093  17.410  0.00  0.00    +0.000 C 
ATOM     23  C   UNL     1      31.234  11.548  16.930  0.00  0.00    +0.000 C 
ATOM     24  C   UNL     1      28.757  12.052  15.900  0.00  0.00    +0.000 C 
ATOM     25  C   UNL     1      26.085   7.750  26.360  0.00  0.00    +0.000 C 
ATOM     26  C   UNL     1      30.213  11.720  15.776  0.00  0.00    +0.000 C 
ATOM     27  C   UNL     1      27.863  10.930  15.343  0.00  0.00    +0.000 C 
ATOM     28  C   UNL     1      28.427  13.425  15.288  0.00  0.00    +0.000 C 
ENDROOT
BRANCH  17  29
ATOM     29  O   UNL     1      23.445   8.639  25.922  0.00  0.00    +0.000 OA
ATOM     30  H   UNL     1      22.740   8.063  25.560  0.00  0.00    +0.000 HD
ENDBRANCH  17  29
BRANCH  14  32
ATOM     31  O   UNL     1      32.289  13.842  18.192  0.00  0.00    +0.000 OA
ATOM     32  C   UNL     1      31.799  12.969  18.896  0.00  0.00    +0.000 C 
BRANCH  32  33
ATOM     33  O   UNL     1      31.920  13.056  20.239  0.00  0.00    +0.000 OA
ATOM     34  H   UNL     1      31.106  12.640  20.596  0.00  0.00    +0.000 HD
ENDBRANCH  32  33
ENDBRANCH  14  32
BRANCH   9  35
ATOM     35  C   UNL     1      25.583   7.067  24.012  0.00  0.00    +0.000 C 
BRANCH  35  36
ATOM     36  O   UNL     1      25.413   6.020  23.199  0.00  0.00    +0.000 OA
ATOM     37  H   UNL     1      24.532   6.039  22.782  0.00  0.00    +0.000 HD
ENDBRANCH  35  36
ENDBRANCH   9  35
TORSDOF 5
ENDMDL
MODEL 3
REMARK VINA RESULT:      -6.1     30.232     33.532
REMARK  Name = 73299_Hederagenin.pdbqt.pdb
REMARK  5 active torsions:
REMARK  status: ('A' for Active; 'I' for Inactive)
REMARK    1  A    between atoms: C_9  and  C_35
REMARK    2  A    between atoms: C_14  and  C_32
REMARK    3  A    between atoms: C_17  and  O_29
REMARK    4  A    between atoms: C_32  and  O_33
REMARK    5  A    between atoms: C_35  and  O_36
REMARK                            x       y       z     vdW  Elec       q    Type
REMARK                         _______ _______ _______ _____ _____    ______ ____
ROOT
ATOM      1  C   UNL     1      24.848  14.299  26.134  0.00  0.00    +0.000 C 
ATOM      2  C   UNL     1      23.501  14.723  26.856  0.00  0.00    +0.000 C 
ATOM      3  C   UNL     1      23.219  16.147  27.347  0.00  0.00    +0.000 C 
ATOM      4  C   UNL     1      25.381  12.812  26.629  0.00  0.00    +0.000 C 
ATOM      5  C   UNL     1      24.433  16.972  27.862  0.00  0.00    +0.000 C 
ATOM      6  C   UNL     1      25.816  15.349  26.470  0.00  0.00    +0.000 C 
ATOM      7  C   UNL     1      25.672  16.601  27.268  0.00  0.00    +0.000 C 
ATOM      8  C   UNL     1      24.201  11.695  26.601  0.00  0.00    +0.000 C 
ATOM      9  C   UNL     1      24.361  17.901  29.086  0.00  0.00    +0.000 C 
ATOM     10  C   UNL     1      24.367  10.304  26.127  0.00  0.00    +0.000 C 
ATOM     11  C   UNL     1      22.626  13.610  27.068  0.00  0.00    +0.000 C 
ATOM     12  C   UNL     1      22.284  16.107  28.467  0.00  0.00    +0.000 C 
ATOM     13  C   UNL     1      26.421  12.238  25.755  0.00  0.00    +0.000 C 
ATOM     14  C   UNL     1      25.447   9.873  24.957  0.00  0.00    +0.000 C 
ATOM     15  C   UNL     1      24.554  14.314  24.578  0.00  0.00    +0.000 C 
ATOM     16  C   UNL     1      26.473  10.914  25.028  0.00  0.00    +0.000 C 
ATOM     17  C   UNL     1      23.031  17.959  29.884  0.00  0.00    +0.000 C 
ATOM     18  C   UNL     1      23.028  12.172  26.902  0.00  0.00    +0.000 C 
ATOM     19  C   UNL     1      22.594  16.935  26.166  0.00  0.00    +0.000 C 
ATOM     20  C   UNL     1      22.099  16.922  29.703  0.00  0.00    +0.000 C 
ATOM     21  C   UNL     1      25.899  12.829  28.133  0.00  0.00    +0.000 C 
ATOM     22  C   UNL     1      23.991   9.220  27.036  0.00  0.00    +0.000 C 
ATOM     23  C   UNL     1      25.883   8.507  25.353  0.00  0.00    +0.000 C 
ATOM     24  C   UNL     1      24.298   7.802  27.460  0.00  0.00    +0.000 C 
ATOM     25  C   UNL     1      24.711  19.357  28.632  0.00  0.00    +0.000 C 
ATOM     26  C   UNL     1      25.379   7.540  26.455  0.00  0.00    +0.000 C 
ATOM     27  C   UNL     1      24.834   7.757  28.902  0.00  0.00    +0.000 C 
ATOM     28  C   UNL     1      23.086   6.877  27.254  0.00  0.00    +0.000 C 
ENDROOT
BRANCH  17  29
ATOM     29  O   UNL     1      22.623  19.123  30.513  0.00  0.00    +0.000 OA
ATOM     30  H   UNL     1      23.267  19.392  31.201  0.00  0.00    +0.000 HD
ENDBRANCH  17  29
BRANCH  14  32
ATOM     31  O   UNL     1      23.708  10.508  23.333  0.00  0.00    +0.000 OA
ATOM     32  C   UNL     1      24.695   9.844  23.621  0.00  0.00    +0.000 C 
BRANCH  32  33
ATOM     33  O   UNL     1      25.163   8.936  22.737  0.00  0.00    +0.000 OA
ATOM     34  H   UNL     1      25.949   9.359  22.328  0.00  0.00    +0.000 HD
ENDBRANCH  32  33
ENDBRANCH  14  32
BRANCH   9  35
ATOM     35  C   UNL     1      25.386  17.432  30.071  0.00  0.00    +0.000 C 
BRANCH  35  36
ATOM     36  O   UNL     1      26.296  16.999  30.948  0.00  0.00    +0.000 OA
ATOM     37  H   UNL     1      26.119  16.078  31.212  0.00  0.00    +0.000 HD
ENDBRANCH  35  36
ENDBRANCH   9  35
TORSDOF 5
ENDMDL
MODEL 4
REMARK VINA RESULT:      -6.1     34.584     37.138
REMARK  Name = 73299_Hederagenin.pdbqt.pdb
REMARK  5 active torsions:
REMARK  status: ('A' for Active; 'I' for Inactive)
REMARK    1  A    between atoms: C_9  and  C_35
REMARK    2  A    between atoms: C_14  and  C_32
REMARK    3  A    between atoms: C_17  and  O_29
REMARK    4  A    between atoms: C_32  and  O_33
REMARK    5  A    between atoms: C_35  and  O_36
REMARK                            x       y       z     vdW  Elec       q    Type
REMARK                         _______ _______ _______ _____ _____    ______ ____
ROOT
ATOM      1  C   UNL     1      28.193   7.211  23.124  0.00  0.00    +0.000 C 
ATOM      2  C   UNL     1      28.113   8.583  22.333  0.00  0.00    +0.000 C 
ATOM      3  C   UNL     1      27.699   9.909  22.981  0.00  0.00    +0.000 C 
ATOM      4  C   UNL     1      27.617   5.940  22.232  0.00  0.00    +0.000 C 
ATOM      5  C   UNL     1      26.643   9.839  24.123  0.00  0.00    +0.000 C 
ATOM      6  C   UNL     1      27.390   7.414  24.336  0.00  0.00    +0.000 C 
ATOM      7  C   UNL     1      26.653   8.610  24.839  0.00  0.00    +0.000 C 
ATOM      8  C   UNL     1      28.243   5.910  20.733  0.00  0.00    +0.000 C 
ATOM      9  C   UNL     1      25.517  10.873  24.290  0.00  0.00    +0.000 C 
ATOM     10  C   UNL     1      28.690   4.688  20.029  0.00  0.00    +0.000 C 
ATOM     11  C   UNL     1      28.388   8.421  20.938  0.00  0.00    +0.000 C 
ATOM     12  C   UNL     1      27.113  10.789  21.975  0.00  0.00    +0.000 C 
ATOM     13  C   UNL     1      27.980   4.622  22.784  0.00  0.00    +0.000 C 
ATOM     14  C   UNL     1      29.289   3.365  20.813  0.00  0.00    +0.000 C 
ATOM     15  C   UNL     1      29.712   6.998  23.513  0.00  0.00    +0.000 C 
ATOM     16  C   UNL     1      28.699   3.455  22.148  0.00  0.00    +0.000 C 
ATOM     17  C   UNL     1      25.387  11.994  23.225  0.00  0.00    +0.000 C 
ATOM     18  C   UNL     1      28.459   7.094  20.236  0.00  0.00    +0.000 C 
ATOM     19  C   UNL     1      28.976  10.560  23.573  0.00  0.00    +0.000 C 
ATOM     20  C   UNL     1      26.033  11.819  21.989  0.00  0.00    +0.000 C 
ATOM     21  C   UNL     1      26.043   6.016  22.023  0.00  0.00    +0.000 C 
ATOM     22  C   UNL     1      28.120   4.407  18.711  0.00  0.00    +0.000 C 
ATOM     23  C   UNL     1      28.838   2.218  19.981  0.00  0.00    +0.000 C 
ATOM     24  C   UNL     1      27.704   3.314  17.754  0.00  0.00    +0.000 C 
ATOM     25  C   UNL     1      25.666  11.556  25.689  0.00  0.00    +0.000 C 
ATOM     26  C   UNL     1      28.143   2.155  18.596  0.00  0.00    +0.000 C 
ATOM     27  C   UNL     1      26.180   3.318  17.533  0.00  0.00    +0.000 C 
ATOM     28  C   UNL     1      28.489   3.394  16.432  0.00  0.00    +0.000 C 
ENDROOT
BRANCH  17  29
ATOM     29  O   UNL     1      24.923  13.254  23.564  0.00  0.00    +0.000 OA
ATOM     30  H   UNL     1      25.560  13.714  24.150  0.00  0.00    +0.000 HD
ENDBRANCH  17  29
BRANCH  14  32
ATOM     31  O   UNL     1      31.490   4.214  21.521  0.00  0.00    +0.000 OA
ATOM     32  C   UNL     1      30.818   3.479  20.809  0.00  0.00    +0.000 C 
BRANCH  32  33
ATOM     33  O   UNL     1      31.431   2.727  19.869  0.00  0.00    +0.000 OA
ATOM     34  H   UNL     1      30.705   2.257  19.405  0.00  0.00    +0.000 HD
ENDBRANCH  32  33
ENDBRANCH  14  32
BRANCH   9  35
ATOM     35  C   UNL     1      24.215  10.135  24.238  0.00  0.00    +0.000 C 
BRANCH  35  36
ATOM     36  O   UNL     1      23.052   9.477  24.207  0.00  0.00    +0.000 OA
ATOM     37  H   UNL     1      23.152   8.608  23.777  0.00  0.00    +0.000 HD
ENDBRANCH  35  36
ENDBRANCH   9  35
TORSDOF 5
ENDMDL
MODEL 5
REMARK VINA RESULT:      -5.9      2.757      3.440
REMARK  Name = 73299_Hederagenin.pdbqt.pdb
REMARK  5 active torsions:
REMARK  status: ('A' for Active; 'I' for Inactive)
REMARK    1  A    between atoms: C_9  and  C_35
REMARK    2  A    between atoms: C_14  and  C_32
REMARK    3  A    between atoms: C_17  and  O_29
REMARK    4  A    between atoms: C_32  and  O_33
REMARK    5  A    between atoms: C_35  and  O_36
REMARK                            x       y       z     vdW  Elec       q    Type
REMARK                         _______ _______ _______ _____ _____    ______ ____
ROOT
ATOM      1  C   UNL     1      -2.351  26.503  16.099  0.00  0.00    +0.000 C 
ATOM      2  C   UNL     1      -3.913  26.563  15.827  0.00  0.00    +0.000 C 
ATOM      3  C   UNL     1      -4.927  25.652  16.528  0.00  0.00    +0.000 C 
ATOM      4  C   UNL     1      -1.468  26.673  14.708  0.00  0.00    +0.000 C 
ATOM      5  C   UNL     1      -4.458  24.210  16.881  0.00  0.00    +0.000 C 
ATOM      6  C   UNL     1      -2.115  25.194  16.720  0.00  0.00    +0.000 C 
ATOM      7  C   UNL     1      -3.056  24.100  17.098  0.00  0.00    +0.000 C 
ATOM      8  C   UNL     1      -1.966  27.936  13.816  0.00  0.00    +0.000 C 
ATOM      9  C   UNL     1      -5.362  22.974  16.741  0.00  0.00    +0.000 C 
ATOM     10  C   UNL     1      -1.068  28.883  13.119  0.00  0.00    +0.000 C 
ATOM     11  C   UNL     1      -4.248  27.499  14.799  0.00  0.00    +0.000 C 
ATOM     12  C   UNL     1      -6.099  25.472  15.677  0.00  0.00    +0.000 C 
ATOM     13  C   UNL     1      -0.042  26.961  14.949  0.00  0.00    +0.000 C 
ATOM     14  C   UNL     1       0.442  29.263  13.667  0.00  0.00    +0.000 C 
ATOM     15  C   UNL     1      -2.025  27.657  17.131  0.00  0.00    +0.000 C 
ATOM     16  C   UNL     1       0.827  28.098  14.463  0.00  0.00    +0.000 C 
ATOM     17  C   UNL     1      -6.783  23.168  16.149  0.00  0.00    +0.000 C 
ATOM     18  C   UNL     1      -3.250  28.142  13.878  0.00  0.00    +0.000 C 
ATOM     19  C   UNL     1      -5.337  26.341  17.854  0.00  0.00    +0.000 C 
ATOM     20  C   UNL     1      -7.053  24.350  15.436  0.00  0.00    +0.000 C 
ATOM     21  C   UNL     1      -1.603  25.410  13.751  0.00  0.00    +0.000 C 
ATOM     22  C   UNL     1      -1.261  29.081  11.682  0.00  0.00    +0.000 C 
ATOM     23  C   UNL     1       1.230  29.488  12.425  0.00  0.00    +0.000 C 
ATOM     24  C   UNL     1      -0.568  29.387  10.374  0.00  0.00    +0.000 C 
ATOM     25  C   UNL     1      -5.515  22.303  18.146  0.00  0.00    +0.000 C 
ATOM     26  C   UNL     1       0.809  29.570  10.935  0.00  0.00    +0.000 C 
ATOM     27  C   UNL     1      -0.639  28.186   9.413  0.00  0.00    +0.000 C 
ATOM     28  C   UNL     1      -1.107  30.680   9.739  0.00  0.00    +0.000 C 
ENDROOT
BRANCH  17  29
ATOM     29  O   UNL     1      -7.843  22.376  16.556  0.00  0.00    +0.000 OA
ATOM     30  H   UNL     1      -8.251  21.919  15.791  0.00  0.00    +0.000 HD
ENDBRANCH  17  29
BRANCH  14  32
ATOM     31  O   UNL     1       0.877  31.619  14.239  0.00  0.00    +0.000 OA
ATOM     32  C   UNL     1       0.325  30.554  14.485  0.00  0.00    +0.000 C 
BRANCH  32  33
ATOM     33  O   UNL     1      -0.413  30.436  15.611  0.00  0.00    +0.000 OA
ATOM     34  H   UNL     1      -0.193  31.228  16.146  0.00  0.00    +0.000 HD
ENDBRANCH  32  33
ENDBRANCH  14  32
BRANCH   9  35
ATOM     35  C   UNL     1      -4.680  22.019  15.810  0.00  0.00    +0.000 C 
BRANCH  35  36
ATOM     36  O   UNL     1      -4.082  21.172  14.969  0.00  0.00    +0.000 OA
ATOM     37  H   UNL     1      -3.113  21.204  15.069  0.00  0.00    +0.000 HD
ENDBRANCH  35  36
ENDBRANCH   9  35
TORSDOF 5
ENDMDL
MODEL 6
REMARK VINA RESULT:      -5.8     27.530     30.485
REMARK  Name = 73299_Hederagenin.pdbqt.pdb
REMARK  5 active torsions:
REMARK  status: ('A' for Active; 'I' for Inactive)
REMARK    1  A    between atoms: C_9  and  C_35
REMARK    2  A    between atoms: C_14  and  C_32
REMARK    3  A    between atoms: C_17  and  O_29
REMARK    4  A    between atoms: C_32  and  O_33
REMARK    5  A    between atoms: C_35  and  O_36
REMARK                            x       y       z     vdW  Elec       q    Type
REMARK                         _______ _______ _______ _____ _____    ______ ____
ROOT
ATOM      1  C   UNL     1      23.235  18.860  27.998  0.00  0.00    +0.000 C 
ATOM      2  C   UNL     1      23.514  18.254  26.559  0.00  0.00    +0.000 C 
ATOM      3  C   UNL     1      23.952  16.804  26.323  0.00  0.00    +0.000 C 
ATOM      4  C   UNL     1      23.809  20.406  28.147  0.00  0.00    +0.000 C 
ATOM      5  C   UNL     1      24.858  16.154  27.408  0.00  0.00    +0.000 C 
ATOM      6  C   UNL     1      23.904  17.952  28.937  0.00  0.00    +0.000 C 
ATOM      7  C   UNL     1      24.669  16.691  28.712  0.00  0.00    +0.000 C 
ATOM      8  C   UNL     1      23.362  21.349  26.902  0.00  0.00    +0.000 C 
ATOM      9  C   UNL     1      26.035  15.223  27.073  0.00  0.00    +0.000 C 
ATOM     10  C   UNL     1      22.906  22.751  27.027  0.00  0.00    +0.000 C 
ATOM     11  C   UNL     1      23.392  19.236  25.525  0.00  0.00    +0.000 C 
ATOM     12  C   UNL     1      24.719  16.715  25.085  0.00  0.00    +0.000 C 
ATOM     13  C   UNL     1      23.282  21.117  29.326  0.00  0.00    +0.000 C 
ATOM     14  C   UNL     1      22.117  23.327  28.357  0.00  0.00    +0.000 C 
ATOM     15  C   UNL     1      21.668  18.806  28.217  0.00  0.00    +0.000 C 
ATOM     16  C   UNL     1      22.553  22.436  29.433  0.00  0.00    +0.000 C 
ATOM     17  C   UNL     1      26.377  14.982  25.578  0.00  0.00    +0.000 C 
ATOM     18  C   UNL     1      23.300  20.716  25.767  0.00  0.00    +0.000 C 
ATOM     19  C   UNL     1      22.670  15.939  26.214  0.00  0.00    +0.000 C 
ATOM     20  C   UNL     1      25.867  15.881  24.624  0.00  0.00    +0.000 C 
ATOM     21  C   UNL     1      25.398  20.458  28.159  0.00  0.00    +0.000 C 
ATOM     22  C   UNL     1      23.602  23.772  26.244  0.00  0.00    +0.000 C 
ATOM     23  C   UNL     1      22.571  24.740  28.463  0.00  0.00    +0.000 C 
ATOM     24  C   UNL     1      24.040  25.218  26.213  0.00  0.00    +0.000 C 
ATOM     25  C   UNL     1      25.778  13.829  27.735  0.00  0.00    +0.000 C 
ATOM     26  C   UNL     1      23.416  25.627  27.513  0.00  0.00    +0.000 C 
ATOM     27  C   UNL     1      25.575  25.336  26.252  0.00  0.00    +0.000 C 
ATOM     28  C   UNL     1      23.424  25.968  25.019  0.00  0.00    +0.000 C 
ENDROOT
BRANCH  17  29
ATOM     29  O   UNL     1      26.895  13.772  25.147  0.00  0.00    +0.000 OA
ATOM     30  H   UNL     1      26.586  13.564  24.240  0.00  0.00    +0.000 HD
ENDBRANCH  17  29
BRANCH  14  32
ATOM     31  O   UNL     1      19.723  23.134  28.903  0.00  0.00    +0.000 OA
ATOM     32  C   UNL     1      20.613  23.253  28.071  0.00  0.00    +0.000 C 
BRANCH  32  33
ATOM     33  O   UNL     1      20.295  23.256  26.757  0.00  0.00    +0.000 OA
ATOM     34  H   UNL     1      21.113  22.976  26.295  0.00  0.00    +0.000 HD
ENDBRANCH  32  33
ENDBRANCH  14  32
BRANCH   9  35
ATOM     35  C   UNL     1      27.272  15.827  27.661  0.00  0.00    +0.000 C 
BRANCH  35  36
ATOM     36  O   UNL     1      28.368  16.379  28.190  0.00  0.00    +0.000 OA
ATOM     37  H   UNL     1      29.063  15.711  28.333  0.00  0.00    +0.000 HD
ENDBRANCH  35  36
ENDBRANCH   9  35
TORSDOF 5
ENDMDL
MODEL 7
REMARK VINA RESULT:      -5.8     21.779     25.584
REMARK  Name = 73299_Hederagenin.pdbqt.pdb
REMARK  5 active torsions:
REMARK  status: ('A' for Active; 'I' for Inactive)
REMARK    1  A    between atoms: C_9  and  C_35
REMARK    2  A    between atoms: C_14  and  C_32
REMARK    3  A    between atoms: C_17  and  O_29
REMARK    4  A    between atoms: C_32  and  O_33
REMARK    5  A    between atoms: C_35  and  O_36
REMARK                            x       y       z     vdW  Elec       q    Type
REMARK                         _______ _______ _______ _____ _____    ______ ____
ROOT
ATOM      1  C   UNL     1      21.319  29.417   6.467  0.00  0.00    +0.000 C 
ATOM      2  C   UNL     1      21.210  29.620   4.898  0.00  0.00    +0.000 C 
ATOM      3  C   UNL     1      21.916  28.719   3.879  0.00  0.00    +0.000 C 
ATOM      4  C   UNL     1      21.454  30.856   7.276  0.00  0.00    +0.000 C 
ATOM      5  C   UNL     1      23.298  28.134   4.290  0.00  0.00    +0.000 C 
ATOM      6  C   UNL     1      22.509  28.582   6.669  0.00  0.00    +0.000 C 
ATOM      7  C   UNL     1      23.457  27.968   5.694  0.00  0.00    +0.000 C 
ATOM      8  C   UNL     1      20.341  31.937   6.795  0.00  0.00    +0.000 C 
ATOM      9  C   UNL     1      24.480  28.005   3.314  0.00  0.00    +0.000 C 
ATOM     10  C   UNL     1      19.591  32.836   7.700  0.00  0.00    +0.000 C 
ATOM     11  C   UNL     1      20.451  30.783   4.554  0.00  0.00    +0.000 C 
ATOM     12  C   UNL     1      22.169  29.466   2.651  0.00  0.00    +0.000 C 
ATOM     13  C   UNL     1      21.219  30.740   8.727  0.00  0.00    +0.000 C 
ATOM     14  C   UNL     1      19.216  32.438   9.257  0.00  0.00    +0.000 C 
ATOM     15  C   UNL     1      20.023  28.627   6.915  0.00  0.00    +0.000 C 
ATOM     16  C   UNL     1      20.244  31.464   9.625  0.00  0.00    +0.000 C 
ATOM     17  C   UNL     1      24.304  28.554   1.873  0.00  0.00    +0.000 C 
ATOM     18  C   UNL     1      20.046  31.851   5.530  0.00  0.00    +0.000 C 
ATOM     19  C   UNL     1      20.978  27.520   3.584  0.00  0.00    +0.000 C 
ATOM     20  C   UNL     1      23.253  29.454   1.626  0.00  0.00    +0.000 C 
ATOM     21  C   UNL     1      22.856  31.562   7.017  0.00  0.00    +0.000 C 
ATOM     22  C   UNL     1      19.640  34.274   7.434  0.00  0.00    +0.000 C 
ATOM     23  C   UNL     1      19.266  33.736   9.983  0.00  0.00    +0.000 C 
ATOM     24  C   UNL     1      19.615  35.647   8.066  0.00  0.00    +0.000 C 
ATOM     25  C   UNL     1      24.881  26.497   3.207  0.00  0.00    +0.000 C 
ATOM     26  C   UNL     1      19.423  35.195   9.481  0.00  0.00    +0.000 C 
ATOM     27  C   UNL     1      20.960  36.371   7.873  0.00  0.00    +0.000 C 
ATOM     28  C   UNL     1      18.423  36.478   7.560  0.00  0.00    +0.000 C 
ENDROOT
BRANCH  17  29
ATOM     29  O   UNL     1      24.943  27.960   0.797  0.00  0.00    +0.000 OA
ATOM     30  H   UNL     1      24.310  27.783   0.070  0.00  0.00    +0.000 HD
ENDBRANCH  17  29
BRANCH  14  32
ATOM     31  O   UNL     1      16.849  32.273   9.916  0.00  0.00    +0.000 OA
ATOM     32  C   UNL     1      17.795  31.862   9.258  0.00  0.00    +0.000 C 
BRANCH  32  33
ATOM     33  O   UNL     1      17.643  30.755   8.497  0.00  0.00    +0.000 OA
ATOM     34  H   UNL     1      16.687  30.537   8.552  0.00  0.00    +0.000 HD
ENDBRANCH  32  33
ENDBRANCH  14  32
BRANCH   9  35
ATOM     35  C   UNL     1      25.626  28.780   3.888  0.00  0.00    +0.000 C 
BRANCH  35  36
ATOM     36  O   UNL     1      26.648  29.481   4.388  0.00  0.00    +0.000 OA
ATOM     37  H   UNL     1      27.355  28.891   4.707  0.00  0.00    +0.000 HD
ENDBRANCH  35  36
ENDBRANCH   9  35
TORSDOF 5
ENDMDL
MODEL 8
REMARK VINA RESULT:      -5.6     32.106     34.904
REMARK  Name = 73299_Hederagenin.pdbqt.pdb
REMARK  5 active torsions:
REMARK  status: ('A' for Active; 'I' for Inactive)
REMARK    1  A    between atoms: C_9  and  C_35
REMARK    2  A    between atoms: C_14  and  C_32
REMARK    3  A    between atoms: C_17  and  O_29
REMARK    4  A    between atoms: C_32  and  O_33
REMARK    5  A    between atoms: C_35  and  O_36
REMARK                            x       y       z     vdW  Elec       q    Type
REMARK                         _______ _______ _______ _____ _____    ______ ____
ROOT
ATOM      1  C   UNL     1      28.014  10.447  23.028  0.00  0.00    +0.000 C 
ATOM      2  C   UNL     1      27.664  11.218  21.687  0.00  0.00    +0.000 C 
ATOM      3  C   UNL     1      28.669  11.435  20.552  0.00  0.00    +0.000 C 
ATOM      4  C   UNL     1      27.346  11.172  24.359  0.00  0.00    +0.000 C 
ATOM      5  C   UNL     1      30.161  11.625  20.953  0.00  0.00    +0.000 C 
ATOM      6  C   UNL     1      29.479  10.445  23.104  0.00  0.00    +0.000 C 
ATOM      7  C   UNL     1      30.514  10.980  22.172  0.00  0.00    +0.000 C 
ATOM      8  C   UNL     1      25.772  11.511  24.148  0.00  0.00    +0.000 C 
ATOM      9  C   UNL     1      31.096  12.632  20.262  0.00  0.00    +0.000 C 
ATOM     10  C   UNL     1      24.722  11.317  25.173  0.00  0.00    +0.000 C 
ATOM     11  C   UNL     1      26.337  11.754  21.702  0.00  0.00    +0.000 C 
ATOM     12  C   UNL     1      28.320  12.641  19.807  0.00  0.00    +0.000 C 
ATOM     13  C   UNL     1      27.358  10.319  25.562  0.00  0.00    +0.000 C 
ATOM     14  C   UNL     1      24.798  10.142  26.330  0.00  0.00    +0.000 C 
ATOM     15  C   UNL     1      27.481   8.966  22.854  0.00  0.00    +0.000 C 
ATOM     16  C   UNL     1      26.230   9.879  26.466  0.00  0.00    +0.000 C 
ATOM     17  C   UNL     1      30.500  13.550  19.162  0.00  0.00    +0.000 C 
ATOM     18  C   UNL     1      25.471  11.842  22.926  0.00  0.00    +0.000 C 
ATOM     19  C   UNL     1      28.597  10.199  19.619  0.00  0.00    +0.000 C 
ATOM     20  C   UNL     1      29.103  13.696  19.099  0.00  0.00    +0.000 C 
ATOM     21  C   UNL     1      28.031  12.569  24.689  0.00  0.00    +0.000 C 
ATOM     22  C   UNL     1      23.888  12.466  25.527  0.00  0.00    +0.000 C 
ATOM     23  C   UNL     1      24.137  10.757  27.512  0.00  0.00    +0.000 C 
ATOM     24  C   UNL     1      23.116  13.134  26.642  0.00  0.00    +0.000 C 
ATOM     25  C   UNL     1      32.298  11.851  19.635  0.00  0.00    +0.000 C 
ATOM     26  C   UNL     1      23.357  12.086  27.685  0.00  0.00    +0.000 C 
ATOM     27  C   UNL     1      23.750  14.483  27.028  0.00  0.00    +0.000 C 
ATOM     28  C   UNL     1      21.623  13.266  26.293  0.00  0.00    +0.000 C 
ENDROOT
BRANCH  17  29
ATOM     29  O   UNL     1      31.266  13.970  18.087  0.00  0.00    +0.000 OA
ATOM     30  H   UNL     1      31.085  13.421  17.295  0.00  0.00    +0.000 HD
ENDBRANCH  17  29
BRANCH  14  32
ATOM     31  O   UNL     1      23.362   8.148  26.504  0.00  0.00    +0.000 OA
ATOM     32  C   UNL     1      23.998   8.938  25.818  0.00  0.00    +0.000 C 
BRANCH  32  33
ATOM     33  O   UNL     1      24.091   8.733  24.485  0.00  0.00    +0.000 OA
ATOM     34  H   UNL     1      23.207   8.405  24.215  0.00  0.00    +0.000 HD
ENDBRANCH  32  33
ENDBRANCH  14  32
BRANCH   9  35
ATOM     35  C   UNL     1      31.610  13.566  21.313  0.00  0.00    +0.000 C 
BRANCH  35  36
ATOM     36  O   UNL     1      32.078  14.407  22.240  0.00  0.00    +0.000 OA
ATOM     37  H   UNL     1      32.756  13.977  22.793  0.00  0.00    +0.000 HD
ENDBRANCH  35  36
ENDBRANCH   9  35
TORSDOF 5
ENDMDL
MODEL 9
REMARK VINA RESULT:      -5.5      3.069      7.640
REMARK  Name = 73299_Hederagenin.pdbqt.pdb
REMARK  5 active torsions:
REMARK  status: ('A' for Active; 'I' for Inactive)
REMARK    1  A    between atoms: C_9  and  C_35
REMARK    2  A    between atoms: C_14  and  C_32
REMARK    3  A    between atoms: C_17  and  O_29
REMARK    4  A    between atoms: C_32  and  O_33
REMARK    5  A    between atoms: C_35  and  O_36
REMARK                            x       y       z     vdW  Elec       q    Type
REMARK                         _______ _______ _______ _____ _____    ______ ____
ROOT
ATOM      1  C   UNL     1      -3.136  25.884  12.911  0.00  0.00    +0.000 C 
ATOM      2  C   UNL     1      -1.617  26.030  13.341  0.00  0.00    +0.000 C 
ATOM      3  C   UNL     1      -1.169  26.302  14.781  0.00  0.00    +0.000 C 
ATOM      4  C   UNL     1      -3.450  26.623  11.463  0.00  0.00    +0.000 C 
ATOM      5  C   UNL     1      -2.104  27.185  15.658  0.00  0.00    +0.000 C 
ATOM      6  C   UNL     1      -3.908  26.497  13.998  0.00  0.00    +0.000 C 
ATOM      7  C   UNL     1      -3.476  27.114  15.285  0.00  0.00    +0.000 C 
ATOM      8  C   UNL     1      -2.367  26.220  10.321  0.00  0.00    +0.000 C 
ATOM      9  C   UNL     1      -1.581  28.241  16.646  0.00  0.00    +0.000 C 
ATOM     10  C   UNL     1      -2.700  25.920   8.911  0.00  0.00    +0.000 C 
ATOM     11  C   UNL     1      -0.728  25.963  12.221  0.00  0.00    +0.000 C 
ATOM     12  C   UNL     1       0.114  26.996  14.777  0.00  0.00    +0.000 C 
ATOM     13  C   UNL     1      -4.741  26.229  10.869  0.00  0.00    +0.000 C 
ATOM     14  C   UNL     1      -4.139  25.259   8.446  0.00  0.00    +0.000 C 
ATOM     15  C   UNL     1      -3.441  24.332  12.841  0.00  0.00    +0.000 C 
ATOM     16  C   UNL     1      -5.062  25.648   9.511  0.00  0.00    +0.000 C 
ATOM     17  C   UNL     1      -0.049  28.485  16.715  0.00  0.00    +0.000 C 
ATOM     18  C   UNL     1      -1.165  26.039  10.786  0.00  0.00    +0.000 C 
ATOM     19  C   UNL     1      -1.027  24.933  15.494  0.00  0.00    +0.000 C 
ATOM     20  C   UNL     1       0.747  28.028  15.650  0.00  0.00    +0.000 C 
ATOM     21  C   UNL     1      -3.372  28.208  11.568  0.00  0.00    +0.000 C 
ATOM     22  C   UNL     1      -2.015  26.682   7.866  0.00  0.00    +0.000 C 
ATOM     23  C   UNL     1      -4.399  25.863   7.111  0.00  0.00    +0.000 C 
ATOM     24  C   UNL     1      -2.146  27.267   6.479  0.00  0.00    +0.000 C 
ATOM     25  C   UNL     1      -2.071  27.870  18.084  0.00  0.00    +0.000 C 
ATOM     26  C   UNL     1      -3.522  26.751   6.191  0.00  0.00    +0.000 C 
ATOM     27  C   UNL     1      -2.107  28.806   6.518  0.00  0.00    +0.000 C 
ATOM     28  C   UNL     1      -1.098  26.678   5.518  0.00  0.00    +0.000 C 
ENDROOT
BRANCH  17  29
ATOM     29  O   UNL     1       0.565  28.852  17.900  0.00  0.00    +0.000 OA
ATOM     30  H   UNL     1       0.113  28.445  18.668  0.00  0.00    +0.000 HD
ENDBRANCH  17  29
BRANCH  14  32
ATOM     31  O   UNL     1      -3.496  23.006   9.205  0.00  0.00    +0.000 OA
ATOM     32  C   UNL     1      -3.936  23.743   8.333  0.00  0.00    +0.000 C 
BRANCH  32  33
ATOM     33  O   UNL     1      -4.222  23.232   7.115  0.00  0.00    +0.000 OA
ATOM     34  H   UNL     1      -4.091  22.264   7.207  0.00  0.00    +0.000 HD
ENDBRANCH  32  33
ENDBRANCH  14  32
BRANCH   9  35
ATOM     35  C   UNL     1      -2.167  29.561  16.250  0.00  0.00    +0.000 C 
BRANCH  35  36
ATOM     36  O   UNL     1      -2.680  30.745  15.906  0.00  0.00    +0.000 OA
ATOM     37  H   UNL     1      -2.797  30.809  14.940  0.00  0.00    +0.000 HD
ENDBRANCH  35  36
ENDBRANCH   9  35
TORSDOF 5
ENDMDL
