MODEL 1
REMARK VINA RESULT:      -6.9      0.000      0.000
REMARK  Name = 73659_MaslinicAcid.pdbqt.pdb
REMARK  4 active torsions:
REMARK  status: ('A' for Active; 'I' for Inactive)
REMARK    1  A    between atoms: C_14  and  C_35
REMARK    2  A    between atoms: C_17  and  O_30
REMARK    3  A    between atoms: C_19  and  O_32
REMARK    4  A    between atoms: C_35  and  O_36
REMARK                            x       y       z     vdW  Elec       q    Type
REMARK                         _______ _______ _______ _____ _____    ______ ____
ROOT
ATOM      1  C   UNL     1      24.604  16.258  25.937  0.00  0.00    +0.000 C 
ATOM      2  C   UNL     1      23.120  16.529  26.435  0.00  0.00    +0.000 C 
ATOM      3  C   UNL     1      22.608  17.912  26.849  0.00  0.00    +0.000 C 
ATOM      4  C   UNL     1      25.213  14.837  26.527  0.00  0.00    +0.000 C 
ATOM      5  C   UNL     1      23.613  18.869  27.498  0.00  0.00    +0.000 C 
ATOM      6  C   UNL     1      25.382  17.410  26.408  0.00  0.00    +0.000 C 
ATOM      7  C   UNL     1      24.969  18.646  27.136  0.00  0.00    +0.000 C 
ATOM      8  C   UNL     1      24.182  13.598  26.323  0.00  0.00    +0.000 C 
ATOM      9  C   UNL     1      23.149  19.856  28.559  0.00  0.00    +0.000 C 
ATOM     10  C   UNL     1      24.567  12.242  25.875  0.00  0.00    +0.000 C 
ATOM     11  C   UNL     1      22.351  15.326  26.522  0.00  0.00    +0.000 C 
ATOM     12  C   UNL     1      21.561  17.773  27.849  0.00  0.00    +0.000 C 
ATOM     13  C   UNL     1      26.434  14.389  25.833  0.00  0.00    +0.000 C 
ATOM     14  C   UNL     1      25.856  11.952  24.885  0.00  0.00    +0.000 C 
ATOM     15  C   UNL     1      24.556  16.254  24.355  0.00  0.00    +0.000 C 
ATOM     16  C   UNL     1      26.742  13.091  25.123  0.00  0.00    +0.000 C 
ATOM     17  C   UNL     1      21.791  19.607  29.262  0.00  0.00    +0.000 C 
ATOM     18  C   UNL     1      22.050  18.603  25.582  0.00  0.00    +0.000 C 
ATOM     19  C   UNL     1      21.056  18.422  28.970  0.00  0.00    +0.000 C 
ATOM     20  C   UNL     1      22.930  13.942  26.436  0.00  0.00    +0.000 C 
ATOM     21  C   UNL     1      25.477  14.904  28.092  0.00  0.00    +0.000 C 
ATOM     22  C   UNL     1      24.170  11.105  26.705  0.00  0.00    +0.000 C 
ATOM     23  C   UNL     1      26.365  10.628  25.334  0.00  0.00    +0.000 C 
ATOM     24  C   UNL     1      24.553   9.714  27.159  0.00  0.00    +0.000 C 
ATOM     25  C   UNL     1      24.193  19.855  29.730  0.00  0.00    +0.000 C 
ATOM     26  C   UNL     1      23.100  21.285  27.946  0.00  0.00    +0.000 C 
ATOM     27  C   UNL     1      25.799   9.589  26.335  0.00  0.00    +0.000 C 
ATOM     28  C   UNL     1      23.490   8.677  26.756  0.00  0.00    +0.000 C 
ATOM     29  C   UNL     1      24.860   9.687  28.668  0.00  0.00    +0.000 C 
ENDROOT
BRANCH  17  30
ATOM     30  O   UNL     1      21.215  20.497  30.166  0.00  0.00    +0.000 OA
ATOM     31  H   UNL     1      21.875  21.140  30.498  0.00  0.00    +0.000 HD
ENDBRANCH  17  30
BRANCH  19  32
ATOM     32  O   UNL     1      19.783  18.261  29.425  0.00  0.00    +0.000 OA
ATOM     33  H   UNL     1      19.767  17.724  30.241  0.00  0.00    +0.000 HD
ENDBRANCH  19  32
BRANCH  14  35
ATOM     34  O   UNL     1      24.335  11.275  23.068  0.00  0.00    +0.000 OA
ATOM     35  C   UNL     1      25.329  11.880  23.447  0.00  0.00    +0.000 C 
BRANCH  35  36
ATOM     36  O   UNL     1      26.110  12.507  22.538  0.00  0.00    +0.000 OA
ATOM     37  H   UNL     1      25.504  13.111  22.055  0.00  0.00    +0.000 HD
ENDBRANCH  35  36
ENDBRANCH  14  35
TORSDOF 4
ENDMDL
MODEL 2
REMARK VINA RESULT:      -6.7      6.049      9.862
REMARK  Name = 73659_MaslinicAcid.pdbqt.pdb
REMARK  4 active torsions:
REMARK  status: ('A' for Active; 'I' for Inactive)
REMARK    1  A    between atoms: C_14  and  C_35
REMARK    2  A    between atoms: C_17  and  O_30
REMARK    3  A    between atoms: C_19  and  O_32
REMARK    4  A    between atoms: C_35  and  O_36
REMARK                            x       y       z     vdW  Elec       q    Type
REMARK                         _______ _______ _______ _____ _____    ______ ____
ROOT
ATOM      1  C   UNL     1      29.023  10.532  22.355  0.00  0.00    +0.000 C 
ATOM      2  C   UNL     1      27.751  11.398  22.752  0.00  0.00    +0.000 C 
ATOM      3  C   UNL     1      26.915  11.141  24.009  0.00  0.00    +0.000 C 
ATOM      4  C   UNL     1      29.097  10.238  20.728  0.00  0.00    +0.000 C 
ATOM      5  C   UNL     1      26.795   9.691  24.491  0.00  0.00    +0.000 C 
ATOM      6  C   UNL     1      28.892   9.287  23.119  0.00  0.00    +0.000 C 
ATOM      7  C   UNL     1      27.877   8.848  24.122  0.00  0.00    +0.000 C 
ATOM      8  C   UNL     1      28.883  11.589  19.851  0.00  0.00    +0.000 C 
ATOM      9  C   UNL     1      25.518   9.217  25.169  0.00  0.00    +0.000 C 
ATOM     10  C   UNL     1      29.671  11.954  18.654  0.00  0.00    +0.000 C 
ATOM     11  C   UNL     1      27.438  12.383  21.763  0.00  0.00    +0.000 C 
ATOM     12  C   UNL     1      25.538  11.549  23.780  0.00  0.00    +0.000 C 
ATOM     13  C   UNL     1      30.411   9.740  20.281  0.00  0.00    +0.000 C 
ATOM     14  C   UNL     1      31.241  11.492  18.433  0.00  0.00    +0.000 C 
ATOM     15  C   UNL     1      30.290  11.338  22.855  0.00  0.00    +0.000 C 
ATOM     16  C   UNL     1      31.363  10.276  19.236  0.00  0.00    +0.000 C 
ATOM     17  C   UNL     1      24.227  10.058  24.994  0.00  0.00    +0.000 C 
ATOM     18  C   UNL     1      27.535  11.969  25.159  0.00  0.00    +0.000 C 
ATOM     19  C   UNL     1      24.241  11.193  24.134  0.00  0.00    +0.000 C 
ATOM     20  C   UNL     1      28.043  12.428  20.389  0.00  0.00    +0.000 C 
ATOM     21  C   UNL     1      27.954   9.244  20.247  0.00  0.00    +0.000 C 
ATOM     22  C   UNL     1      28.948  12.259  17.420  0.00  0.00    +0.000 C 
ATOM     23  C   UNL     1      31.360  11.313  16.961  0.00  0.00    +0.000 C 
ATOM     24  C   UNL     1      29.003  12.202  15.910  0.00  0.00    +0.000 C 
ATOM     25  C   UNL     1      25.140   7.809  24.591  0.00  0.00    +0.000 C 
ATOM     26  C   UNL     1      25.772   9.069  26.697  0.00  0.00    +0.000 C 
ATOM     27  C   UNL     1      30.387  11.638  15.798  0.00  0.00    +0.000 C 
ATOM     28  C   UNL     1      28.903  13.606  15.289  0.00  0.00    +0.000 C 
ATOM     29  C   UNL     1      27.944  11.234  15.351  0.00  0.00    +0.000 C 
ENDROOT
BRANCH  17  30
ATOM     30  O   UNL     1      23.032   9.783  25.655  0.00  0.00    +0.000 OA
ATOM     31  H   UNL     1      23.199   9.423  26.551  0.00  0.00    +0.000 HD
ENDBRANCH  17  30
BRANCH  19  32
ATOM     32  O   UNL     1      23.187  12.055  24.101  0.00  0.00    +0.000 OA
ATOM     33  H   UNL     1      22.349  11.592  24.293  0.00  0.00    +0.000 HD
ENDBRANCH  19  32
BRANCH  14  35
ATOM     34  O   UNL     1      32.242  13.030  20.077  0.00  0.00    +0.000 OA
ATOM     35  C   UNL     1      32.135  12.637  18.923  0.00  0.00    +0.000 C 
BRANCH  35  36
ATOM     36  O   UNL     1      32.797  13.285  17.938  0.00  0.00    +0.000 OA
ATOM     37  H   UNL     1      32.570  12.799  17.115  0.00  0.00    +0.000 HD
ENDBRANCH  35  36
ENDBRANCH  14  35
TORSDOF 4
ENDMDL
MODEL 3
REMARK VINA RESULT:      -6.4      3.416      9.828
REMARK  Name = 73659_MaslinicAcid.pdbqt.pdb
REMARK  4 active torsions:
REMARK  status: ('A' for Active; 'I' for Inactive)
REMARK    1  A    between atoms: C_14  and  C_35
REMARK    2  A    between atoms: C_17  and  O_30
REMARK    3  A    between atoms: C_19  and  O_32
REMARK    4  A    between atoms: C_35  and  O_36
REMARK                            x       y       z     vdW  Elec       q    Type
REMARK                         _______ _______ _______ _____ _____    ______ ____
ROOT
ATOM      1  C   UNL     1      25.934   9.418  24.770  0.00  0.00    +0.000 C 
ATOM      2  C   UNL     1      26.316   9.664  23.248  0.00  0.00    +0.000 C 
ATOM      3  C   UNL     1      27.180   8.701  22.428  0.00  0.00    +0.000 C 
ATOM      4  C   UNL     1      25.981  10.812  25.661  0.00  0.00    +0.000 C 
ATOM      5  C   UNL     1      28.271   7.925  23.174  0.00  0.00    +0.000 C 
ATOM      6  C   UNL     1      26.913   8.439  25.256  0.00  0.00    +0.000 C 
ATOM      7  C   UNL     1      28.016   7.717  24.556  0.00  0.00    +0.000 C 
ATOM      8  C   UNL     1      25.180  12.027  24.938  0.00  0.00    +0.000 C 
ATOM      9  C   UNL     1      29.572   7.572  22.469  0.00  0.00    +0.000 C 
ATOM     10  C   UNL     1      24.282  12.978  25.630  0.00  0.00    +0.000 C 
ATOM     11  C   UNL     1      25.826  10.919  22.764  0.00  0.00    +0.000 C 
ATOM     12  C   UNL     1      27.909   9.436  21.407  0.00  0.00    +0.000 C 
ATOM     13  C   UNL     1      25.319  10.693  26.972  0.00  0.00    +0.000 C 
ATOM     14  C   UNL     1      23.421  12.582  26.981  0.00  0.00    +0.000 C 
ATOM     15  C   UNL     1      24.487   8.778  24.774  0.00  0.00    +0.000 C 
ATOM     16  C   UNL     1      24.195  11.498  27.584  0.00  0.00    +0.000 C 
ATOM     17  C   UNL     1      29.950   8.343  21.178  0.00  0.00    +0.000 C 
ATOM     18  C   UNL     1      26.233   7.668  21.771  0.00  0.00    +0.000 C 
ATOM     19  C   UNL     1      29.126   9.417  20.735  0.00  0.00    +0.000 C 
ATOM     20  C   UNL     1      25.269  12.005  23.638  0.00  0.00    +0.000 C 
ATOM     21  C   UNL     1      27.464  11.348  25.854  0.00  0.00    +0.000 C 
ATOM     22  C   UNL     1      24.539  14.408  25.470  0.00  0.00    +0.000 C 
ATOM     23  C   UNL     1      23.366  13.850  27.758  0.00  0.00    +0.000 C 
ATOM     24  C   UNL     1      24.447  15.761  26.138  0.00  0.00    +0.000 C 
ATOM     25  C   UNL     1      30.763   7.858  23.449  0.00  0.00    +0.000 C 
ATOM     26  C   UNL     1      29.574   6.056  22.123  0.00  0.00    +0.000 C 
ATOM     27  C   UNL     1      23.797  15.297  27.406  0.00  0.00    +0.000 C 
ATOM     28  C   UNL     1      23.541  16.721  25.346  0.00  0.00    +0.000 C 
ATOM     29  C   UNL     1      25.846  16.350  26.395  0.00  0.00    +0.000 C 
ENDROOT
BRANCH  17  30
ATOM     30  O   UNL     1      31.056   8.032  20.390  0.00  0.00    +0.000 OA
ATOM     31  H   UNL     1      31.226   8.734  19.728  0.00  0.00    +0.000 HD
ENDBRANCH  17  30
BRANCH  19  32
ATOM     32  O   UNL     1      29.323   9.991  19.516  0.00  0.00    +0.000 OA
ATOM     33  H   UNL     1      28.962   9.430  18.802  0.00  0.00    +0.000 HD
ENDBRANCH  19  32
BRANCH  14  35
ATOM     34  O   UNL     1      21.082  12.895  26.269  0.00  0.00    +0.000 OA
ATOM     35  C   UNL     1      22.020  12.152  26.530  0.00  0.00    +0.000 C 
BRANCH  35  36
ATOM     36  O   UNL     1      21.834  10.813  26.496  0.00  0.00    +0.000 OA
ATOM     37  H   UNL     1      21.804  10.536  27.438  0.00  0.00    +0.000 HD
ENDBRANCH  35  36
ENDBRANCH  14  35
TORSDOF 4
ENDMDL
MODEL 4
REMARK VINA RESULT:      -6.3     22.148     24.564
REMARK  Name = 73659_MaslinicAcid.pdbqt.pdb
REMARK  4 active torsions:
REMARK  status: ('A' for Active; 'I' for Inactive)
REMARK    1  A    between atoms: C_14  and  C_35
REMARK    2  A    between atoms: C_17  and  O_30
REMARK    3  A    between atoms: C_19  and  O_32
REMARK    4  A    between atoms: C_35  and  O_36
REMARK                            x       y       z     vdW  Elec       q    Type
REMARK                         _______ _______ _______ _____ _____    ______ ____
ROOT
ATOM      1  C   UNL     1      -0.705  15.450  26.237  0.00  0.00    +0.000 C 
ATOM      2  C   UNL     1      -0.148  16.335  25.041  0.00  0.00    +0.000 C 
ATOM      3  C   UNL     1      -0.755  17.681  24.633  0.00  0.00    +0.000 C 
ATOM      4  C   UNL     1      -0.697  13.835  25.877  0.00  0.00    +0.000 C 
ATOM      5  C   UNL     1      -2.266  17.858  24.822  0.00  0.00    +0.000 C 
ATOM      6  C   UNL     1      -2.068  15.939  26.473  0.00  0.00    +0.000 C 
ATOM      7  C   UNL     1      -2.838  17.053  25.843  0.00  0.00    +0.000 C 
ATOM      8  C   UNL     1       0.730  13.350  25.269  0.00  0.00    +0.000 C 
ATOM      9  C   UNL     1      -3.058  18.725  23.854  0.00  0.00    +0.000 C 
ATOM     10  C   UNL     1       1.424  12.097  25.636  0.00  0.00    +0.000 C 
ATOM     11  C   UNL     1       0.927  15.693  24.348  0.00  0.00    +0.000 C 
ATOM     12  C   UNL     1      -0.551  17.905  23.211  0.00  0.00    +0.000 C 
ATOM     13  C   UNL     1      -0.881  12.970  27.057  0.00  0.00    +0.000 C 
ATOM     14  C   UNL     1       1.278  11.387  27.119  0.00  0.00    +0.000 C 
ATOM     15  C   UNL     1       0.204  15.767  27.493  0.00  0.00    +0.000 C 
ATOM     16  C   UNL     1      -0.021  11.854  27.603  0.00  0.00    +0.000 C 
ATOM     17  C   UNL     1      -2.429  19.070  22.480  0.00  0.00    +0.000 C 
ATOM     18  C   UNL     1      -0.046  18.782  25.456  0.00  0.00    +0.000 C 
ATOM     19  C   UNL     1      -1.176  18.497  22.118  0.00  0.00    +0.000 C 
ATOM     20  C   UNL     1       1.309  14.252  24.527  0.00  0.00    +0.000 C 
ATOM     21  C   UNL     1      -1.770  13.464  24.766  0.00  0.00    +0.000 C 
ATOM     22  C   UNL     1       1.811  11.184  24.561  0.00  0.00    +0.000 C 
ATOM     23  C   UNL     1       1.379   9.931  26.833  0.00  0.00    +0.000 C 
ATOM     24  C   UNL     1       2.026   9.734  24.190  0.00  0.00    +0.000 C 
ATOM     25  C   UNL     1      -4.388  17.977  23.491  0.00  0.00    +0.000 C 
ATOM     26  C   UNL     1      -3.423  20.068  24.549  0.00  0.00    +0.000 C 
ATOM     27  C   UNL     1       1.732   9.153  25.539  0.00  0.00    +0.000 C 
ATOM     28  C   UNL     1       3.480   9.473  23.756  0.00  0.00    +0.000 C 
ATOM     29  C   UNL     1       1.005   9.274  23.133  0.00  0.00    +0.000 C 
ENDROOT
BRANCH  17  30
ATOM     30  O   UNL     1      -3.011  19.941  21.563  0.00  0.00    +0.000 OA
ATOM     31  H   UNL     1      -2.335  20.331  20.969  0.00  0.00    +0.000 HD
ENDBRANCH  17  30
BRANCH  19  32
ATOM     32  O   UNL     1      -0.511  18.919  21.007  0.00  0.00    +0.000 OA
ATOM     33  H   UNL     1      -0.450  19.894  20.984  0.00  0.00    +0.000 HD
ENDBRANCH  19  32
BRANCH  14  35
ATOM     34  O   UNL     1       2.379  12.441  29.055  0.00  0.00    +0.000 OA
ATOM     35  C   UNL     1       2.455  11.862  27.979  0.00  0.00    +0.000 C 
BRANCH  35  36
ATOM     36  O   UNL     1       3.669  11.658  27.420  0.00  0.00    +0.000 OA
ATOM     37  H   UNL     1       3.583  10.815  26.924  0.00  0.00    +0.000 HD
ENDBRANCH  35  36
ENDBRANCH  14  35
TORSDOF 4
ENDMDL
MODEL 5
REMARK VINA RESULT:      -6.2     24.168     26.787
REMARK  Name = 73659_MaslinicAcid.pdbqt.pdb
REMARK  4 active torsions:
REMARK  status: ('A' for Active; 'I' for Inactive)
REMARK    1  A    between atoms: C_14  and  C_35
REMARK    2  A    between atoms: C_17  and  O_30
REMARK    3  A    between atoms: C_19  and  O_32
REMARK    4  A    between atoms: C_35  and  O_36
REMARK                            x       y       z     vdW  Elec       q    Type
REMARK                         _______ _______ _______ _____ _____    ______ ____
ROOT
ATOM      1  C   UNL     1      -1.315  12.566  21.450  0.00  0.00    +0.000 C 
ATOM      2  C   UNL     1      -0.311  11.774  22.393  0.00  0.00    +0.000 C 
ATOM      3  C   UNL     1      -0.106  10.258  22.322  0.00  0.00    +0.000 C 
ATOM      4  C   UNL     1      -2.126  13.759  22.260  0.00  0.00    +0.000 C 
ATOM      5  C   UNL     1      -1.313   9.402  21.921  0.00  0.00    +0.000 C 
ATOM      6  C   UNL     1      -2.236  11.549  20.930  0.00  0.00    +0.000 C 
ATOM      7  C   UNL     1      -2.278  10.069  21.120  0.00  0.00    +0.000 C 
ATOM      8  C   UNL     1      -1.127  14.691  23.139  0.00  0.00    +0.000 C 
ATOM      9  C   UNL     1      -1.482   8.005  22.501  0.00  0.00    +0.000 C 
ATOM     10  C   UNL     1      -1.207  16.165  23.232  0.00  0.00    +0.000 C 
ATOM     11  C   UNL     1       0.312  12.627  23.358  0.00  0.00    +0.000 C 
ATOM     12  C   UNL     1       0.266   9.747  23.631  0.00  0.00    +0.000 C 
ATOM     13  C   UNL     1      -2.801  14.720  21.368  0.00  0.00    +0.000 C 
ATOM     14  C   UNL     1      -1.786  17.114  22.011  0.00  0.00    +0.000 C 
ATOM     15  C   UNL     1      -0.447  13.159  20.266  0.00  0.00    +0.000 C 
ATOM     16  C   UNL     1      -2.679  16.223  21.270  0.00  0.00    +0.000 C 
ATOM     17  C   UNL     1      -0.687   7.629  23.777  0.00  0.00    +0.000 C 
ATOM     18  C   UNL     1       1.023   9.986  21.300  0.00  0.00    +0.000 C 
ATOM     19  C   UNL     1       0.104   8.619  24.428  0.00  0.00    +0.000 C 
ATOM     20  C   UNL     1      -0.122  14.036  23.648  0.00  0.00    +0.000 C 
ATOM     21  C   UNL     1      -3.170  13.169  23.303  0.00  0.00    +0.000 C 
ATOM     22  C   UNL     1      -1.290  16.768  24.561  0.00  0.00    +0.000 C 
ATOM     23  C   UNL     1      -2.441  18.248  22.716  0.00  0.00    +0.000 C 
ATOM     24  C   UNL     1      -1.839  17.929  25.358  0.00  0.00    +0.000 C 
ATOM     25  C   UNL     1      -2.983   7.816  22.913  0.00  0.00    +0.000 C 
ATOM     26  C   UNL     1      -1.135   6.951  21.410  0.00  0.00    +0.000 C 
ATOM     27  C   UNL     1      -2.469  18.658  24.211  0.00  0.00    +0.000 C 
ATOM     28  C   UNL     1      -0.710  18.749  26.009  0.00  0.00    +0.000 C 
ATOM     29  C   UNL     1      -2.887  17.456  26.381  0.00  0.00    +0.000 C 
ENDROOT
BRANCH  17  30
ATOM     30  O   UNL     1      -0.677   6.351  24.331  0.00  0.00    +0.000 OA
ATOM     31  H   UNL     1       0.237   6.007  24.407  0.00  0.00    +0.000 HD
ENDBRANCH  17  30
BRANCH  19  32
ATOM     32  O   UNL     1       0.954   8.279  25.436  0.00  0.00    +0.000 OA
ATOM     33  H   UNL     1       1.617   8.981  25.588  0.00  0.00    +0.000 HD
ENDBRANCH  19  32
BRANCH  14  35
ATOM     34  O   UNL     1       0.587  17.576  21.538  0.00  0.00    +0.000 OA
ATOM     35  C   UNL     1      -0.586  17.595  21.188  0.00  0.00    +0.000 C 
BRANCH  35  36
ATOM     36  O   UNL     1      -0.913  18.146  19.998  0.00  0.00    +0.000 OA
ATOM     37  H   UNL     1      -1.415  18.960  20.223  0.00  0.00    +0.000 HD
ENDBRANCH  35  36
ENDBRANCH  14  35
TORSDOF 4
ENDMDL
MODEL 6
REMARK VINA RESULT:      -6.2      7.036     11.035
REMARK  Name = 73659_MaslinicAcid.pdbqt.pdb
REMARK  4 active torsions:
REMARK  status: ('A' for Active; 'I' for Inactive)
REMARK    1  A    between atoms: C_14  and  C_35
REMARK    2  A    between atoms: C_17  and  O_30
REMARK    3  A    between atoms: C_19  and  O_32
REMARK    4  A    between atoms: C_35  and  O_36
REMARK                            x       y       z     vdW  Elec       q    Type
REMARK                         _______ _______ _______ _____ _____    ______ ____
ROOT
ATOM      1  C   UNL     1      29.912  11.377  20.790  0.00  0.00    +0.000 C 
ATOM      2  C   UNL     1      28.634  11.908  21.570  0.00  0.00    +0.000 C 
ATOM      3  C   UNL     1      27.961  11.138  22.710  0.00  0.00    +0.000 C 
ATOM      4  C   UNL     1      29.828  11.686  19.167  0.00  0.00    +0.000 C 
ATOM      5  C   UNL     1      27.996   9.607  22.643  0.00  0.00    +0.000 C 
ATOM      6  C   UNL     1      29.953   9.935  21.059  0.00  0.00    +0.000 C 
ATOM      7  C   UNL     1      29.087   9.067  21.911  0.00  0.00    +0.000 C 
ATOM      8  C   UNL     1      29.425  13.229  18.857  0.00  0.00    +0.000 C 
ATOM      9  C   UNL     1      26.837   8.794  23.200  0.00  0.00    +0.000 C 
ATOM     10  C   UNL     1      30.050  14.074  17.816  0.00  0.00    +0.000 C 
ATOM     11  C   UNL     1      28.147  13.141  21.033  0.00  0.00    +0.000 C 
ATOM     12  C   UNL     1      26.542  11.454  22.751  0.00  0.00    +0.000 C 
ATOM     13  C   UNL     1      31.116  11.518  18.470  0.00  0.00    +0.000 C 
ATOM     14  C   UNL     1      31.614  13.887  17.322  0.00  0.00    +0.000 C 
ATOM     15  C   UNL     1      31.167  12.082  21.448  0.00  0.00    +0.000 C 
ATOM     16  C   UNL     1      31.908  12.485  17.619  0.00  0.00    +0.000 C 
ATOM     17  C   UNL     1      25.480   9.502  23.441  0.00  0.00    +0.000 C 
ATOM     18  C   UNL     1      28.644  11.566  24.030  0.00  0.00    +0.000 C 
ATOM     19  C   UNL     1      25.320  10.863  23.052  0.00  0.00    +0.000 C 
ATOM     20  C   UNL     1      28.593  13.731  19.725  0.00  0.00    +0.000 C 
ATOM     21  C   UNL     1      28.711  10.813  18.449  0.00  0.00    +0.000 C 
ATOM     22  C   UNL     1      29.177  14.718  16.836  0.00  0.00    +0.000 C 
ATOM     23  C   UNL     1      31.583  14.253  15.881  0.00  0.00    +0.000 C 
ATOM     24  C   UNL     1      29.070  15.204  15.408  0.00  0.00    +0.000 C 
ATOM     25  C   UNL     1      26.497   7.649  22.182  0.00  0.00    +0.000 C 
ATOM     26  C   UNL     1      27.267   8.143  24.546  0.00  0.00    +0.000 C 
ATOM     27  C   UNL     1      30.469  14.864  14.993  0.00  0.00    +0.000 C 
ATOM     28  C   UNL     1      28.804  16.719  15.347  0.00  0.00    +0.000 C 
ATOM     29  C   UNL     1      28.026  14.391  14.621  0.00  0.00    +0.000 C 
ENDROOT
BRANCH  17  30
ATOM     30  O   UNL     1      24.386   8.889  24.048  0.00  0.00    +0.000 OA
ATOM     31  H   UNL     1      24.620   8.552  24.938  0.00  0.00    +0.000 HD
ENDBRANCH  17  30
BRANCH  19  32
ATOM     32  O   UNL     1      24.211  11.566  23.414  0.00  0.00    +0.000 OA
ATOM     33  H   UNL     1      23.399  11.133  23.088  0.00  0.00    +0.000 HD
ENDBRANCH  19  32
BRANCH  14  35
ATOM     34  O   UNL     1      32.959  14.677  19.230  0.00  0.00    +0.000 OA
ATOM     35  C   UNL     1      32.475  14.871  18.123  0.00  0.00    +0.000 C 
BRANCH  35  36
ATOM     36  O   UNL     1      32.629  16.079  17.535  0.00  0.00    +0.000 OA
ATOM     37  H   UNL     1      32.330  16.730  18.207  0.00  0.00    +0.000 HD
ENDBRANCH  35  36
ENDBRANCH  14  35
TORSDOF 4
ENDMDL
MODEL 7
REMARK VINA RESULT:      -6.1     24.044     26.118
REMARK  Name = 73659_MaslinicAcid.pdbqt.pdb
REMARK  4 active torsions:
REMARK  status: ('A' for Active; 'I' for Inactive)
REMARK    1  A    between atoms: C_14  and  C_35
REMARK    2  A    between atoms: C_17  and  O_30
REMARK    3  A    between atoms: C_19  and  O_32
REMARK    4  A    between atoms: C_35  and  O_36
REMARK                            x       y       z     vdW  Elec       q    Type
REMARK                         _______ _______ _______ _____ _____    ______ ____
ROOT
ATOM      1  C   UNL     1      20.281  32.401   9.301  0.00  0.00    +0.000 C 
ATOM      2  C   UNL     1      19.939  33.875   8.816  0.00  0.00    +0.000 C 
ATOM      3  C   UNL     1      19.524  35.001   9.768  0.00  0.00    +0.000 C 
ATOM      4  C   UNL     1      19.690  31.250   8.270  0.00  0.00    +0.000 C 
ATOM      5  C   UNL     1      18.728  34.609  11.019  0.00  0.00    +0.000 C 
ATOM      6  C   UNL     1      19.680  32.287  10.634  0.00  0.00    +0.000 C 
ATOM      7  C   UNL     1      18.949  33.281  11.474  0.00  0.00    +0.000 C 
ATOM      8  C   UNL     1      20.058  31.568   6.720  0.00  0.00    +0.000 C 
ATOM      9  C   UNL     1      17.684  35.559  11.585  0.00  0.00    +0.000 C 
ATOM     10  C   UNL     1      20.518  30.563   5.737  0.00  0.00    +0.000 C 
ATOM     11  C   UNL     1      19.987  34.001   7.392  0.00  0.00    +0.000 C 
ATOM     12  C   UNL     1      18.652  35.937   9.077  0.00  0.00    +0.000 C 
ATOM     13  C   UNL     1      20.264  29.911   8.495  0.00  0.00    +0.000 C 
ATOM     14  C   UNL     1      21.373  29.215   6.158  0.00  0.00    +0.000 C 
ATOM     15  C   UNL     1      21.858  32.320   9.415  0.00  0.00    +0.000 C 
ATOM     16  C   UNL     1      20.991  28.981   7.550  0.00  0.00    +0.000 C 
ATOM     17  C   UNL     1      17.145  36.696  10.680  0.00  0.00    +0.000 C 
ATOM     18  C   UNL     1      20.814  35.716  10.236  0.00  0.00    +0.000 C 
ATOM     19  C   UNL     1      17.565  36.770   9.321  0.00  0.00    +0.000 C 
ATOM     20  C   UNL     1      20.068  32.841   6.441  0.00  0.00    +0.000 C 
ATOM     21  C   UNL     1      18.103  31.168   8.312  0.00  0.00    +0.000 C 
ATOM     22  C   UNL     1      19.787  30.449   4.476  0.00  0.00    +0.000 C 
ATOM     23  C   UNL     1      20.927  28.186   5.181  0.00  0.00    +0.000 C 
ATOM     24  C   UNL     1      19.353  29.501   3.381  0.00  0.00    +0.000 C 
ATOM     25  C   UNL     1      16.406  34.728  11.958  0.00  0.00    +0.000 C 
ATOM     26  C   UNL     1      18.237  36.218  12.880  0.00  0.00    +0.000 C 
ATOM     27  C   UNL     1      20.039  28.280   3.913  0.00  0.00    +0.000 C 
ATOM     28  C   UNL     1      19.914  29.925   2.012  0.00  0.00    +0.000 C 
ATOM     29  C   UNL     1      17.822  29.334   3.364  0.00  0.00    +0.000 C 
ENDROOT
BRANCH  17  30
ATOM     30  O   UNL     1      16.273  37.687  11.124  0.00  0.00    +0.000 OA
ATOM     31  H   UNL     1      15.342  37.454  10.926  0.00  0.00    +0.000 HD
ENDBRANCH  17  30
BRANCH  19  32
ATOM     32  O   UNL     1      17.260  37.854   8.555  0.00  0.00    +0.000 OA
ATOM     33  H   UNL     1      16.526  38.366   8.947  0.00  0.00    +0.000 HD
ENDBRANCH  19  32
BRANCH  14  35
ATOM     34  O   UNL     1      23.424  29.808   4.929  0.00  0.00    +0.000 OA
ATOM     35  C   UNL     1      22.862  29.535   5.981  0.00  0.00    +0.000 C 
BRANCH  35  36
ATOM     36  O   UNL     1      23.591  29.428   7.114  0.00  0.00    +0.000 OA
ATOM     37  H   UNL     1      24.283  30.121   7.039  0.00  0.00    +0.000 HD
ENDBRANCH  35  36
ENDBRANCH  14  35
TORSDOF 4
ENDMDL
MODEL 8
REMARK VINA RESULT:      -6.0     19.198     22.325
REMARK  Name = 73659_MaslinicAcid.pdbqt.pdb
REMARK  4 active torsions:
REMARK  status: ('A' for Active; 'I' for Inactive)
REMARK    1  A    between atoms: C_14  and  C_35
REMARK    2  A    between atoms: C_17  and  O_30
REMARK    3  A    between atoms: C_19  and  O_32
REMARK    4  A    between atoms: C_35  and  O_36
REMARK                            x       y       z     vdW  Elec       q    Type
REMARK                         _______ _______ _______ _____ _____    ______ ____
ROOT
ATOM      1  C   UNL     1      17.539  -3.701  16.468  0.00  0.00    +0.000 C 
ATOM      2  C   UNL     1      18.306  -2.325  16.667  0.00  0.00    +0.000 C 
ATOM      3  C   UNL     1      19.547  -1.926  15.862  0.00  0.00    +0.000 C 
ATOM      4  C   UNL     1      17.043  -4.356  17.905  0.00  0.00    +0.000 C 
ATOM      5  C   UNL     1      20.491  -3.050  15.421  0.00  0.00    +0.000 C 
ATOM      6  C   UNL     1      18.495  -4.577  15.782  0.00  0.00    +0.000 C 
ATOM      7  C   UNL     1      19.876  -4.323  15.275  0.00  0.00    +0.000 C 
ATOM      8  C   UNL     1      16.278  -3.271  18.840  0.00  0.00    +0.000 C 
ATOM      9  C   UNL     1      21.986  -2.792  15.317  0.00  0.00    +0.000 C 
ATOM     10  C   UNL     1      15.046  -3.540  19.614  0.00  0.00    +0.000 C 
ATOM     11  C   UNL     1      17.752  -1.546  17.732  0.00  0.00    +0.000 C 
ATOM     12  C   UNL     1      20.393  -1.051  16.657  0.00  0.00    +0.000 C 
ATOM     13  C   UNL     1      16.053  -5.437  17.746  0.00  0.00    +0.000 C 
ATOM     14  C   UNL     1      13.911  -4.643  19.147  0.00  0.00    +0.000 C 
ATOM     15  C   UNL     1      16.310  -3.399  15.517  0.00  0.00    +0.000 C 
ATOM     16  C   UNL     1      14.663  -5.589  18.321  0.00  0.00    +0.000 C 
ATOM     17  C   UNL     1      22.579  -1.558  16.043  0.00  0.00    +0.000 C 
ATOM     18  C   UNL     1      19.062  -1.192  14.590  0.00  0.00    +0.000 C 
ATOM     19  C   UNL     1      21.736  -0.752  16.861  0.00  0.00    +0.000 C 
ATOM     20  C   UNL     1      16.757  -2.064  18.731  0.00  0.00    +0.000 C 
ATOM     21  C   UNL     1      18.265  -4.871  18.780  0.00  0.00    +0.000 C 
ATOM     22  C   UNL     1      15.057  -3.249  21.047  0.00  0.00    +0.000 C 
ATOM     23  C   UNL     1      13.381  -5.180  20.428  0.00  0.00    +0.000 C 
ATOM     24  C   UNL     1      14.507  -3.661  22.395  0.00  0.00    +0.000 C 
ATOM     25  C   UNL     1      22.747  -4.010  15.948  0.00  0.00    +0.000 C 
ATOM     26  C   UNL     1      22.387  -2.686  13.817  0.00  0.00    +0.000 C 
ATOM     27  C   UNL     1      13.608  -4.753  21.901  0.00  0.00    +0.000 C 
ATOM     28  C   UNL     1      13.714  -2.517  23.053  0.00  0.00    +0.000 C 
ATOM     29  C   UNL     1      15.622  -4.205  23.307  0.00  0.00    +0.000 C 
ENDROOT
BRANCH  17  30
ATOM     30  O   UNL     1      23.909  -1.160  15.929  0.00  0.00    +0.000 OA
ATOM     31  H   UNL     1      24.071  -0.711  15.073  0.00  0.00    +0.000 HD
ENDBRANCH  17  30
BRANCH  19  32
ATOM     32  O   UNL     1      22.176   0.435  17.360  0.00  0.00    +0.000 OA
ATOM     33  H   UNL     1      23.152   0.459  17.402  0.00  0.00    +0.000 HD
ENDBRANCH  19  32
BRANCH  14  35
ATOM     34  O   UNL     1      12.841  -3.616  17.179  0.00  0.00    +0.000 OA
ATOM     35  C   UNL     1      12.823  -3.890  18.372  0.00  0.00    +0.000 C 
BRANCH  35  36
ATOM     36  O   UNL     1      11.800  -3.450  19.138  0.00  0.00    +0.000 OA
ATOM     37  H   UNL     1      12.198  -3.275  20.019  0.00  0.00    +0.000 HD
ENDBRANCH  35  36
ENDBRANCH  14  35
TORSDOF 4
ENDMDL
MODEL 9
REMARK VINA RESULT:      -5.9     29.254     32.102
REMARK  Name = 73659_MaslinicAcid.pdbqt.pdb
REMARK  4 active torsions:
REMARK  status: ('A' for Active; 'I' for Inactive)
REMARK    1  A    between atoms: C_14  and  C_35
REMARK    2  A    between atoms: C_17  and  O_30
REMARK    3  A    between atoms: C_19  and  O_32
REMARK    4  A    between atoms: C_35  and  O_36
REMARK                            x       y       z     vdW  Elec       q    Type
REMARK                         _______ _______ _______ _____ _____    ______ ____
ROOT
ATOM      1  C   UNL     1      -4.836  26.256  16.628  0.00  0.00    +0.000 C 
ATOM      2  C   UNL     1      -3.735  27.237  17.221  0.00  0.00    +0.000 C 
ATOM      3  C   UNL     1      -2.699  27.962  16.358  0.00  0.00    +0.000 C 
ATOM      4  C   UNL     1      -5.070  24.926  17.585  0.00  0.00    +0.000 C 
ATOM      5  C   UNL     1      -2.207  27.244  15.096  0.00  0.00    +0.000 C 
ATOM      6  C   UNL     1      -4.339  25.880  15.300  0.00  0.00    +0.000 C 
ATOM      7  C   UNL     1      -3.125  26.310  14.544  0.00  0.00    +0.000 C 
ATOM      8  C   UNL     1      -5.271  25.323  19.147  0.00  0.00    +0.000 C 
ATOM      9  C   UNL     1      -0.778  27.443  14.615  0.00  0.00    +0.000 C 
ATOM     10  C   UNL     1      -6.277  24.722  20.050  0.00  0.00    +0.000 C 
ATOM     11  C   UNL     1      -3.779  27.298  18.650  0.00  0.00    +0.000 C 
ATOM     12  C   UNL     1      -1.486  28.189  17.126  0.00  0.00    +0.000 C 
ATOM     13  C   UNL     1      -6.296  24.176  17.257  0.00  0.00    +0.000 C 
ATOM     14  C   UNL     1      -7.727  24.136  19.521  0.00  0.00    +0.000 C 
ATOM     15  C   UNL     1      -6.165  27.105  16.484  0.00  0.00    +0.000 C 
ATOM     16  C   UNL     1      -7.475  23.792  18.122  0.00  0.00    +0.000 C 
ATOM     17  C   UNL     1       0.267  28.015  15.606  0.00  0.00    +0.000 C 
ATOM     18  C   UNL     1      -3.316  29.311  15.920  0.00  0.00    +0.000 C 
ATOM     19  C   UNL     1      -0.107  28.253  16.959  0.00  0.00    +0.000 C 
ATOM     20  C   UNL     1      -4.563  26.354  19.515  0.00  0.00    +0.000 C 
ATOM     21  C   UNL     1      -3.819  23.947  17.562  0.00  0.00    +0.000 C 
ATOM     22  C   UNL     1      -5.813  24.146  21.311  0.00  0.00    +0.000 C 
ATOM     23  C   UNL     1      -8.007  22.993  20.430  0.00  0.00    +0.000 C 
ATOM     24  C   UNL     1      -6.062  23.069  22.343  0.00  0.00    +0.000 C 
ATOM     25  C   UNL     1      -0.192  26.047  14.204  0.00  0.00    +0.000 C 
ATOM     26  C   UNL     1      -0.781  28.362  13.360  0.00  0.00    +0.000 C 
ATOM     27  C   UNL     1      -7.296  22.496  21.715  0.00  0.00    +0.000 C 
ATOM     28  C   UNL     1      -6.350  23.673  23.729  0.00  0.00    +0.000 C 
ATOM     29  C   UNL     1      -4.909  22.050  22.373  0.00  0.00    +0.000 C 
ENDROOT
BRANCH  17  30
ATOM     30  O   UNL     1       1.573  28.342  15.247  0.00  0.00    +0.000 OA
ATOM     31  H   UNL     1       2.217  27.738  15.671  0.00  0.00    +0.000 HD
ENDBRANCH  17  30
BRANCH  19  32
ATOM     32  O   UNL     1       0.724  28.924  17.805  0.00  0.00    +0.000 OA
ATOM     33  H   UNL     1       1.541  29.204  17.346  0.00  0.00    +0.000 HD
ENDBRANCH  19  32
BRANCH  14  35
ATOM     34  O   UNL     1      -9.500  25.409  20.664  0.00  0.00    +0.000 OA
ATOM     35  C   UNL     1      -8.769  25.247  19.696  0.00  0.00    +0.000 C 
BRANCH  35  36
ATOM     36  O   UNL     1      -8.898  26.061  18.624  0.00  0.00    +0.000 OA
ATOM     37  H   UNL     1      -8.311  25.674  17.938  0.00  0.00    +0.000 HD
ENDBRANCH  35  36
ENDBRANCH  14  35
TORSDOF 4
ENDMDL
