MODEL 1
REMARK VINA RESULT:      -4.4      0.000      0.000
REMARK  Name = 76617_Cardol.pdbqt.pdb
REMARK  10 active torsions:
REMARK  status: ('A' for Active; 'I' for Inactive)
REMARK    1  A    between atoms: C_1  and  C_2
REMARK    2  A    between atoms: C_3  and  C_4
REMARK    3  A    between atoms: C_5  and  C_6
REMARK    4  A    between atoms: C_7  and  C_8
REMARK    5  A    between atoms: C_8  and  C_9
REMARK    6  A    between atoms: C_10  and  C_11
REMARK    7  A    between atoms: C_14  and  C_15
REMARK    8  A    between atoms: C_15  and  C_16
REMARK    9  A    between atoms: C_19  and  O_24
REMARK   10  A    between atoms: C_20  and  O_22
REMARK                            x       y       z     vdW  Elec       q    Type
REMARK                         _______ _______ _______ _____ _____    ______ ____
ROOT
ATOM      1  C   UNL     1      23.723  16.689  25.820  0.00  0.00    +0.000 C 
ATOM      2  C   UNL     1      23.756  15.490  25.763  0.00  0.00    +0.000 C 
ENDROOT
BRANCH   1   3
ATOM      3  C   UNL     1      23.681  18.218  25.890  0.00  0.00    +0.000 C 
ATOM      4  C   UNL     1      23.640  19.748  25.962  0.00  0.00    +0.000 C 
BRANCH   4   5
ATOM      5  C   UNL     1      23.599  21.277  26.031  0.00  0.00    +0.000 C 
ATOM      6  C   UNL     1      23.558  22.806  26.100  0.00  0.00    +0.000 C 
BRANCH   6   7
ATOM      7  C   UNL     1      23.516  24.336  26.169  0.00  0.00    +0.000 C 
ATOM      8  C   UNL     1      23.475  25.865  26.237  0.00  0.00    +0.000 C 
BRANCH   8   9
ATOM      9  C   UNL     1      23.435  27.395  26.305  0.00  0.00    +0.000 C 
BRANCH   9  10
ATOM     10  C   UNL     1      23.394  28.925  26.372  0.00  0.00    +0.000 C 
ATOM     11  C   UNL     1      23.354  30.454  26.437  0.00  0.00    +0.000 C 
BRANCH  11  12
ATOM     12  C   UNL     1      23.314  31.984  26.504  0.00  0.00    +0.000 C 
ATOM     13  C   UNL     1      23.274  33.513  26.570  0.00  0.00    +0.000 C 
ATOM     14  C   UNL     1      23.234  35.044  26.637  0.00  0.00    +0.000 C 
ENDBRANCH  11  12
ENDBRANCH   9  10
ENDBRANCH   8   9
ENDBRANCH   6   7
ENDBRANCH   4   5
ENDBRANCH   1   3
BRANCH   2  15
ATOM     15  C   UNL     1      23.799  13.960  25.693  0.00  0.00    +0.000 C 
BRANCH  15  16
ATOM     16  C   UNL     1      23.840  12.538  25.629  0.00  0.00    +0.000 A 
ATOM     17  C   UNL     1      23.995  11.794  26.797  0.00  0.00    +0.000 A 
ATOM     18  C   UNL     1      23.724  11.897  24.397  0.00  0.00    +0.000 A 
ATOM     19  C   UNL     1      23.764  10.506  24.344  0.00  0.00    +0.000 A 
ATOM     20  C   UNL     1      24.033  10.404  26.722  0.00  0.00    +0.000 A 
ATOM     21  C   UNL     1      23.919   9.749  25.501  0.00  0.00    +0.000 A 
BRANCH  20  22
ATOM     22  O   UNL     1      24.184   9.653  27.852  0.00  0.00    +0.000 OA
ATOM     23  H   UNL     1      23.303   9.476  28.224  0.00  0.00    +0.000 HD
ENDBRANCH  20  22
BRANCH  19  24
ATOM     24  O   UNL     1      23.654   9.852  23.150  0.00  0.00    +0.000 OA
ATOM     25  H   UNL     1      24.547   9.730  22.784  0.00  0.00    +0.000 HD
ENDBRANCH  19  24
ENDBRANCH  15  16
ENDBRANCH   2  15
TORSDOF 10
ENDMDL
MODEL 2
REMARK VINA RESULT:      -4.0      3.854      4.181
REMARK  Name = 76617_Cardol.pdbqt.pdb
REMARK  10 active torsions:
REMARK  status: ('A' for Active; 'I' for Inactive)
REMARK    1  A    between atoms: C_1  and  C_2
REMARK    2  A    between atoms: C_3  and  C_4
REMARK    3  A    between atoms: C_5  and  C_6
REMARK    4  A    between atoms: C_7  and  C_8
REMARK    5  A    between atoms: C_8  and  C_9
REMARK    6  A    between atoms: C_10  and  C_11
REMARK    7  A    between atoms: C_14  and  C_15
REMARK    8  A    between atoms: C_15  and  C_16
REMARK    9  A    between atoms: C_19  and  O_24
REMARK   10  A    between atoms: C_20  and  O_22
REMARK                            x       y       z     vdW  Elec       q    Type
REMARK                         _______ _______ _______ _____ _____    ______ ____
ROOT
ATOM      1  C   UNL     1      22.704  16.238  26.965  0.00  0.00    +0.000 C 
ATOM      2  C   UNL     1      22.913  15.131  26.553  0.00  0.00    +0.000 C 
ENDROOT
BRANCH   1   3
ATOM      3  C   UNL     1      22.438  17.652  27.490  0.00  0.00    +0.000 C 
ATOM      4  C   UNL     1      22.171  19.067  28.014  0.00  0.00    +0.000 C 
BRANCH   4   5
ATOM      5  C   UNL     1      21.904  20.481  28.537  0.00  0.00    +0.000 C 
ATOM      6  C   UNL     1      21.637  21.896  29.060  0.00  0.00    +0.000 C 
BRANCH   6   7
ATOM      7  C   UNL     1      21.371  23.311  29.583  0.00  0.00    +0.000 C 
ATOM      8  C   UNL     1      21.103  24.725  30.105  0.00  0.00    +0.000 C 
BRANCH   8   9
ATOM      9  C   UNL     1      20.836  26.140  30.627  0.00  0.00    +0.000 C 
BRANCH   9  10
ATOM     10  C   UNL     1      20.569  27.556  31.149  0.00  0.00    +0.000 C 
ATOM     11  C   UNL     1      20.303  28.971  31.669  0.00  0.00    +0.000 C 
BRANCH  11  12
ATOM     12  C   UNL     1      20.036  30.387  32.191  0.00  0.00    +0.000 C 
ATOM     13  C   UNL     1      19.771  31.802  32.712  0.00  0.00    +0.000 C 
ATOM     14  C   UNL     1      19.504  33.217  33.234  0.00  0.00    +0.000 C 
ENDBRANCH  11  12
ENDBRANCH   9  10
ENDBRANCH   8   9
ENDBRANCH   6   7
ENDBRANCH   4   5
ENDBRANCH   1   3
BRANCH   2  15
ATOM     15  C   UNL     1      23.180  13.716  26.029  0.00  0.00    +0.000 C 
BRANCH  15  16
ATOM     16  C   UNL     1      23.428  12.401  25.541  0.00  0.00    +0.000 A 
ATOM     17  C   UNL     1      23.977  12.224  24.272  0.00  0.00    +0.000 A 
ATOM     18  C   UNL     1      23.121  11.298  26.335  0.00  0.00    +0.000 A 
ATOM     19  C   UNL     1      23.367  10.016  25.849  0.00  0.00    +0.000 A 
ATOM     20  C   UNL     1      24.216  10.934  23.805  0.00  0.00    +0.000 A 
ATOM     21  C   UNL     1      23.915   9.822  24.584  0.00  0.00    +0.000 A 
BRANCH  20  22
ATOM     22  O   UNL     1      24.753  10.734  22.566  0.00  0.00    +0.000 OA
ATOM     23  H   UNL     1      24.569   9.818  22.295  0.00  0.00    +0.000 HD
ENDBRANCH  20  22
BRANCH  19  24
ATOM     24  O   UNL     1      23.075   8.918  26.606  0.00  0.00    +0.000 OA
ATOM     25  H   UNL     1      23.605   8.170  26.278  0.00  0.00    +0.000 HD
ENDBRANCH  19  24
ENDBRANCH  15  16
ENDBRANCH   2  15
TORSDOF 10
ENDMDL
MODEL 3
REMARK VINA RESULT:      -3.9     27.351     31.506
REMARK  Name = 76617_Cardol.pdbqt.pdb
REMARK  10 active torsions:
REMARK  status: ('A' for Active; 'I' for Inactive)
REMARK    1  A    between atoms: C_1  and  C_2
REMARK    2  A    between atoms: C_3  and  C_4
REMARK    3  A    between atoms: C_5  and  C_6
REMARK    4  A    between atoms: C_7  and  C_8
REMARK    5  A    between atoms: C_8  and  C_9
REMARK    6  A    between atoms: C_10  and  C_11
REMARK    7  A    between atoms: C_14  and  C_15
REMARK    8  A    between atoms: C_15  and  C_16
REMARK    9  A    between atoms: C_19  and  O_24
REMARK   10  A    between atoms: C_20  and  O_22
REMARK                            x       y       z     vdW  Elec       q    Type
REMARK                         _______ _______ _______ _____ _____    ______ ____
ROOT
ATOM      1  C   UNL     1       2.092  30.098  14.647  0.00  0.00    +0.000 C 
ATOM      2  C   UNL     1       2.756  31.089  14.775  0.00  0.00    +0.000 C 
ENDROOT
BRANCH   1   3
ATOM      3  C   UNL     1       1.245  28.832  14.484  0.00  0.00    +0.000 C 
ATOM      4  C   UNL     1       0.399  27.565  14.320  0.00  0.00    +0.000 C 
BRANCH   4   5
ATOM      5  C   UNL     1      -0.446  26.299  14.158  0.00  0.00    +0.000 C 
ATOM      6  C   UNL     1      -1.291  25.032  13.995  0.00  0.00    +0.000 C 
BRANCH   6   7
ATOM      7  C   UNL     1      -2.137  23.765  13.832  0.00  0.00    +0.000 C 
ATOM      8  C   UNL     1      -2.984  22.500  13.669  0.00  0.00    +0.000 C 
BRANCH   8   9
ATOM      9  C   UNL     1      -3.830  21.234  13.507  0.00  0.00    +0.000 C 
BRANCH   9  10
ATOM     10  C   UNL     1      -4.676  19.967  13.345  0.00  0.00    +0.000 C 
ATOM     11  C   UNL     1      -5.521  18.700  13.184  0.00  0.00    +0.000 C 
BRANCH  11  12
ATOM     12  C   UNL     1      -6.367  17.433  13.021  0.00  0.00    +0.000 C 
ATOM     13  C   UNL     1      -7.213  16.167  12.860  0.00  0.00    +0.000 C 
ATOM     14  C   UNL     1      -8.059  14.900  12.698  0.00  0.00    +0.000 C 
ENDBRANCH  11  12
ENDBRANCH   9  10
ENDBRANCH   8   9
ENDBRANCH   6   7
ENDBRANCH   4   5
ENDBRANCH   1   3
BRANCH   2  15
ATOM     15  C   UNL     1       3.602  32.356  14.937  0.00  0.00    +0.000 C 
BRANCH  15  16
ATOM     16  C   UNL     1       4.390  33.533  15.088  0.00  0.00    +0.000 A 
ATOM     17  C   UNL     1       5.550  33.498  15.859  0.00  0.00    +0.000 A 
ATOM     18  C   UNL     1       3.996  34.715  14.462  0.00  0.00    +0.000 A 
ATOM     19  C   UNL     1       4.773  35.861  14.616  0.00  0.00    +0.000 A 
ATOM     20  C   UNL     1       6.313  34.655  15.999  0.00  0.00    +0.000 A 
ATOM     21  C   UNL     1       5.934  35.842  15.382  0.00  0.00    +0.000 A 
BRANCH  20  22
ATOM     22  O   UNL     1       7.454  34.646  16.749  0.00  0.00    +0.000 OA
ATOM     23  H   UNL     1       7.340  35.268  17.489  0.00  0.00    +0.000 HD
ENDBRANCH  20  22
BRANCH  19  24
ATOM     24  O   UNL     1       4.410  37.032  14.015  0.00  0.00    +0.000 OA
ATOM     25  H   UNL     1       4.772  37.769  14.537  0.00  0.00    +0.000 HD
ENDBRANCH  19  24
ENDBRANCH  15  16
ENDBRANCH   2  15
TORSDOF 10
ENDMDL
MODEL 4
REMARK VINA RESULT:      -3.8      7.258     17.473
REMARK  Name = 76617_Cardol.pdbqt.pdb
REMARK  10 active torsions:
REMARK  status: ('A' for Active; 'I' for Inactive)
REMARK    1  A    between atoms: C_1  and  C_2
REMARK    2  A    between atoms: C_3  and  C_4
REMARK    3  A    between atoms: C_5  and  C_6
REMARK    4  A    between atoms: C_7  and  C_8
REMARK    5  A    between atoms: C_8  and  C_9
REMARK    6  A    between atoms: C_10  and  C_11
REMARK    7  A    between atoms: C_14  and  C_15
REMARK    8  A    between atoms: C_15  and  C_16
REMARK    9  A    between atoms: C_19  and  O_24
REMARK   10  A    between atoms: C_20  and  O_22
REMARK                            x       y       z     vdW  Elec       q    Type
REMARK                         _______ _______ _______ _____ _____    ______ ____
ROOT
ATOM      1  C   UNL     1      23.438  27.245  25.792  0.00  0.00    +0.000 C 
ATOM      2  C   UNL     1      23.426  28.444  25.769  0.00  0.00    +0.000 C 
ENDROOT
BRANCH   1   3
ATOM      3  C   UNL     1      23.453  25.714  25.822  0.00  0.00    +0.000 C 
ATOM      4  C   UNL     1      23.469  24.182  25.850  0.00  0.00    +0.000 C 
BRANCH   4   5
ATOM      5  C   UNL     1      23.486  22.651  25.880  0.00  0.00    +0.000 C 
ATOM      6  C   UNL     1      23.503  21.120  25.911  0.00  0.00    +0.000 C 
BRANCH   6   7
ATOM      7  C   UNL     1      23.520  19.588  25.942  0.00  0.00    +0.000 C 
ATOM      8  C   UNL     1      23.537  18.058  25.974  0.00  0.00    +0.000 C 
BRANCH   8   9
ATOM      9  C   UNL     1      23.554  16.527  26.005  0.00  0.00    +0.000 C 
BRANCH   9  10
ATOM     10  C   UNL     1      23.571  14.995  26.038  0.00  0.00    +0.000 C 
ATOM     11  C   UNL     1      23.588  13.464  26.072  0.00  0.00    +0.000 C 
BRANCH  11  12
ATOM     12  C   UNL     1      23.605  11.933  26.106  0.00  0.00    +0.000 C 
ATOM     13  C   UNL     1      23.622  10.402  26.140  0.00  0.00    +0.000 C 
ATOM     14  C   UNL     1      23.639   8.870  26.174  0.00  0.00    +0.000 C 
ENDBRANCH  11  12
ENDBRANCH   9  10
ENDBRANCH   8   9
ENDBRANCH   6   7
ENDBRANCH   4   5
ENDBRANCH   1   3
BRANCH   2  15
ATOM     15  C   UNL     1      23.412  29.976  25.740  0.00  0.00    +0.000 C 
BRANCH  15  16
ATOM     16  C   UNL     1      23.398  31.400  25.714  0.00  0.00    +0.000 A 
ATOM     17  C   UNL     1      23.389  32.072  24.493  0.00  0.00    +0.000 A 
ATOM     18  C   UNL     1      23.393  32.115  26.910  0.00  0.00    +0.000 A 
ATOM     19  C   UNL     1      23.379  33.508  26.874  0.00  0.00    +0.000 A 
ATOM     20  C   UNL     1      23.374  33.465  24.479  0.00  0.00    +0.000 A 
ATOM     21  C   UNL     1      23.370  34.193  25.663  0.00  0.00    +0.000 A 
BRANCH  20  22
ATOM     22  O   UNL     1      23.365  34.146  23.296  0.00  0.00    +0.000 OA
ATOM     23  H   UNL     1      22.588  33.863  22.784  0.00  0.00    +0.000 HD
ENDBRANCH  20  22
BRANCH  19  24
ATOM     24  O   UNL     1      23.374  34.233  28.031  0.00  0.00    +0.000 OA
ATOM     25  H   UNL     1      23.405  35.177  27.801  0.00  0.00    +0.000 HD
ENDBRANCH  19  24
ENDBRANCH  15  16
ENDBRANCH   2  15
TORSDOF 10
ENDMDL
MODEL 5
REMARK VINA RESULT:      -3.7      7.784     17.911
REMARK  Name = 76617_Cardol.pdbqt.pdb
REMARK  10 active torsions:
REMARK  status: ('A' for Active; 'I' for Inactive)
REMARK    1  A    between atoms: C_1  and  C_2
REMARK    2  A    between atoms: C_3  and  C_4
REMARK    3  A    between atoms: C_5  and  C_6
REMARK    4  A    between atoms: C_7  and  C_8
REMARK    5  A    between atoms: C_8  and  C_9
REMARK    6  A    between atoms: C_10  and  C_11
REMARK    7  A    between atoms: C_14  and  C_15
REMARK    8  A    between atoms: C_15  and  C_16
REMARK    9  A    between atoms: C_19  and  O_24
REMARK   10  A    between atoms: C_20  and  O_22
REMARK                            x       y       z     vdW  Elec       q    Type
REMARK                         _______ _______ _______ _____ _____    ______ ____
ROOT
ATOM      1  C   UNL     1      23.430  28.955  25.529  0.00  0.00    +0.000 C 
ATOM      2  C   UNL     1      23.449  30.154  25.469  0.00  0.00    +0.000 C 
ENDROOT
BRANCH   1   3
ATOM      3  C   UNL     1      23.405  27.426  25.605  0.00  0.00    +0.000 C 
ATOM      4  C   UNL     1      23.381  25.896  25.680  0.00  0.00    +0.000 C 
BRANCH   4   5
ATOM      5  C   UNL     1      23.358  24.367  25.757  0.00  0.00    +0.000 C 
ATOM      6  C   UNL     1      23.335  22.837  25.833  0.00  0.00    +0.000 C 
BRANCH   6   7
ATOM      7  C   UNL     1      23.313  21.307  25.910  0.00  0.00    +0.000 C 
ATOM      8  C   UNL     1      23.290  19.778  25.987  0.00  0.00    +0.000 C 
BRANCH   8   9
ATOM      9  C   UNL     1      23.266  18.249  26.064  0.00  0.00    +0.000 C 
BRANCH   9  10
ATOM     10  C   UNL     1      23.243  16.719  26.139  0.00  0.00    +0.000 C 
ATOM     11  C   UNL     1      23.220  15.190  26.213  0.00  0.00    +0.000 C 
BRANCH  11  12
ATOM     12  C   UNL     1      23.197  13.660  26.288  0.00  0.00    +0.000 C 
ATOM     13  C   UNL     1      23.172  12.130  26.362  0.00  0.00    +0.000 C 
ATOM     14  C   UNL     1      23.149  10.600  26.437  0.00  0.00    +0.000 C 
ENDBRANCH  11  12
ENDBRANCH   9  10
ENDBRANCH   8   9
ENDBRANCH   6   7
ENDBRANCH   4   5
ENDBRANCH   1   3
BRANCH   2  15
ATOM     15  C   UNL     1      23.475  31.684  25.394  0.00  0.00    +0.000 C 
BRANCH  15  16
ATOM     16  C   UNL     1      23.498  33.106  25.325  0.00  0.00    +0.000 A 
ATOM     17  C   UNL     1      23.615  33.857  26.493  0.00  0.00    +0.000 A 
ATOM     18  C   UNL     1      23.404  33.741  24.088  0.00  0.00    +0.000 A 
ATOM     19  C   UNL     1      23.428  35.132  24.030  0.00  0.00    +0.000 A 
ATOM     20  C   UNL     1      23.637  35.247  26.413  0.00  0.00    +0.000 A 
ATOM     21  C   UNL     1      23.544  35.896  25.187  0.00  0.00    +0.000 A 
BRANCH  20  22
ATOM     22  O   UNL     1      23.751  36.004  27.543  0.00  0.00    +0.000 OA
ATOM     23  H   UNL     1      23.218  36.810  27.429  0.00  0.00    +0.000 HD
ENDBRANCH  20  22
BRANCH  19  24
ATOM     24  O   UNL     1      23.336  35.779  22.831  0.00  0.00    +0.000 OA
ATOM     25  H   UNL     1      22.471  36.221  22.786  0.00  0.00    +0.000 HD
ENDBRANCH  19  24
ENDBRANCH  15  16
ENDBRANCH   2  15
TORSDOF 10
ENDMDL
MODEL 6
REMARK VINA RESULT:      -3.7     27.070     27.976
REMARK  Name = 76617_Cardol.pdbqt.pdb
REMARK  10 active torsions:
REMARK  status: ('A' for Active; 'I' for Inactive)
REMARK    1  A    between atoms: C_1  and  C_2
REMARK    2  A    between atoms: C_3  and  C_4
REMARK    3  A    between atoms: C_5  and  C_6
REMARK    4  A    between atoms: C_7  and  C_8
REMARK    5  A    between atoms: C_8  and  C_9
REMARK    6  A    between atoms: C_10  and  C_11
REMARK    7  A    between atoms: C_14  and  C_15
REMARK    8  A    between atoms: C_15  and  C_16
REMARK    9  A    between atoms: C_19  and  O_24
REMARK   10  A    between atoms: C_20  and  O_22
REMARK                            x       y       z     vdW  Elec       q    Type
REMARK                         _______ _______ _______ _____ _____    ______ ____
ROOT
ATOM      1  C   UNL     1      -1.864  24.039  13.966  0.00  0.00    +0.000 C 
ATOM      2  C   UNL     1      -2.514  23.036  13.864  0.00  0.00    +0.000 C 
ENDROOT
BRANCH   1   3
ATOM      3  C   UNL     1      -1.034  25.320  14.097  0.00  0.00    +0.000 C 
ATOM      4  C   UNL     1      -0.205  26.602  14.226  0.00  0.00    +0.000 C 
BRANCH   4   5
ATOM      5  C   UNL     1       0.623  27.884  14.356  0.00  0.00    +0.000 C 
ATOM      6  C   UNL     1       1.451  29.165  14.485  0.00  0.00    +0.000 C 
BRANCH   6   7
ATOM      7  C   UNL     1       2.280  30.447  14.614  0.00  0.00    +0.000 C 
ATOM      8  C   UNL     1       3.108  31.729  14.744  0.00  0.00    +0.000 C 
BRANCH   8   9
ATOM      9  C   UNL     1       3.936  33.010  14.874  0.00  0.00    +0.000 C 
BRANCH   9  10
ATOM     10  C   UNL     1       4.763  34.293  15.003  0.00  0.00    +0.000 C 
ATOM     11  C   UNL     1       5.589  35.576  15.131  0.00  0.00    +0.000 C 
BRANCH  11  12
ATOM     12  C   UNL     1       6.417  36.859  15.259  0.00  0.00    +0.000 C 
ATOM     13  C   UNL     1       7.244  38.141  15.387  0.00  0.00    +0.000 C 
ATOM     14  C   UNL     1       8.072  39.424  15.515  0.00  0.00    +0.000 C 
ENDBRANCH  11  12
ENDBRANCH   9  10
ENDBRANCH   8   9
ENDBRANCH   6   7
ENDBRANCH   4   5
ENDBRANCH   1   3
BRANCH   2  15
ATOM     15  C   UNL     1      -3.344  21.754  13.734  0.00  0.00    +0.000 C 
BRANCH  15  16
ATOM     16  C   UNL     1      -4.114  20.562  13.614  0.00  0.00    +0.000 A 
ATOM     17  C   UNL     1      -5.501  20.640  13.501  0.00  0.00    +0.000 A 
ATOM     18  C   UNL     1      -3.477  19.323  13.610  0.00  0.00    +0.000 A 
ATOM     19  C   UNL     1      -4.239  18.163  13.492  0.00  0.00    +0.000 A 
ATOM     20  C   UNL     1      -6.244  19.469  13.383  0.00  0.00    +0.000 A 
ATOM     21  C   UNL     1      -5.624  18.224  13.378  0.00  0.00    +0.000 A 
BRANCH  20  22
ATOM     22  O   UNL     1      -7.604  19.519  13.270  0.00  0.00    +0.000 OA
ATOM     23  H   UNL     1      -7.979  18.741  13.720  0.00  0.00    +0.000 HD
ENDBRANCH  20  22
BRANCH  19  24
ATOM     24  O   UNL     1      -3.639  16.936  13.486  0.00  0.00    +0.000 OA
ATOM     25  H   UNL     1      -2.677  17.065  13.546  0.00  0.00    +0.000 HD
ENDBRANCH  19  24
ENDBRANCH  15  16
ENDBRANCH   2  15
TORSDOF 10
ENDMDL
MODEL 7
REMARK VINA RESULT:      -3.7     28.013     29.243
REMARK  Name = 76617_Cardol.pdbqt.pdb
REMARK  10 active torsions:
REMARK  status: ('A' for Active; 'I' for Inactive)
REMARK    1  A    between atoms: C_1  and  C_2
REMARK    2  A    between atoms: C_3  and  C_4
REMARK    3  A    between atoms: C_5  and  C_6
REMARK    4  A    between atoms: C_7  and  C_8
REMARK    5  A    between atoms: C_8  and  C_9
REMARK    6  A    between atoms: C_10  and  C_11
REMARK    7  A    between atoms: C_14  and  C_15
REMARK    8  A    between atoms: C_15  and  C_16
REMARK    9  A    between atoms: C_19  and  O_24
REMARK   10  A    between atoms: C_20  and  O_22
REMARK                            x       y       z     vdW  Elec       q    Type
REMARK                         _______ _______ _______ _____ _____    ______ ____
ROOT
ATOM      1  C   UNL     1       8.692  19.335   1.458  0.00  0.00    +0.000 C 
ATOM      2  C   UNL     1       7.510  19.165   1.341  0.00  0.00    +0.000 C 
ENDROOT
BRANCH   1   3
ATOM      3  C   UNL     1      10.201  19.553   1.608  0.00  0.00    +0.000 C 
ATOM      4  C   UNL     1      11.710  19.769   1.757  0.00  0.00    +0.000 C 
BRANCH   4   5
ATOM      5  C   UNL     1      13.219  19.986   1.905  0.00  0.00    +0.000 C 
ATOM      6  C   UNL     1      14.727  20.202   2.054  0.00  0.00    +0.000 C 
BRANCH   6   7
ATOM      7  C   UNL     1      16.237  20.419   2.203  0.00  0.00    +0.000 C 
ATOM      8  C   UNL     1      17.745  20.637   2.351  0.00  0.00    +0.000 C 
BRANCH   8   9
ATOM      9  C   UNL     1      19.254  20.854   2.500  0.00  0.00    +0.000 C 
BRANCH   9  10
ATOM     10  C   UNL     1      20.763  21.072   2.649  0.00  0.00    +0.000 C 
ATOM     11  C   UNL     1      22.271  21.292   2.798  0.00  0.00    +0.000 C 
BRANCH  11  12
ATOM     12  C   UNL     1      23.780  21.510   2.947  0.00  0.00    +0.000 C 
ATOM     13  C   UNL     1      25.288  21.728   3.095  0.00  0.00    +0.000 C 
ATOM     14  C   UNL     1      26.797  21.946   3.244  0.00  0.00    +0.000 C 
ENDBRANCH  11  12
ENDBRANCH   9  10
ENDBRANCH   8   9
ENDBRANCH   6   7
ENDBRANCH   4   5
ENDBRANCH   1   3
BRANCH   2  15
ATOM     15  C   UNL     1       6.001  18.946   1.191  0.00  0.00    +0.000 C 
BRANCH  15  16
ATOM     16  C   UNL     1       4.598  18.742   1.053  0.00  0.00    +0.000 A 
ATOM     17  C   UNL     1       4.026  17.543   1.473  0.00  0.00    +0.000 A 
ATOM     18  C   UNL     1       3.804  19.744   0.497  0.00  0.00    +0.000 A 
ATOM     19  C   UNL     1       2.433  19.535   0.366  0.00  0.00    +0.000 A 
ATOM     20  C   UNL     1       2.653  17.354   1.334  0.00  0.00    +0.000 A 
ATOM     21  C   UNL     1       1.847  18.343   0.781  0.00  0.00    +0.000 A 
BRANCH  20  22
ATOM     22  O   UNL     1       2.069  16.189   1.738  0.00  0.00    +0.000 OA
ATOM     23  H   UNL     1       1.557  16.366   2.546  0.00  0.00    +0.000 HD
ENDBRANCH  20  22
BRANCH  19  24
ATOM     24  O   UNL     1       1.632  20.499  -0.176  0.00  0.00    +0.000 OA
ATOM     25  H   UNL     1       0.715  20.324   0.098  0.00  0.00    +0.000 HD
ENDBRANCH  19  24
ENDBRANCH  15  16
ENDBRANCH   2  15
TORSDOF 10
ENDMDL
MODEL 8
REMARK VINA RESULT:      -3.6     27.006     31.369
REMARK  Name = 76617_Cardol.pdbqt.pdb
REMARK  10 active torsions:
REMARK  status: ('A' for Active; 'I' for Inactive)
REMARK    1  A    between atoms: C_1  and  C_2
REMARK    2  A    between atoms: C_3  and  C_4
REMARK    3  A    between atoms: C_5  and  C_6
REMARK    4  A    between atoms: C_7  and  C_8
REMARK    5  A    between atoms: C_8  and  C_9
REMARK    6  A    between atoms: C_10  and  C_11
REMARK    7  A    between atoms: C_14  and  C_15
REMARK    8  A    between atoms: C_15  and  C_16
REMARK    9  A    between atoms: C_19  and  O_24
REMARK   10  A    between atoms: C_20  and  O_22
REMARK                            x       y       z     vdW  Elec       q    Type
REMARK                         _______ _______ _______ _____ _____    ______ ____
ROOT
ATOM      1  C   UNL     1       2.524  30.885  14.662  0.00  0.00    +0.000 C 
ATOM      2  C   UNL     1       3.174  31.886  14.772  0.00  0.00    +0.000 C 
ENDROOT
BRANCH   1   3
ATOM      3  C   UNL     1       1.692  29.606  14.521  0.00  0.00    +0.000 C 
ATOM      4  C   UNL     1       0.860  28.328  14.378  0.00  0.00    +0.000 C 
BRANCH   4   5
ATOM      5  C   UNL     1       0.030  27.049  14.235  0.00  0.00    +0.000 C 
ATOM      6  C   UNL     1      -0.800  25.770  14.093  0.00  0.00    +0.000 C 
BRANCH   6   7
ATOM      7  C   UNL     1      -1.630  24.490  13.950  0.00  0.00    +0.000 C 
ATOM      8  C   UNL     1      -2.460  23.211  13.807  0.00  0.00    +0.000 C 
BRANCH   8   9
ATOM      9  C   UNL     1      -3.289  21.932  13.664  0.00  0.00    +0.000 C 
BRANCH   9  10
ATOM     10  C   UNL     1      -4.118  20.651  13.520  0.00  0.00    +0.000 C 
ATOM     11  C   UNL     1      -4.947  19.372  13.377  0.00  0.00    +0.000 C 
BRANCH  11  12
ATOM     12  C   UNL     1      -5.775  18.091  13.234  0.00  0.00    +0.000 C 
ATOM     13  C   UNL     1      -6.604  16.811  13.091  0.00  0.00    +0.000 C 
ATOM     14  C   UNL     1      -7.432  15.530  12.948  0.00  0.00    +0.000 C 
ENDBRANCH  11  12
ENDBRANCH   9  10
ENDBRANCH   8   9
ENDBRANCH   6   7
ENDBRANCH   4   5
ENDBRANCH   1   3
BRANCH   2  15
ATOM     15  C   UNL     1       4.007  33.165  14.914  0.00  0.00    +0.000 C 
BRANCH  15  16
ATOM     16  C   UNL     1       4.782  34.353  15.046  0.00  0.00    +0.000 A 
ATOM     17  C   UNL     1       4.365  35.360  15.914  0.00  0.00    +0.000 A 
ATOM     18  C   UNL     1       5.954  34.502  14.307  0.00  0.00    +0.000 A 
ATOM     19  C   UNL     1       6.705  35.667  14.443  0.00  0.00    +0.000 A 
ATOM     20  C   UNL     1       5.131  36.517  16.036  0.00  0.00    +0.000 A 
ATOM     21  C   UNL     1       6.302  36.682  15.305  0.00  0.00    +0.000 A 
BRANCH  20  22
ATOM     22  O   UNL     1       4.744  37.519  16.880  0.00  0.00    +0.000 OA
ATOM     23  H   UNL     1       3.773  37.506  16.947  0.00  0.00    +0.000 HD
ENDBRANCH  20  22
BRANCH  19  24
ATOM     24  O   UNL     1       7.856  35.839  13.730  0.00  0.00    +0.000 OA
ATOM     25  H   UNL     1       7.628  36.230  12.869  0.00  0.00    +0.000 HD
ENDBRANCH  19  24
ENDBRANCH  15  16
ENDBRANCH   2  15
TORSDOF 10
ENDMDL
MODEL 9
REMARK VINA RESULT:      -3.6     15.210     15.361
REMARK  Name = 76617_Cardol.pdbqt.pdb
REMARK  10 active torsions:
REMARK  status: ('A' for Active; 'I' for Inactive)
REMARK    1  A    between atoms: C_1  and  C_2
REMARK    2  A    between atoms: C_3  and  C_4
REMARK    3  A    between atoms: C_5  and  C_6
REMARK    4  A    between atoms: C_7  and  C_8
REMARK    5  A    between atoms: C_8  and  C_9
REMARK    6  A    between atoms: C_10  and  C_11
REMARK    7  A    between atoms: C_14  and  C_15
REMARK    8  A    between atoms: C_15  and  C_16
REMARK    9  A    between atoms: C_19  and  O_24
REMARK   10  A    between atoms: C_20  and  O_22
REMARK                            x       y       z     vdW  Elec       q    Type
REMARK                         _______ _______ _______ _____ _____    ______ ____
ROOT
ATOM      1  C   UNL     1       9.216  15.389  30.642  0.00  0.00    +0.000 C 
ATOM      2  C   UNL     1       9.255  14.192  30.710  0.00  0.00    +0.000 C 
ENDROOT
BRANCH   1   3
ATOM      3  C   UNL     1       9.166  16.917  30.556  0.00  0.00    +0.000 C 
ATOM      4  C   UNL     1       9.116  18.446  30.469  0.00  0.00    +0.000 C 
BRANCH   4   5
ATOM      5  C   UNL     1       9.064  19.974  30.381  0.00  0.00    +0.000 C 
ATOM      6  C   UNL     1       9.012  21.502  30.293  0.00  0.00    +0.000 C 
BRANCH   6   7
ATOM      7  C   UNL     1       8.960  23.031  30.204  0.00  0.00    +0.000 C 
ATOM      8  C   UNL     1       8.908  24.558  30.115  0.00  0.00    +0.000 C 
BRANCH   8   9
ATOM      9  C   UNL     1       8.856  26.086  30.025  0.00  0.00    +0.000 C 
BRANCH   9  10
ATOM     10  C   UNL     1       8.805  27.615  29.937  0.00  0.00    +0.000 C 
ATOM     11  C   UNL     1       8.755  29.143  29.848  0.00  0.00    +0.000 C 
BRANCH  11  12
ATOM     12  C   UNL     1       8.705  30.671  29.760  0.00  0.00    +0.000 C 
ATOM     13  C   UNL     1       8.656  32.199  29.671  0.00  0.00    +0.000 C 
ATOM     14  C   UNL     1       8.606  33.728  29.583  0.00  0.00    +0.000 C 
ENDBRANCH  11  12
ENDBRANCH   9  10
ENDBRANCH   8   9
ENDBRANCH   6   7
ENDBRANCH   4   5
ENDBRANCH   1   3
BRANCH   2  15
ATOM     15  C   UNL     1       9.306  12.662  30.796  0.00  0.00    +0.000 C 
BRANCH  15  16
ATOM     16  C   UNL     1       9.354  11.241  30.878  0.00  0.00    +0.000 A 
ATOM     17  C   UNL     1       8.210  10.492  30.610  0.00  0.00    +0.000 A 
ATOM     18  C   UNL     1      10.545  10.607  31.224  0.00  0.00    +0.000 A 
ATOM     19  C   UNL     1      10.582   9.217  31.301  0.00  0.00    +0.000 A 
ATOM     20  C   UNL     1       8.268   9.103  30.692  0.00  0.00    +0.000 A 
ATOM     21  C   UNL     1       9.449   8.454  31.037  0.00  0.00    +0.000 A 
BRANCH  20  22
ATOM     22  O   UNL     1       7.161   8.346  30.435  0.00  0.00    +0.000 OA
ATOM     23  H   UNL     1       6.523   8.479  31.157  0.00  0.00    +0.000 HD
ENDBRANCH  20  22
BRANCH  19  24
ATOM     24  O   UNL     1      11.737   8.570  31.638  0.00  0.00    +0.000 OA
ATOM     25  H   UNL     1      11.959   7.947  30.925  0.00  0.00    +0.000 HD
ENDBRANCH  19  24
ENDBRANCH  15  16
ENDBRANCH   2  15
TORSDOF 10
ENDMDL
