REMARK  Name = 76617_Cardol.pdbqt.pdb
REMARK  10 active torsions:
REMARK  status: ('A' for Active; 'I' for Inactive)
REMARK    1  A    between atoms: C_1  and  C_2
REMARK    2  A    between atoms: C_3  and  C_4
REMARK    3  A    between atoms: C_5  and  C_6
REMARK    4  A    between atoms: C_7  and  C_8
REMARK    5  A    between atoms: C_8  and  C_9
REMARK    6  A    between atoms: C_10  and  C_11
REMARK    7  A    between atoms: C_14  and  C_15
REMARK    8  A    between atoms: C_15  and  C_16
REMARK    9  A    between atoms: C_19  and  O_24
REMARK   10  A    between atoms: C_20  and  O_22
REMARK                            x       y       z     vdW  Elec       q    Type
REMARK                         _______ _______ _______ _____ _____    ______ ____
ROOT
ATOM      1  C   UNL     1      -2.752  -0.231   0.004  0.00  0.00    +0.000 C 
ATOM      2  C   UNL     1      -3.950  -0.296   0.016  0.00  0.00    +0.000 C 
ENDROOT
BRANCH   1   3
ATOM      3  C   UNL     1      -1.223  -0.147  -0.011  0.00  0.00    +0.000 C 
ATOM      4  C   UNL     1       0.307  -0.064  -0.025  0.00  0.00    +0.000 C 
BRANCH   4   5
ATOM      5  C   UNL     1       1.836   0.018  -0.040  0.00  0.00    +0.000 C 
ATOM      6  C   UNL     1       3.365   0.100  -0.054  0.00  0.00    +0.000 C 
BRANCH   6   7
ATOM      7  C   UNL     1       4.895   0.182  -0.068  0.00  0.00    +0.000 C 
ATOM      8  C   UNL     1       6.424   0.263  -0.082  0.00  0.00    +0.000 C 
BRANCH   8   9
ATOM      9  C   UNL     1       7.953   0.344  -0.096  0.00  0.00    +0.000 C 
BRANCH   9  10
ATOM     10  C   UNL     1       9.483   0.424  -0.109  0.00  0.00    +0.000 C 
ATOM     11  C   UNL     1      11.012   0.505  -0.123  0.00  0.00    +0.000 C 
BRANCH  11  12
ATOM     12  C   UNL     1      12.542   0.585  -0.137  0.00  0.00    +0.000 C 
ATOM     13  C   UNL     1      14.071   0.665  -0.150  0.00  0.00    +0.000 C 
ATOM     14  C   UNL     1      15.601   0.745  -0.164  0.00  0.00    +0.000 C 
ENDBRANCH  11  12
ENDBRANCH   9  10
ENDBRANCH   8   9
ENDBRANCH   6   7
ENDBRANCH   4   5
ENDBRANCH   1   3
BRANCH   2  15
ATOM     15  C   UNL     1      -5.480  -0.381   0.031  0.00  0.00    +0.000 C 
BRANCH  15  16
ATOM     16  C   UNL     1      -6.902  -0.459   0.045  0.00  0.00    +0.000 A 
ATOM     17  C   UNL     1      -7.641   0.154  -0.965  0.00  0.00    +0.000 A 
ATOM     18  C   UNL     1      -7.548  -1.149   1.069  0.00  0.00    +0.000 A 
ATOM     19  C   UNL     1      -8.939  -1.220   1.074  0.00  0.00    +0.000 A 
ATOM     20  C   UNL     1      -9.031   0.071  -0.942  0.00  0.00    +0.000 A 
ATOM     21  C   UNL     1      -9.691  -0.613   0.073  0.00  0.00    +0.000 A 
BRANCH  20  22
ATOM     22  O   UNL     1      -9.777   0.663  -1.920  0.00  0.00    +0.000 OA
ATOM     23  H   UNL     1      -9.173   1.096  -2.548  0.00  0.00    +0.000 HD
ENDBRANCH  20  22
BRANCH  19  24
ATOM     24  O   UNL     1      -9.597  -1.889   2.066  0.00  0.00    +0.000 OA
ATOM     25  H   UNL     1      -8.936  -2.252   2.681  0.00  0.00    +0.000 HD
ENDBRANCH  19  24
ENDBRANCH  15  16
ENDBRANCH   2  15
TORSDOF 10
