MODEL 1
REMARK VINA RESULT:      -5.3      0.000      0.000
REMARK  Name = 85668777_Hyaluronidase.pdbqt.pdb
REMARK  5 active torsions:
REMARK  status: ('A' for Active; 'I' for Inactive)
REMARK    1  A    between atoms: N_1  and  C_13
REMARK    2  A    between atoms: C_14  and  C_15
REMARK    3  A    between atoms: C_15  and  C_16
REMARK    4  A    between atoms: C_17  and  C_19
REMARK    5  A    between atoms: C_19  and  O_20
REMARK                            x       y       z     vdW  Elec       q    Type
REMARK                         _______ _______ _______ _____ _____    ______ ____
ROOT
ATOM      1  N   UNL     1       6.723  21.317  30.555  0.00  0.00    +0.000 N 
ATOM      2  C   UNL     1       4.619  22.340  31.175  0.00  0.00    +0.000 C 
ATOM      3  C   UNL     1       5.504  23.275  30.350  0.00  0.00    +0.000 A 
ATOM      4  C   UNL     1       5.538  21.059  31.247  0.00  0.00    +0.000 C 
ATOM      5  C   UNL     1       6.710  22.618  30.026  0.00  0.00    +0.000 A 
ATOM      6  C   UNL     1       4.372  22.975  32.580  0.00  0.00    +0.000 C 
ATOM      7  C   UNL     1       3.292  22.075  30.395  0.00  0.00    +0.000 C 
ATOM      8  C   UNL     1       5.265  24.577  29.933  0.00  0.00    +0.000 A 
ATOM      9  C   UNL     1       7.687  23.253  29.280  0.00  0.00    +0.000 A 
ATOM     10  C   UNL     1       5.319  19.870  31.845  0.00  0.00    +0.000 C 
ATOM     11  C   UNL     1       6.251  25.215  29.182  0.00  0.00    +0.000 A 
ATOM     12  C   UNL     1       7.448  24.561  28.859  0.00  0.00    +0.000 A 
ENDROOT
BRANCH   1  13
ATOM     13  C   UNL     1       7.824  20.398  30.388  0.00  0.00    +0.000 C 
ATOM     14  C   UNL     1       8.992  19.425  30.205  0.00  0.00    +0.000 C 
BRANCH  14  15
ATOM     15  C   UNL     1      10.161  18.452  30.022  0.00  0.00    +0.000 C 
BRANCH  15  16
ATOM     16  C   UNL     1      11.330  17.481  29.838  0.00  0.00    +0.000 C 
ATOM     17  C   UNL     1      12.499  16.508  29.652  0.00  0.00    +0.000 C 
BRANCH  17  19
ATOM     18  O   UNL     1      14.167  15.056  30.405  0.00  0.00    +0.000 OA
ATOM     19  C   UNL     1      13.593  15.601  29.478  0.00  0.00    +0.000 C 
BRANCH  19  20
ATOM     20  O   UNL     1      13.937  15.398  28.194  0.00  0.00    +0.000 OA
ATOM     21  H   UNL     1      14.194  14.454  28.170  0.00  0.00    +0.000 HD
ENDBRANCH  19  20
ENDBRANCH  17  19
ENDBRANCH  15  16
ENDBRANCH  14  15
ENDBRANCH   1  13
TORSDOF 5
ENDMDL
MODEL 2
REMARK VINA RESULT:      -5.3      4.734      9.140
REMARK  Name = 85668777_Hyaluronidase.pdbqt.pdb
REMARK  5 active torsions:
REMARK  status: ('A' for Active; 'I' for Inactive)
REMARK    1  A    between atoms: N_1  and  C_13
REMARK    2  A    between atoms: C_14  and  C_15
REMARK    3  A    between atoms: C_15  and  C_16
REMARK    4  A    between atoms: C_17  and  C_19
REMARK    5  A    between atoms: C_19  and  O_20
REMARK                            x       y       z     vdW  Elec       q    Type
REMARK                         _______ _______ _______ _____ _____    ______ ____
ROOT
ATOM      1  N   UNL     1       9.860  16.781  30.689  0.00  0.00    +0.000 N 
ATOM      2  C   UNL     1      10.052  14.453  31.324  0.00  0.00    +0.000 C 
ATOM      3  C   UNL     1      11.311  14.977  30.632  0.00  0.00    +0.000 A 
ATOM      4  C   UNL     1       9.151  15.749  31.306  0.00  0.00    +0.000 C 
ATOM      5  C   UNL     1      11.130  16.333  30.290  0.00  0.00    +0.000 A 
ATOM      6  C   UNL     1       9.444  13.294  30.472  0.00  0.00    +0.000 C 
ATOM      7  C   UNL     1      10.417  14.003  32.775  0.00  0.00    +0.000 C 
ATOM      8  C   UNL     1      12.494  14.316  30.335  0.00  0.00    +0.000 A 
ATOM      9  C   UNL     1      12.130  17.044  29.650  0.00  0.00    +0.000 A 
ATOM     10  C   UNL     1       7.901  15.939  31.776  0.00  0.00    +0.000 C 
ATOM     11  C   UNL     1      13.501  15.033  29.689  0.00  0.00    +0.000 A 
ATOM     12  C   UNL     1      13.321  16.382  29.351  0.00  0.00    +0.000 A 
ENDROOT
BRANCH   1  13
ATOM     13  C   UNL     1       9.384  18.127  30.477  0.00  0.00    +0.000 C 
ATOM     14  C   UNL     1       8.879  19.554  30.247  0.00  0.00    +0.000 C 
BRANCH  14  15
ATOM     15  C   UNL     1       8.374  20.982  30.015  0.00  0.00    +0.000 C 
BRANCH  15  16
ATOM     16  C   UNL     1       7.871  22.409  29.785  0.00  0.00    +0.000 C 
ATOM     17  C   UNL     1       7.366  23.837  29.553  0.00  0.00    +0.000 C 
BRANCH  17  19
ATOM     18  O   UNL     1       7.558  26.165  29.571  0.00  0.00    +0.000 OA
ATOM     19  C   UNL     1       6.892  25.171  29.337  0.00  0.00    +0.000 C 
BRANCH  19  20
ATOM     20  O   UNL     1       5.640  25.236  28.852  0.00  0.00    +0.000 OA
ATOM     21  H   UNL     1       5.731  25.791  28.051  0.00  0.00    +0.000 HD
ENDBRANCH  19  20
ENDBRANCH  17  19
ENDBRANCH  15  16
ENDBRANCH  14  15
ENDBRANCH   1  13
TORSDOF 5
ENDMDL
MODEL 3
REMARK VINA RESULT:      -4.8     16.399     19.626
REMARK  Name = 85668777_Hyaluronidase.pdbqt.pdb
REMARK  5 active torsions:
REMARK  status: ('A' for Active; 'I' for Inactive)
REMARK    1  A    between atoms: N_1  and  C_13
REMARK    2  A    between atoms: C_14  and  C_15
REMARK    3  A    between atoms: C_15  and  C_16
REMARK    4  A    between atoms: C_17  and  C_19
REMARK    5  A    between atoms: C_19  and  O_20
REMARK                            x       y       z     vdW  Elec       q    Type
REMARK                         _______ _______ _______ _____ _____    ______ ____
ROOT
ATOM      1  N   UNL     1      24.329  12.436  26.695  0.00  0.00    +0.000 N 
ATOM      2  C   UNL     1      24.812  10.065  26.681  0.00  0.00    +0.000 C 
ATOM      3  C   UNL     1      24.739  10.639  28.096  0.00  0.00    +0.000 A 
ATOM      4  C   UNL     1      24.521  11.359  25.827  0.00  0.00    +0.000 C 
ATOM      5  C   UNL     1      24.456  12.019  28.030  0.00  0.00    +0.000 A 
ATOM      6  C   UNL     1      26.246   9.498  26.432  0.00  0.00    +0.000 C 
ATOM      7  C   UNL     1      23.701   8.980  26.512  0.00  0.00    +0.000 C 
ATOM      8  C   UNL     1      24.908  10.002  29.317  0.00  0.00    +0.000 A 
ATOM      9  C   UNL     1      24.338  12.776  29.183  0.00  0.00    +0.000 A 
ATOM     10  C   UNL     1      24.447  11.515  24.490  0.00  0.00    +0.000 C 
ATOM     11  C   UNL     1      24.789  10.766  30.477  0.00  0.00    +0.000 A 
ATOM     12  C   UNL     1      24.506  12.137  30.411  0.00  0.00    +0.000 A 
ENDROOT
BRANCH   1  13
ATOM     13  C   UNL     1      24.038  13.796  26.308  0.00  0.00    +0.000 C 
ATOM     14  C   UNL     1      23.735  15.240  25.897  0.00  0.00    +0.000 C 
BRANCH  14  15
ATOM     15  C   UNL     1      23.432  16.684  25.487  0.00  0.00    +0.000 C 
BRANCH  15  16
ATOM     16  C   UNL     1      23.131  18.128  25.076  0.00  0.00    +0.000 C 
ATOM     17  C   UNL     1      22.829  19.573  24.665  0.00  0.00    +0.000 C 
BRANCH  17  19
ATOM     18  O   UNL     1      23.091  21.479  23.340  0.00  0.00    +0.000 OA
ATOM     19  C   UNL     1      22.549  20.923  24.279  0.00  0.00    +0.000 C 
BRANCH  19  20
ATOM     20  O   UNL     1      21.629  21.532  25.047  0.00  0.00    +0.000 OA
ATOM     21  H   UNL     1      22.105  21.705  25.885  0.00  0.00    +0.000 HD
ENDBRANCH  19  20
ENDBRANCH  17  19
ENDBRANCH  15  16
ENDBRANCH  14  15
ENDBRANCH   1  13
TORSDOF 5
ENDMDL
MODEL 4
REMARK VINA RESULT:      -4.8     18.340     19.850
REMARK  Name = 85668777_Hyaluronidase.pdbqt.pdb
REMARK  5 active torsions:
REMARK  status: ('A' for Active; 'I' for Inactive)
REMARK    1  A    between atoms: N_1  and  C_13
REMARK    2  A    between atoms: C_14  and  C_15
REMARK    3  A    between atoms: C_15  and  C_16
REMARK    4  A    between atoms: C_17  and  C_19
REMARK    5  A    between atoms: C_19  and  O_20
REMARK                            x       y       z     vdW  Elec       q    Type
REMARK                         _______ _______ _______ _____ _____    ______ ____
ROOT
ATOM      1  N   UNL     1      -0.985  27.855  15.524  0.00  0.00    +0.000 N 
ATOM      2  C   UNL     1      -2.423  25.930  15.809  0.00  0.00    +0.000 C 
ATOM      3  C   UNL     1      -2.959  27.171  16.522  0.00  0.00    +0.000 A 
ATOM      4  C   UNL     1      -1.099  26.509  15.175  0.00  0.00    +0.000 C 
ATOM      5  C   UNL     1      -2.075  28.251  16.317  0.00  0.00    +0.000 A 
ATOM      6  C   UNL     1      -2.140  24.815  16.864  0.00  0.00    +0.000 C 
ATOM      7  C   UNL     1      -3.454  25.480  14.723  0.00  0.00    +0.000 C 
ATOM      8  C   UNL     1      -4.112  27.325  17.279  0.00  0.00    +0.000 A 
ATOM      9  C   UNL     1      -2.335  29.496  16.863  0.00  0.00    +0.000 A 
ATOM     10  C   UNL     1      -0.167  25.900  14.413  0.00  0.00    +0.000 C 
ATOM     11  C   UNL     1      -4.372  28.580  17.829  0.00  0.00    +0.000 A 
ATOM     12  C   UNL     1      -3.494  29.653  17.622  0.00  0.00    +0.000 A 
ENDROOT
BRANCH   1  13
ATOM     13  C   UNL     1       0.087  28.743  15.141  0.00  0.00    +0.000 C 
ATOM     14  C   UNL     1       1.223  29.683  14.728  0.00  0.00    +0.000 C 
BRANCH  14  15
ATOM     15  C   UNL     1       2.360  30.624  14.315  0.00  0.00    +0.000 C 
BRANCH  15  16
ATOM     16  C   UNL     1       3.496  31.563  13.902  0.00  0.00    +0.000 C 
ATOM     17  C   UNL     1       4.633  32.503  13.490  0.00  0.00    +0.000 C 
BRANCH  17  19
ATOM     18  O   UNL     1       5.596  34.597  13.107  0.00  0.00    +0.000 OA
ATOM     19  C   UNL     1       5.696  33.382  13.106  0.00  0.00    +0.000 C 
BRANCH  19  20
ATOM     20  O   UNL     1       6.824  32.750  12.739  0.00  0.00    +0.000 OA
ATOM     21  H   UNL     1       7.446  33.480  12.545  0.00  0.00    +0.000 HD
ENDBRANCH  19  20
ENDBRANCH  17  19
ENDBRANCH  15  16
ENDBRANCH  14  15
ENDBRANCH   1  13
TORSDOF 5
ENDMDL
MODEL 5
REMARK VINA RESULT:      -4.6     24.901     26.366
REMARK  Name = 85668777_Hyaluronidase.pdbqt.pdb
REMARK  5 active torsions:
REMARK  status: ('A' for Active; 'I' for Inactive)
REMARK    1  A    between atoms: N_1  and  C_13
REMARK    2  A    between atoms: C_14  and  C_15
REMARK    3  A    between atoms: C_15  and  C_16
REMARK    4  A    between atoms: C_17  and  C_19
REMARK    5  A    between atoms: C_19  and  O_20
REMARK                            x       y       z     vdW  Elec       q    Type
REMARK                         _______ _______ _______ _____ _____    ______ ____
ROOT
ATOM      1  N   UNL     1      29.430  15.020  18.044  0.00  0.00    +0.000 N 
ATOM      2  C   UNL     1      29.747  12.808  18.971  0.00  0.00    +0.000 C 
ATOM      3  C   UNL     1      29.194  12.771  17.547  0.00  0.00    +0.000 A 
ATOM      4  C   UNL     1      29.866  14.365  19.197  0.00  0.00    +0.000 C 
ATOM      5  C   UNL     1      29.034  14.089  17.070  0.00  0.00    +0.000 A 
ATOM      6  C   UNL     1      28.716  12.143  19.938  0.00  0.00    +0.000 C 
ATOM      7  C   UNL     1      31.138  12.096  18.998  0.00  0.00    +0.000 C 
ATOM      8  C   UNL     1      28.865  11.680  16.755  0.00  0.00    +0.000 A 
ATOM      9  C   UNL     1      28.545  14.330  15.798  0.00  0.00    +0.000 A 
ATOM     10  C   UNL     1      30.298  15.053  20.274  0.00  0.00    +0.000 C 
ATOM     11  C   UNL     1      28.373  11.924  15.474  0.00  0.00    +0.000 A 
ATOM     12  C   UNL     1      28.215  13.234  15.001  0.00  0.00    +0.000 A 
ENDROOT
BRANCH   1  13
ATOM     13  C   UNL     1      29.383  16.449  17.847  0.00  0.00    +0.000 C 
ATOM     14  C   UNL     1      29.329  17.966  17.642  0.00  0.00    +0.000 C 
BRANCH  14  15
ATOM     15  C   UNL     1      29.273  19.483  17.436  0.00  0.00    +0.000 C 
BRANCH  15  16
ATOM     16  C   UNL     1      29.217  20.999  17.231  0.00  0.00    +0.000 C 
ATOM     17  C   UNL     1      29.161  22.516  17.025  0.00  0.00    +0.000 C 
BRANCH  17  19
ATOM     18  O   UNL     1      30.042  24.588  16.400  0.00  0.00    +0.000 OA
ATOM     19  C   UNL     1      29.108  23.934  16.830  0.00  0.00    +0.000 C 
BRANCH  19  20
ATOM     20  O   UNL     1      27.930  24.489  17.167  0.00  0.00    +0.000 OA
ATOM     21  H   UNL     1      27.426  23.745  17.553  0.00  0.00    +0.000 HD
ENDBRANCH  19  20
ENDBRANCH  17  19
ENDBRANCH  15  16
ENDBRANCH  14  15
ENDBRANCH   1  13
TORSDOF 5
ENDMDL
MODEL 6
REMARK VINA RESULT:      -4.5     19.980     22.280
REMARK  Name = 85668777_Hyaluronidase.pdbqt.pdb
REMARK  5 active torsions:
REMARK  status: ('A' for Active; 'I' for Inactive)
REMARK    1  A    between atoms: N_1  and  C_13
REMARK    2  A    between atoms: C_14  and  C_15
REMARK    3  A    between atoms: C_15  and  C_16
REMARK    4  A    between atoms: C_17  and  C_19
REMARK    5  A    between atoms: C_19  and  O_20
REMARK                            x       y       z     vdW  Elec       q    Type
REMARK                         _______ _______ _______ _____ _____    ______ ____
ROOT
ATOM      1  N   UNL     1      13.556  -0.882  28.442  0.00  0.00    +0.000 N 
ATOM      2  C   UNL     1      12.263  -2.524  29.660  0.00  0.00    +0.000 C 
ATOM      3  C   UNL     1      11.647  -1.127  29.728  0.00  0.00    +0.000 A 
ATOM      4  C   UNL     1      13.535  -2.238  28.772  0.00  0.00    +0.000 C 
ATOM      5  C   UNL     1      12.448  -0.223  29.001  0.00  0.00    +0.000 A 
ATOM      6  C   UNL     1      12.636  -2.990  31.103  0.00  0.00    +0.000 C 
ATOM      7  C   UNL     1      11.256  -3.493  28.960  0.00  0.00    +0.000 C 
ATOM      8  C   UNL     1      10.493  -0.701  30.372  0.00  0.00    +0.000 A 
ATOM      9  C   UNL     1      12.106   1.114  28.908  0.00  0.00    +0.000 A 
ATOM     10  C   UNL     1      14.501  -3.078  28.347  0.00  0.00    +0.000 C 
ATOM     11  C   UNL     1      10.150   0.647  30.278  0.00  0.00    +0.000 A 
ATOM     12  C   UNL     1      10.946   1.544  29.553  0.00  0.00    +0.000 A 
ENDROOT
BRANCH   1  13
ATOM     13  C   UNL     1      14.557  -0.220  27.640  0.00  0.00    +0.000 C 
ATOM     14  C   UNL     1      15.623   0.478  26.789  0.00  0.00    +0.000 C 
BRANCH  14  15
ATOM     15  C   UNL     1      16.689   1.176  25.939  0.00  0.00    +0.000 C 
BRANCH  15  16
ATOM     16  C   UNL     1      17.754   1.873  25.089  0.00  0.00    +0.000 C 
ATOM     17  C   UNL     1      18.821   2.571  24.239  0.00  0.00    +0.000 C 
BRANCH  17  19
ATOM     18  O   UNL     1      21.000   2.926  23.477  0.00  0.00    +0.000 OA
ATOM     19  C   UNL     1      19.818   3.221  23.444  0.00  0.00    +0.000 C 
BRANCH  19  20
ATOM     20  O   UNL     1      19.337   4.195  22.651  0.00  0.00    +0.000 OA
ATOM     21  H   UNL     1      20.133   4.711  22.411  0.00  0.00    +0.000 HD
ENDBRANCH  19  20
ENDBRANCH  17  19
ENDBRANCH  15  16
ENDBRANCH  14  15
ENDBRANCH   1  13
TORSDOF 5
ENDMDL
MODEL 7
REMARK VINA RESULT:      -4.5     24.967     26.981
REMARK  Name = 85668777_Hyaluronidase.pdbqt.pdb
REMARK  5 active torsions:
REMARK  status: ('A' for Active; 'I' for Inactive)
REMARK    1  A    between atoms: N_1  and  C_13
REMARK    2  A    between atoms: C_14  and  C_15
REMARK    3  A    between atoms: C_15  and  C_16
REMARK    4  A    between atoms: C_17  and  C_19
REMARK    5  A    between atoms: C_19  and  O_20
REMARK                            x       y       z     vdW  Elec       q    Type
REMARK                         _______ _______ _______ _____ _____    ______ ____
ROOT
ATOM      1  N   UNL     1      29.448  15.493  17.322  0.00  0.00    +0.000 N 
ATOM      2  C   UNL     1      29.692  13.908  19.135  0.00  0.00    +0.000 C 
ATOM      3  C   UNL     1      29.210  13.249  17.843  0.00  0.00    +0.000 A 
ATOM      4  C   UNL     1      29.818  15.410  18.666  0.00  0.00    +0.000 C 
ATOM      5  C   UNL     1      29.090  14.226  16.832  0.00  0.00    +0.000 A 
ATOM      6  C   UNL     1      28.606  13.720  20.242  0.00  0.00    +0.000 C 
ATOM      7  C   UNL     1      31.071  13.295  19.538  0.00  0.00    +0.000 C 
ATOM      8  C   UNL     1      28.908  11.919  17.590  0.00  0.00    +0.000 A 
ATOM      9  C   UNL     1      28.668  13.884  15.560  0.00  0.00    +0.000 A 
ATOM     10  C   UNL     1      30.203  16.502  19.356  0.00  0.00    +0.000 C 
ATOM     11  C   UNL     1      28.482  11.575  16.308  0.00  0.00    +0.000 A 
ATOM     12  C   UNL     1      28.365  12.547  15.304  0.00  0.00    +0.000 A 
ENDROOT
BRANCH   1  13
ATOM     13  C   UNL     1      29.428  16.693  16.521  0.00  0.00    +0.000 C 
ATOM     14  C   UNL     1      29.403  17.969  15.674  0.00  0.00    +0.000 C 
BRANCH  14  15
ATOM     15  C   UNL     1      29.376  19.245  14.827  0.00  0.00    +0.000 C 
BRANCH  15  16
ATOM     16  C   UNL     1      29.349  20.520  13.979  0.00  0.00    +0.000 C 
ATOM     17  C   UNL     1      29.323  21.795  13.131  0.00  0.00    +0.000 C 
BRANCH  17  19
ATOM     18  O   UNL     1      29.993  23.963  12.572  0.00  0.00    +0.000 OA
ATOM     19  C   UNL     1      29.300  22.987  12.338  0.00  0.00    +0.000 C 
BRANCH  19  20
ATOM     20  O   UNL     1      28.442  22.940  11.304  0.00  0.00    +0.000 OA
ATOM     21  H   UNL     1      29.008  22.690  10.545  0.00  0.00    +0.000 HD
ENDBRANCH  19  20
ENDBRANCH  17  19
ENDBRANCH  15  16
ENDBRANCH  14  15
ENDBRANCH   1  13
TORSDOF 5
ENDMDL
MODEL 8
REMARK VINA RESULT:      -4.5     16.465     20.276
REMARK  Name = 85668777_Hyaluronidase.pdbqt.pdb
REMARK  5 active torsions:
REMARK  status: ('A' for Active; 'I' for Inactive)
REMARK    1  A    between atoms: N_1  and  C_13
REMARK    2  A    between atoms: C_14  and  C_15
REMARK    3  A    between atoms: C_15  and  C_16
REMARK    4  A    between atoms: C_17  and  C_19
REMARK    5  A    between atoms: C_19  and  O_20
REMARK                            x       y       z     vdW  Elec       q    Type
REMARK                         _______ _______ _______ _____ _____    ______ ____
ROOT
ATOM      1  N   UNL     1      24.673  12.373  26.003  0.00  0.00    +0.000 N 
ATOM      2  C   UNL     1      24.935  10.202  27.038  0.00  0.00    +0.000 C 
ATOM      3  C   UNL     1      25.516  10.250  25.626  0.00  0.00    +0.000 A 
ATOM      4  C   UNL     1      24.400  11.679  27.183  0.00  0.00    +0.000 C 
ATOM      5  C   UNL     1      25.330  11.539  25.083  0.00  0.00    +0.000 A 
ATOM      6  C   UNL     1      23.786   9.145  27.084  0.00  0.00    +0.000 C 
ATOM      7  C   UNL     1      26.082   9.884  28.052  0.00  0.00    +0.000 C 
ATOM      8  C   UNL     1      26.145   9.252  24.895  0.00  0.00    +0.000 A 
ATOM      9  C   UNL     1      25.770  11.843  23.807  0.00  0.00    +0.000 A 
ATOM     10  C   UNL     1      23.772  12.274  28.217  0.00  0.00    +0.000 C 
ATOM     11  C   UNL     1      26.588   9.560  23.610  0.00  0.00    +0.000 A 
ATOM     12  C   UNL     1      26.403  10.841  23.072  0.00  0.00    +0.000 A 
ENDROOT
BRANCH   1  13
ATOM     13  C   UNL     1      24.343  13.753  25.735  0.00  0.00    +0.000 C 
ATOM     14  C   UNL     1      23.994  15.218  25.456  0.00  0.00    +0.000 C 
BRANCH  14  15
ATOM     15  C   UNL     1      23.645  16.683  25.178  0.00  0.00    +0.000 C 
BRANCH  15  16
ATOM     16  C   UNL     1      23.295  18.147  24.900  0.00  0.00    +0.000 C 
ATOM     17  C   UNL     1      22.944  19.612  24.623  0.00  0.00    +0.000 C 
BRANCH  17  19
ATOM     18  O   UNL     1      23.150  21.649  23.496  0.00  0.00    +0.000 OA
ATOM     19  C   UNL     1      22.614  20.982  24.364  0.00  0.00    +0.000 C 
BRANCH  19  20
ATOM     20  O   UNL     1      21.656  21.475  25.168  0.00  0.00    +0.000 OA
ATOM     21  H   UNL     1      20.843  21.407  24.627  0.00  0.00    +0.000 HD
ENDBRANCH  19  20
ENDBRANCH  17  19
ENDBRANCH  15  16
ENDBRANCH  14  15
ENDBRANCH   1  13
TORSDOF 5
ENDMDL
MODEL 9
REMARK VINA RESULT:      -4.4     15.175     19.569
REMARK  Name = 85668777_Hyaluronidase.pdbqt.pdb
REMARK  5 active torsions:
REMARK  status: ('A' for Active; 'I' for Inactive)
REMARK    1  A    between atoms: N_1  and  C_13
REMARK    2  A    between atoms: C_14  and  C_15
REMARK    3  A    between atoms: C_15  and  C_16
REMARK    4  A    between atoms: C_17  and  C_19
REMARK    5  A    between atoms: C_19  and  O_20
REMARK                            x       y       z     vdW  Elec       q    Type
REMARK                         _______ _______ _______ _____ _____    ______ ____
ROOT
ATOM      1  N   UNL     1      24.576  14.711  25.305  0.00  0.00    +0.000 N 
ATOM      2  C   UNL     1      24.724  12.307  25.074  0.00  0.00    +0.000 C 
ATOM      3  C   UNL     1      25.975  13.021  24.563  0.00  0.00    +0.000 A 
ATOM      4  C   UNL     1      23.858  13.538  25.547  0.00  0.00    +0.000 C 
ATOM      5  C   UNL     1      25.822  14.414  24.727  0.00  0.00    +0.000 A 
ATOM      6  C   UNL     1      24.059  11.531  23.892  0.00  0.00    +0.000 C 
ATOM      7  C   UNL     1      25.119  11.369  26.259  0.00  0.00    +0.000 C 
ATOM      8  C   UNL     1      27.130  12.490  24.008  0.00  0.00    +0.000 A 
ATOM      9  C   UNL     1      26.821  15.289  24.340  0.00  0.00    +0.000 A 
ATOM     10  C   UNL     1      22.629  13.570  26.100  0.00  0.00    +0.000 C 
ATOM     11  C   UNL     1      28.136  13.373  23.619  0.00  0.00    +0.000 A 
ATOM     12  C   UNL     1      27.983  14.757  23.783  0.00  0.00    +0.000 A 
ENDROOT
BRANCH   1  13
ATOM     13  C   UNL     1      24.132  16.052  25.598  0.00  0.00    +0.000 C 
ATOM     14  C   UNL     1      23.659  17.477  25.903  0.00  0.00    +0.000 C 
BRANCH  14  15
ATOM     15  C   UNL     1      23.187  18.902  26.208  0.00  0.00    +0.000 C 
BRANCH  15  16
ATOM     16  C   UNL     1      22.715  20.326  26.513  0.00  0.00    +0.000 C 
ATOM     17  C   UNL     1      22.244  21.751  26.819  0.00  0.00    +0.000 C 
BRANCH  17  19
ATOM     18  O   UNL     1      22.538  23.953  27.542  0.00  0.00    +0.000 OA
ATOM     19  C   UNL     1      21.804  23.084  27.104  0.00  0.00    +0.000 C 
BRANCH  19  20
ATOM     20  O   UNL     1      20.502  23.298  26.846  0.00  0.00    +0.000 OA
ATOM     21  H   UNL     1      20.411  23.061  25.901  0.00  0.00    +0.000 HD
ENDBRANCH  19  20
ENDBRANCH  17  19
ENDBRANCH  15  16
ENDBRANCH  14  15
ENDBRANCH   1  13
TORSDOF 5
ENDMDL
