MODEL 1
REMARK VINA RESULT:      -4.3      0.000      0.000
REMARK  Name = 86311066_OplopantriolA.pdbqt.pdb
REMARK  12 active torsions:
REMARK  status: ('A' for Active; 'I' for Inactive)
REMARK    1  A    between atoms: C_1  and  C_3
REMARK    2  A    between atoms: C_2  and  C_13
REMARK    3  A    between atoms: C_4  and  C_5
REMARK    4  A    between atoms: C_6  and  C_7
REMARK    5  A    between atoms: C_8  and  C_9
REMARK    6  A    between atoms: C_10  and  O_11
REMARK    7  A    between atoms: C_13  and  O_14
REMARK    8  A    between atoms: C_13  and  C_16
REMARK    9  A    between atoms: C_17  and  C_18
REMARK   10  A    between atoms: C_19  and  C_20
REMARK   11  A    between atoms: C_20  and  C_21
REMARK   12  A    between atoms: C_20  and  O_23
REMARK                            x       y       z     vdW  Elec       q    Type
REMARK                         _______ _______ _______ _____ _____    ______ ____
ROOT
ATOM      1  C   UNL     1      11.535  17.681  29.642  0.00  0.00    +0.000 C 
ATOM      2  C   UNL     1      12.534  17.057  29.407  0.00  0.00    +0.000 C 
ENDROOT
BRANCH   1   3
ATOM      3  C   UNL     1      10.262  18.478  29.940  0.00  0.00    +0.000 C 
ATOM      4  C   UNL     1       8.988  19.274  30.240  0.00  0.00    +0.000 C 
BRANCH   4   5
ATOM      5  C   UNL     1       7.714  20.070  30.538  0.00  0.00    +0.000 C 
ATOM      6  C   UNL     1       6.440  20.868  30.835  0.00  0.00    +0.000 C 
BRANCH   6   7
ATOM      7  C   UNL     1       5.167  21.665  31.133  0.00  0.00    +0.000 C 
ATOM      8  C   UNL     1       3.893  22.462  31.431  0.00  0.00    +0.000 C 
BRANCH   8   9
ATOM      9  C   UNL     1       2.621  23.260  31.730  0.00  0.00    +0.000 C 
ATOM     10  C   UNL     1       1.348  24.058  32.030  0.00  0.00    +0.000 C 
BRANCH  10  11
ATOM     11  O   UNL     1       0.245  24.750  32.289  0.00  0.00    +0.000 OA
ATOM     12  H   UNL     1      -0.456  24.160  32.612  0.00  0.00    +0.000 HD
ENDBRANCH  10  11
ENDBRANCH   8   9
ENDBRANCH   6   7
ENDBRANCH   4   5
ENDBRANCH   1   3
BRANCH   2  13
ATOM     13  C   UNL     1      13.712  16.321  29.131  0.00  0.00    +0.000 C 
BRANCH  13  14
ATOM     14  O   UNL     1      13.620  15.289  28.225  0.00  0.00    +0.000 OA
ATOM     15  H   UNL     1      14.494  15.025  27.893  0.00  0.00    +0.000 HD
ENDBRANCH  13  14
BRANCH  13  16
ATOM     16  C   UNL     1      14.967  16.591  29.734  0.00  0.00    +0.000 C 
ATOM     17  C   UNL     1      16.029  16.820  30.244  0.00  0.00    +0.000 C 
BRANCH  17  18
ATOM     18  C   UNL     1      17.383  17.114  30.896  0.00  0.00    +0.000 C 
ATOM     19  C   UNL     1      18.445  17.345  31.407  0.00  0.00    +0.000 C 
BRANCH  19  20
ATOM     20  C   UNL     1      19.700  17.619  32.012  0.00  0.00    +0.000 C 
BRANCH  20  21
ATOM     21  C   UNL     1      20.830  16.764  31.888  0.00  0.00    +0.000 C 
ATOM     22  C   UNL     1      21.881  15.949  31.774  0.00  0.00    +0.000 C 
ENDBRANCH  20  21
BRANCH  20  23
ATOM     23  O   UNL     1      19.830  18.773  32.758  0.00  0.00    +0.000 OA
ATOM     24  H   UNL     1      20.366  18.630  33.556  0.00  0.00    +0.000 HD
ENDBRANCH  20  23
ENDBRANCH  19  20
ENDBRANCH  17  18
ENDBRANCH  13  16
ENDBRANCH   2  13
TORSDOF 12
ENDMDL
MODEL 2
REMARK VINA RESULT:      -4.2     14.282     16.119
REMARK  Name = 86311066_OplopantriolA.pdbqt.pdb
REMARK  12 active torsions:
REMARK  status: ('A' for Active; 'I' for Inactive)
REMARK    1  A    between atoms: C_1  and  C_3
REMARK    2  A    between atoms: C_2  and  C_13
REMARK    3  A    between atoms: C_4  and  C_5
REMARK    4  A    between atoms: C_6  and  C_7
REMARK    5  A    between atoms: C_8  and  C_9
REMARK    6  A    between atoms: C_10  and  O_11
REMARK    7  A    between atoms: C_13  and  O_14
REMARK    8  A    between atoms: C_13  and  C_16
REMARK    9  A    between atoms: C_17  and  C_18
REMARK   10  A    between atoms: C_19  and  C_20
REMARK   11  A    between atoms: C_20  and  C_21
REMARK   12  A    between atoms: C_20  and  O_23
REMARK                            x       y       z     vdW  Elec       q    Type
REMARK                         _______ _______ _______ _____ _____    ______ ____
ROOT
ATOM      1  C   UNL     1      22.837  15.420  26.229  0.00  0.00    +0.000 C 
ATOM      2  C   UNL     1      22.678  14.242  26.399  0.00  0.00    +0.000 C 
ENDROOT
BRANCH   1   3
ATOM      3  C   UNL     1      23.038  16.922  26.013  0.00  0.00    +0.000 C 
ATOM      4  C   UNL     1      23.241  18.425  25.797  0.00  0.00    +0.000 C 
BRANCH   4   5
ATOM      5  C   UNL     1      23.443  19.928  25.582  0.00  0.00    +0.000 C 
ATOM      6  C   UNL     1      23.648  21.431  25.367  0.00  0.00    +0.000 C 
BRANCH   6   7
ATOM      7  C   UNL     1      23.851  22.934  25.152  0.00  0.00    +0.000 C 
ATOM      8  C   UNL     1      24.055  24.437  24.938  0.00  0.00    +0.000 C 
BRANCH   8   9
ATOM      9  C   UNL     1      24.260  25.939  24.723  0.00  0.00    +0.000 C 
ATOM     10  C   UNL     1      24.464  27.442  24.508  0.00  0.00    +0.000 C 
BRANCH  10  11
ATOM     11  O   UNL     1      24.641  28.744  24.323  0.00  0.00    +0.000 OA
ATOM     12  H   UNL     1      24.591  29.217  25.171  0.00  0.00    +0.000 HD
ENDBRANCH  10  11
ENDBRANCH   8   9
ENDBRANCH   6   7
ENDBRANCH   4   5
ENDBRANCH   1   3
BRANCH   2  13
ATOM     13  C   UNL     1      22.490  12.852  26.600  0.00  0.00    +0.000 C 
BRANCH  13  14
ATOM     14  O   UNL     1      21.532  12.465  27.508  0.00  0.00    +0.000 OA
ATOM     15  H   UNL     1      20.808  13.111  27.562  0.00  0.00    +0.000 HD
ENDBRANCH  13  14
BRANCH  13  16
ATOM     16  C   UNL     1      23.231  11.852  25.919  0.00  0.00    +0.000 C 
ATOM     17  C   UNL     1      23.859  11.006  25.343  0.00  0.00    +0.000 C 
BRANCH  17  18
ATOM     18  C   UNL     1      24.661   9.928  24.610  0.00  0.00    +0.000 C 
ATOM     19  C   UNL     1      25.291   9.083  24.034  0.00  0.00    +0.000 C 
BRANCH  19  20
ATOM     20  C   UNL     1      26.036   8.084  23.353  0.00  0.00    +0.000 C 
BRANCH  20  21
ATOM     21  C   UNL     1      27.141   7.402  23.934  0.00  0.00    +0.000 C 
ATOM     22  C   UNL     1      28.169   6.748  24.479  0.00  0.00    +0.000 C 
ENDBRANCH  20  21
BRANCH  20  23
ATOM     23  O   UNL     1      25.670   7.760  22.063  0.00  0.00    +0.000 OA
ATOM     24  H   UNL     1      25.766   8.516  21.458  0.00  0.00    +0.000 HD
ENDBRANCH  20  23
ENDBRANCH  19  20
ENDBRANCH  17  18
ENDBRANCH  13  16
ENDBRANCH   2  13
TORSDOF 12
ENDMDL
MODEL 3
REMARK VINA RESULT:      -4.0     22.595     26.535
REMARK  Name = 86311066_OplopantriolA.pdbqt.pdb
REMARK  12 active torsions:
REMARK  status: ('A' for Active; 'I' for Inactive)
REMARK    1  A    between atoms: C_1  and  C_3
REMARK    2  A    between atoms: C_2  and  C_13
REMARK    3  A    between atoms: C_4  and  C_5
REMARK    4  A    between atoms: C_6  and  C_7
REMARK    5  A    between atoms: C_8  and  C_9
REMARK    6  A    between atoms: C_10  and  O_11
REMARK    7  A    between atoms: C_13  and  O_14
REMARK    8  A    between atoms: C_13  and  C_16
REMARK    9  A    between atoms: C_17  and  C_18
REMARK   10  A    between atoms: C_19  and  C_20
REMARK   11  A    between atoms: C_20  and  C_21
REMARK   12  A    between atoms: C_20  and  O_23
REMARK                            x       y       z     vdW  Elec       q    Type
REMARK                         _______ _______ _______ _____ _____    ______ ____
ROOT
ATOM      1  C   UNL     1       8.393  33.810  15.000  0.00  0.00    +0.000 C 
ATOM      2  C   UNL     1       7.310  33.820  15.521  0.00  0.00    +0.000 C 
ENDROOT
BRANCH   1   3
ATOM      3  C   UNL     1       9.772  33.798  14.335  0.00  0.00    +0.000 C 
ATOM      4  C   UNL     1      11.152  33.786  13.670  0.00  0.00    +0.000 C 
BRANCH   4   5
ATOM      5  C   UNL     1      12.532  33.773  13.006  0.00  0.00    +0.000 C 
ATOM      6  C   UNL     1      13.911  33.761  12.340  0.00  0.00    +0.000 C 
BRANCH   6   7
ATOM      7  C   UNL     1      15.290  33.748  11.674  0.00  0.00    +0.000 C 
ATOM      8  C   UNL     1      16.670  33.735  11.008  0.00  0.00    +0.000 C 
BRANCH   8   9
ATOM      9  C   UNL     1      18.049  33.721  10.342  0.00  0.00    +0.000 C 
ATOM     10  C   UNL     1      19.427  33.708   9.675  0.00  0.00    +0.000 C 
BRANCH  10  11
ATOM     11  O   UNL     1      20.623  33.696   9.098  0.00  0.00    +0.000 OA
ATOM     12  H   UNL     1      20.545  33.434   8.165  0.00  0.00    +0.000 HD
ENDBRANCH  10  11
ENDBRANCH   8   9
ENDBRANCH   6   7
ENDBRANCH   4   5
ENDBRANCH   1   3
BRANCH   2  13
ATOM     13  C   UNL     1       6.034  33.830  16.134  0.00  0.00    +0.000 C 
BRANCH  13  14
ATOM     14  O   UNL     1       5.933  34.400  17.383  0.00  0.00    +0.000 OA
ATOM     15  H   UNL     1       5.021  34.676  17.578  0.00  0.00    +0.000 HD
ENDBRANCH  13  14
BRANCH  13  16
ATOM     16  C   UNL     1       4.868  33.289  15.534  0.00  0.00    +0.000 C 
ATOM     17  C   UNL     1       3.881  32.831  15.027  0.00  0.00    +0.000 C 
BRANCH  17  18
ATOM     18  C   UNL     1       2.621  32.247  14.381  0.00  0.00    +0.000 C 
ATOM     19  C   UNL     1       1.633  31.789  13.876  0.00  0.00    +0.000 C 
BRANCH  19  20
ATOM     20  C   UNL     1       0.464  31.247  13.278  0.00  0.00    +0.000 C 
BRANCH  20  21
ATOM     21  C   UNL     1       0.375  29.906  12.812  0.00  0.00    +0.000 C 
ATOM     22  C   UNL     1       0.307  28.646  12.378  0.00  0.00    +0.000 C 
ENDBRANCH  20  21
BRANCH  20  23
ATOM     23  O   UNL     1      -0.641  32.064  13.142  0.00  0.00    +0.000 OA
ATOM     24  H   UNL     1      -0.622  32.562  12.307  0.00  0.00    +0.000 HD
ENDBRANCH  20  23
ENDBRANCH  19  20
ENDBRANCH  17  18
ENDBRANCH  13  16
ENDBRANCH   2  13
TORSDOF 12
ENDMDL
MODEL 4
REMARK VINA RESULT:      -3.9     29.269     29.637
REMARK  Name = 86311066_OplopantriolA.pdbqt.pdb
REMARK  12 active torsions:
REMARK  status: ('A' for Active; 'I' for Inactive)
REMARK    1  A    between atoms: C_1  and  C_3
REMARK    2  A    between atoms: C_2  and  C_13
REMARK    3  A    between atoms: C_4  and  C_5
REMARK    4  A    between atoms: C_6  and  C_7
REMARK    5  A    between atoms: C_8  and  C_9
REMARK    6  A    between atoms: C_10  and  O_11
REMARK    7  A    between atoms: C_13  and  O_14
REMARK    8  A    between atoms: C_13  and  C_16
REMARK    9  A    between atoms: C_17  and  C_18
REMARK   10  A    between atoms: C_19  and  C_20
REMARK   11  A    between atoms: C_20  and  C_21
REMARK   12  A    between atoms: C_20  and  O_23
REMARK                            x       y       z     vdW  Elec       q    Type
REMARK                         _______ _______ _______ _____ _____    ______ ____
ROOT
ATOM      1  C   UNL     1      14.841  20.359   2.010  0.00  0.00    +0.000 C 
ATOM      2  C   UNL     1      16.033  20.345   2.156  0.00  0.00    +0.000 C 
ENDROOT
BRANCH   1   3
ATOM      3  C   UNL     1      13.321  20.378   1.823  0.00  0.00    +0.000 C 
ATOM      4  C   UNL     1      11.801  20.398   1.636  0.00  0.00    +0.000 C 
BRANCH   4   5
ATOM      5  C   UNL     1      10.281  20.417   1.451  0.00  0.00    +0.000 C 
ATOM      6  C   UNL     1       8.761  20.435   1.263  0.00  0.00    +0.000 C 
BRANCH   6   7
ATOM      7  C   UNL     1       7.241  20.454   1.076  0.00  0.00    +0.000 C 
ATOM      8  C   UNL     1       5.721  20.472   0.889  0.00  0.00    +0.000 C 
BRANCH   8   9
ATOM      9  C   UNL     1       4.201  20.492   0.702  0.00  0.00    +0.000 C 
ATOM     10  C   UNL     1       2.680  20.512   0.517  0.00  0.00    +0.000 C 
BRANCH  10  11
ATOM     11  O   UNL     1       1.363  20.530   0.355  0.00  0.00    +0.000 OA
ATOM     12  H   UNL     1       1.074  19.753  -0.153  0.00  0.00    +0.000 HD
ENDBRANCH  10  11
ENDBRANCH   8   9
ENDBRANCH   6   7
ENDBRANCH   4   5
ENDBRANCH   1   3
BRANCH   2  13
ATOM     13  C   UNL     1      17.439  20.329   2.330  0.00  0.00    +0.000 C 
BRANCH  13  14
ATOM     14  O   UNL     1      18.039  19.110   2.547  0.00  0.00    +0.000 OA
ATOM     15  H   UNL     1      17.398  18.381   2.490  0.00  0.00    +0.000 HD
ENDBRANCH  13  14
BRANCH  13  16
ATOM     16  C   UNL     1      18.250  21.493   2.292  0.00  0.00    +0.000 C 
ATOM     17  C   UNL     1      18.935  22.478   2.260  0.00  0.00    +0.000 C 
BRANCH  17  18
ATOM     18  C   UNL     1      19.807  23.735   2.220  0.00  0.00    +0.000 C 
ATOM     19  C   UNL     1      20.491  24.721   2.188  0.00  0.00    +0.000 C 
BRANCH  19  20
ATOM     20  C   UNL     1      21.301  25.888   2.151  0.00  0.00    +0.000 C 
BRANCH  20  21
ATOM     21  C   UNL     1      22.273  26.196   3.144  0.00  0.00    +0.000 C 
ATOM     22  C   UNL     1      23.185  26.499   4.069  0.00  0.00    +0.000 C 
ENDBRANCH  20  21
BRANCH  20  23
ATOM     23  O   UNL     1      21.135  26.767   1.101  0.00  0.00    +0.000 OA
ATOM     24  H   UNL     1      21.807  27.470   1.107  0.00  0.00    +0.000 HD
ENDBRANCH  20  23
ENDBRANCH  19  20
ENDBRANCH  17  18
ENDBRANCH  13  16
ENDBRANCH   2  13
TORSDOF 12
ENDMDL
MODEL 5
REMARK VINA RESULT:      -3.9     15.854     18.104
REMARK  Name = 86311066_OplopantriolA.pdbqt.pdb
REMARK  12 active torsions:
REMARK  status: ('A' for Active; 'I' for Inactive)
REMARK    1  A    between atoms: C_1  and  C_3
REMARK    2  A    between atoms: C_2  and  C_13
REMARK    3  A    between atoms: C_4  and  C_5
REMARK    4  A    between atoms: C_6  and  C_7
REMARK    5  A    between atoms: C_8  and  C_9
REMARK    6  A    between atoms: C_10  and  O_11
REMARK    7  A    between atoms: C_13  and  O_14
REMARK    8  A    between atoms: C_13  and  C_16
REMARK    9  A    between atoms: C_17  and  C_18
REMARK   10  A    between atoms: C_19  and  C_20
REMARK   11  A    between atoms: C_20  and  C_21
REMARK   12  A    between atoms: C_20  and  O_23
REMARK                            x       y       z     vdW  Elec       q    Type
REMARK                         _______ _______ _______ _____ _____    ______ ____
ROOT
ATOM      1  C   UNL     1       3.976   6.096  24.613  0.00  0.00    +0.000 C 
ATOM      2  C   UNL     1       4.324   4.947  24.563  0.00  0.00    +0.000 C 
ENDROOT
BRANCH   1   3
ATOM      3  C   UNL     1       3.531   7.559  24.677  0.00  0.00    +0.000 C 
ATOM      4  C   UNL     1       3.085   9.023  24.741  0.00  0.00    +0.000 C 
BRANCH   4   5
ATOM      5  C   UNL     1       2.639  10.487  24.805  0.00  0.00    +0.000 C 
ATOM      6  C   UNL     1       2.193  11.951  24.866  0.00  0.00    +0.000 C 
BRANCH   6   7
ATOM      7  C   UNL     1       1.746  13.415  24.928  0.00  0.00    +0.000 C 
ATOM      8  C   UNL     1       1.300  14.879  24.990  0.00  0.00    +0.000 C 
BRANCH   8   9
ATOM      9  C   UNL     1       0.856  16.343  25.052  0.00  0.00    +0.000 C 
ATOM     10  C   UNL     1       0.410  17.807  25.114  0.00  0.00    +0.000 C 
BRANCH  10  11
ATOM     11  O   UNL     1       0.024  19.076  25.169  0.00  0.00    +0.000 OA
ATOM     12  H   UNL     1       0.384  19.572  24.414  0.00  0.00    +0.000 HD
ENDBRANCH  10  11
ENDBRANCH   8   9
ENDBRANCH   6   7
ENDBRANCH   4   5
ENDBRANCH   1   3
BRANCH   2  13
ATOM     13  C   UNL     1       4.735   3.593  24.503  0.00  0.00    +0.000 C 
BRANCH  13  14
ATOM     14  O   UNL     1       5.090   2.983  25.684  0.00  0.00    +0.000 OA
ATOM     15  H   UNL     1       5.983   3.241  25.966  0.00  0.00    +0.000 HD
ENDBRANCH  13  14
BRANCH  13  16
ATOM     16  C   UNL     1       4.798   2.842  23.300  0.00  0.00    +0.000 C 
ATOM     17  C   UNL     1       4.851   2.207  22.284  0.00  0.00    +0.000 C 
BRANCH  17  18
ATOM     18  C   UNL     1       4.918   1.394  20.988  0.00  0.00    +0.000 C 
ATOM     19  C   UNL     1       4.971   0.757  19.971  0.00  0.00    +0.000 C 
BRANCH  19  20
ATOM     20  C   UNL     1       5.033   0.002  18.770  0.00  0.00    +0.000 C 
BRANCH  20  21
ATOM     21  C   UNL     1       5.793  -1.193  18.637  0.00  0.00    +0.000 C 
ATOM     22  C   UNL     1       6.515  -2.310  18.524  0.00  0.00    +0.000 C 
ENDBRANCH  20  21
BRANCH  20  23
ATOM     23  O   UNL     1       4.320   0.452  17.677  0.00  0.00    +0.000 OA
ATOM     24  H   UNL     1       3.382   0.593  17.890  0.00  0.00    +0.000 HD
ENDBRANCH  20  23
ENDBRANCH  19  20
ENDBRANCH  17  18
ENDBRANCH  13  16
ENDBRANCH   2  13
TORSDOF 12
ENDMDL
MODEL 6
REMARK VINA RESULT:      -3.9     27.847     29.412
REMARK  Name = 86311066_OplopantriolA.pdbqt.pdb
REMARK  12 active torsions:
REMARK  status: ('A' for Active; 'I' for Inactive)
REMARK    1  A    between atoms: C_1  and  C_3
REMARK    2  A    between atoms: C_2  and  C_13
REMARK    3  A    between atoms: C_4  and  C_5
REMARK    4  A    between atoms: C_6  and  C_7
REMARK    5  A    between atoms: C_8  and  C_9
REMARK    6  A    between atoms: C_10  and  O_11
REMARK    7  A    between atoms: C_13  and  O_14
REMARK    8  A    between atoms: C_13  and  C_16
REMARK    9  A    between atoms: C_17  and  C_18
REMARK   10  A    between atoms: C_19  and  C_20
REMARK   11  A    between atoms: C_20  and  C_21
REMARK   12  A    between atoms: C_20  and  O_23
REMARK                            x       y       z     vdW  Elec       q    Type
REMARK                         _______ _______ _______ _____ _____    ______ ____
ROOT
ATOM      1  C   UNL     1      19.309  24.734   2.153  0.00  0.00    +0.000 C 
ATOM      2  C   UNL     1      20.170  25.572   2.154  0.00  0.00    +0.000 C 
ENDROOT
BRANCH   1   3
ATOM      3  C   UNL     1      18.212  23.667   2.152  0.00  0.00    +0.000 C 
ATOM      4  C   UNL     1      17.113  22.599   2.151  0.00  0.00    +0.000 C 
BRANCH   4   5
ATOM      5  C   UNL     1      16.015  21.532   2.151  0.00  0.00    +0.000 C 
ATOM      6  C   UNL     1      14.917  20.464   2.153  0.00  0.00    +0.000 C 
BRANCH   6   7
ATOM      7  C   UNL     1      13.819  19.395   2.154  0.00  0.00    +0.000 C 
ATOM      8  C   UNL     1      12.722  18.327   2.155  0.00  0.00    +0.000 C 
BRANCH   8   9
ATOM      9  C   UNL     1      11.625  17.258   2.157  0.00  0.00    +0.000 C 
ATOM     10  C   UNL     1      10.528  16.189   2.158  0.00  0.00    +0.000 C 
BRANCH  10  11
ATOM     11  O   UNL     1       9.577  15.263   2.159  0.00  0.00    +0.000 OA
ATOM     12  H   UNL     1       8.702  15.676   2.252  0.00  0.00    +0.000 HD
ENDBRANCH  10  11
ENDBRANCH   8   9
ENDBRANCH   6   7
ENDBRANCH   4   5
ENDBRANCH   1   3
BRANCH   2  13
ATOM     13  C   UNL     1      21.184  26.561   2.156  0.00  0.00    +0.000 C 
BRANCH  13  14
ATOM     14  O   UNL     1      21.265  27.391   1.061  0.00  0.00    +0.000 OA
ATOM     15  H   UNL     1      21.429  26.891   0.244  0.00  0.00    +0.000 HD
ENDBRANCH  13  14
BRANCH  13  16
ATOM     16  C   UNL     1      22.110  26.736   3.217  0.00  0.00    +0.000 C 
ATOM     17  C   UNL     1      22.893  26.884   4.114  0.00  0.00    +0.000 C 
BRANCH  17  18
ATOM     18  C   UNL     1      23.893  27.070   5.259  0.00  0.00    +0.000 C 
ATOM     19  C   UNL     1      24.677  27.216   6.156  0.00  0.00    +0.000 C 
BRANCH  19  20
ATOM     20  C   UNL     1      25.603  27.388   7.219  0.00  0.00    +0.000 C 
BRANCH  20  21
ATOM     21  C   UNL     1      26.107  26.310   7.999  0.00  0.00    +0.000 C 
ATOM     22  C   UNL     1      26.575  25.306   8.744  0.00  0.00    +0.000 C 
ENDBRANCH  20  21
BRANCH  20  23
ATOM     23  O   UNL     1      26.035  28.667   7.510  0.00  0.00    +0.000 OA
ATOM     24  H   UNL     1      26.597  29.029   6.803  0.00  0.00    +0.000 HD
ENDBRANCH  20  23
ENDBRANCH  19  20
ENDBRANCH  17  18
ENDBRANCH  13  16
ENDBRANCH   2  13
TORSDOF 12
ENDMDL
MODEL 7
REMARK VINA RESULT:      -3.9     14.763     21.022
REMARK  Name = 86311066_OplopantriolA.pdbqt.pdb
REMARK  12 active torsions:
REMARK  status: ('A' for Active; 'I' for Inactive)
REMARK    1  A    between atoms: C_1  and  C_3
REMARK    2  A    between atoms: C_2  and  C_13
REMARK    3  A    between atoms: C_4  and  C_5
REMARK    4  A    between atoms: C_6  and  C_7
REMARK    5  A    between atoms: C_8  and  C_9
REMARK    6  A    between atoms: C_10  and  O_11
REMARK    7  A    between atoms: C_13  and  O_14
REMARK    8  A    between atoms: C_13  and  C_16
REMARK    9  A    between atoms: C_17  and  C_18
REMARK   10  A    between atoms: C_19  and  C_20
REMARK   11  A    between atoms: C_20  and  C_21
REMARK   12  A    between atoms: C_20  and  O_23
REMARK                            x       y       z     vdW  Elec       q    Type
REMARK                         _______ _______ _______ _____ _____    ______ ____
ROOT
ATOM      1  C   UNL     1      28.116  12.124  20.537  0.00  0.00    +0.000 C 
ATOM      2  C   UNL     1      28.701  12.054  19.490  0.00  0.00    +0.000 C 
ENDROOT
BRANCH   1   3
ATOM      3  C   UNL     1      27.370  12.213  21.870  0.00  0.00    +0.000 C 
ATOM      4  C   UNL     1      26.623  12.303  23.205  0.00  0.00    +0.000 C 
BRANCH   4   5
ATOM      5  C   UNL     1      25.878  12.393  24.540  0.00  0.00    +0.000 C 
ATOM      6  C   UNL     1      25.130  12.484  25.874  0.00  0.00    +0.000 C 
BRANCH   6   7
ATOM      7  C   UNL     1      24.384  12.574  27.208  0.00  0.00    +0.000 C 
ATOM      8  C   UNL     1      23.638  12.665  28.543  0.00  0.00    +0.000 C 
BRANCH   8   9
ATOM      9  C   UNL     1      22.891  12.755  29.877  0.00  0.00    +0.000 C 
ATOM     10  C   UNL     1      22.145  12.844  31.212  0.00  0.00    +0.000 C 
BRANCH  10  11
ATOM     11  O   UNL     1      21.498  12.922  32.368  0.00  0.00    +0.000 OA
ATOM     12  H   UNL     1      21.367  13.852  32.621  0.00  0.00    +0.000 HD
ENDBRANCH  10  11
ENDBRANCH   8   9
ENDBRANCH   6   7
ENDBRANCH   4   5
ENDBRANCH   1   3
BRANCH   2  13
ATOM     13  C   UNL     1      29.390  11.973  18.255  0.00  0.00    +0.000 C 
BRANCH  13  14
ATOM     14  O   UNL     1      30.491  11.149  18.195  0.00  0.00    +0.000 OA
ATOM     15  H   UNL     1      31.032  11.332  17.408  0.00  0.00    +0.000 HD
ENDBRANCH  13  14
BRANCH  13  16
ATOM     16  C   UNL     1      29.008  12.689  17.092  0.00  0.00    +0.000 C 
ATOM     17  C   UNL     1      28.683  13.294  16.107  0.00  0.00    +0.000 C 
BRANCH  17  18
ATOM     18  C   UNL     1      28.267  14.065  14.852  0.00  0.00    +0.000 C 
ATOM     19  C   UNL     1      27.941  14.670  13.867  0.00  0.00    +0.000 C 
BRANCH  19  20
ATOM     20  C   UNL     1      27.555  15.386  12.703  0.00  0.00    +0.000 C 
BRANCH  20  21
ATOM     21  C   UNL     1      28.219  15.259  11.451  0.00  0.00    +0.000 C 
ATOM     22  C   UNL     1      28.845  15.154  10.277  0.00  0.00    +0.000 C 
ENDBRANCH  20  21
BRANCH  20  23
ATOM     23  O   UNL     1      26.483  16.251  12.792  0.00  0.00    +0.000 OA
ATOM     24  H   UNL     1      26.198  16.565  11.917  0.00  0.00    +0.000 HD
ENDBRANCH  20  23
ENDBRANCH  19  20
ENDBRANCH  17  18
ENDBRANCH  13  16
ENDBRANCH   2  13
TORSDOF 12
ENDMDL
MODEL 8
REMARK VINA RESULT:      -3.8     21.007     24.734
REMARK  Name = 86311066_OplopantriolA.pdbqt.pdb
REMARK  12 active torsions:
REMARK  status: ('A' for Active; 'I' for Inactive)
REMARK    1  A    between atoms: C_1  and  C_3
REMARK    2  A    between atoms: C_2  and  C_13
REMARK    3  A    between atoms: C_4  and  C_5
REMARK    4  A    between atoms: C_6  and  C_7
REMARK    5  A    between atoms: C_8  and  C_9
REMARK    6  A    between atoms: C_10  and  O_11
REMARK    7  A    between atoms: C_13  and  O_14
REMARK    8  A    between atoms: C_13  and  C_16
REMARK    9  A    between atoms: C_17  and  C_18
REMARK   10  A    between atoms: C_19  and  C_20
REMARK   11  A    between atoms: C_20  and  C_21
REMARK   12  A    between atoms: C_20  and  O_23
REMARK                            x       y       z     vdW  Elec       q    Type
REMARK                         _______ _______ _______ _____ _____    ______ ____
ROOT
ATOM      1  C   UNL     1      27.141   4.994  19.462  0.00  0.00    +0.000 C 
ATOM      2  C   UNL     1      26.957   3.824  19.263  0.00  0.00    +0.000 C 
ENDROOT
BRANCH   1   3
ATOM      3  C   UNL     1      27.377   6.485  19.715  0.00  0.00    +0.000 C 
ATOM      4  C   UNL     1      27.612   7.978  19.968  0.00  0.00    +0.000 C 
BRANCH   4   5
ATOM      5  C   UNL     1      27.847   9.470  20.220  0.00  0.00    +0.000 C 
ATOM      6  C   UNL     1      28.084  10.963  20.470  0.00  0.00    +0.000 C 
BRANCH   6   7
ATOM      7  C   UNL     1      28.320  12.455  20.721  0.00  0.00    +0.000 C 
ATOM      8  C   UNL     1      28.557  13.947  20.972  0.00  0.00    +0.000 C 
BRANCH   8   9
ATOM      9  C   UNL     1      28.794  15.439  21.223  0.00  0.00    +0.000 C 
ATOM     10  C   UNL     1      29.031  16.931  21.475  0.00  0.00    +0.000 C 
BRANCH  10  11
ATOM     11  O   UNL     1      29.237  18.225  21.694  0.00  0.00    +0.000 OA
ATOM     12  H   UNL     1      29.653  18.359  22.562  0.00  0.00    +0.000 HD
ENDBRANCH  10  11
ENDBRANCH   8   9
ENDBRANCH   6   7
ENDBRANCH   4   5
ENDBRANCH   1   3
BRANCH   2  13
ATOM     13  C   UNL     1      26.740   2.444  19.030  0.00  0.00    +0.000 C 
BRANCH  13  14
ATOM     14  O   UNL     1      27.719   1.568  19.442  0.00  0.00    +0.000 OA
ATOM     15  H   UNL     1      28.432   1.493  18.786  0.00  0.00    +0.000 HD
ENDBRANCH  13  14
BRANCH  13  16
ATOM     16  C   UNL     1      25.580   1.925  18.400  0.00  0.00    +0.000 C 
ATOM     17  C   UNL     1      24.598   1.485  17.867  0.00  0.00    +0.000 C 
BRANCH  17  18
ATOM     18  C   UNL     1      23.347   0.922  17.187  0.00  0.00    +0.000 C 
ATOM     19  C   UNL     1      22.366   0.481  16.653  0.00  0.00    +0.000 C 
BRANCH  19  20
ATOM     20  C   UNL     1      21.207  -0.041  16.021  0.00  0.00    +0.000 C 
BRANCH  20  21
ATOM     21  C   UNL     1      20.061  -0.489  16.737  0.00  0.00    +0.000 C 
ATOM     22  C   UNL     1      18.995  -0.920  17.415  0.00  0.00    +0.000 C 
ENDBRANCH  20  21
BRANCH  20  23
ATOM     23  O   UNL     1      21.191  -0.120  14.643  0.00  0.00    +0.000 OA
ATOM     24  H   UNL     1      21.621   0.650  14.232  0.00  0.00    +0.000 HD
ENDBRANCH  20  23
ENDBRANCH  19  20
ENDBRANCH  17  18
ENDBRANCH  13  16
ENDBRANCH   2  13
TORSDOF 12
ENDMDL
MODEL 9
REMARK VINA RESULT:      -3.7     19.087     22.339
REMARK  Name = 86311066_OplopantriolA.pdbqt.pdb
REMARK  12 active torsions:
REMARK  status: ('A' for Active; 'I' for Inactive)
REMARK    1  A    between atoms: C_1  and  C_3
REMARK    2  A    between atoms: C_2  and  C_13
REMARK    3  A    between atoms: C_4  and  C_5
REMARK    4  A    between atoms: C_6  and  C_7
REMARK    5  A    between atoms: C_8  and  C_9
REMARK    6  A    between atoms: C_10  and  O_11
REMARK    7  A    between atoms: C_13  and  O_14
REMARK    8  A    between atoms: C_13  and  C_16
REMARK    9  A    between atoms: C_17  and  C_18
REMARK   10  A    between atoms: C_19  and  C_20
REMARK   11  A    between atoms: C_20  and  C_21
REMARK   12  A    between atoms: C_20  and  O_23
REMARK                            x       y       z     vdW  Elec       q    Type
REMARK                         _______ _______ _______ _____ _____    ______ ____
ROOT
ATOM      1  C   UNL     1      28.712   9.762  20.661  0.00  0.00    +0.000 C 
ATOM      2  C   UNL     1      29.401  10.291  19.832  0.00  0.00    +0.000 C 
ENDROOT
BRANCH   1   3
ATOM      3  C   UNL     1      27.833   9.089  21.718  0.00  0.00    +0.000 C 
ATOM      4  C   UNL     1      26.953   8.415  22.776  0.00  0.00    +0.000 C 
BRANCH   4   5
ATOM      5  C   UNL     1      26.074   7.740  23.833  0.00  0.00    +0.000 C 
ATOM      6  C   UNL     1      25.194   7.068  24.891  0.00  0.00    +0.000 C 
BRANCH   6   7
ATOM      7  C   UNL     1      24.315   6.394  25.949  0.00  0.00    +0.000 C 
ATOM      8  C   UNL     1      23.436   5.720  27.007  0.00  0.00    +0.000 C 
BRANCH   8   9
ATOM      9  C   UNL     1      22.556   5.048  28.065  0.00  0.00    +0.000 C 
ATOM     10  C   UNL     1      21.676   4.375  29.123  0.00  0.00    +0.000 C 
BRANCH  10  11
ATOM     11  O   UNL     1      20.914   3.792  30.040  0.00  0.00    +0.000 OA
ATOM     12  H   UNL     1      21.331   3.853  30.916  0.00  0.00    +0.000 HD
ENDBRANCH  10  11
ENDBRANCH   8   9
ENDBRANCH   6   7
ENDBRANCH   4   5
ENDBRANCH   1   3
BRANCH   2  13
ATOM     13  C   UNL     1      30.216  10.914  18.855  0.00  0.00    +0.000 C 
BRANCH  13  14
ATOM     14  O   UNL     1      31.509  10.462  18.722  0.00  0.00    +0.000 OA
ATOM     15  H   UNL     1      32.031  11.038  18.140  0.00  0.00    +0.000 HD
ENDBRANCH  13  14
BRANCH  13  16
ATOM     16  C   UNL     1      29.771  11.969  18.016  0.00  0.00    +0.000 C 
ATOM     17  C   UNL     1      29.394  12.861  17.307  0.00  0.00    +0.000 C 
BRANCH  17  18
ATOM     18  C   UNL     1      28.912  14.000  16.405  0.00  0.00    +0.000 C 
ATOM     19  C   UNL     1      28.534  14.893  15.697  0.00  0.00    +0.000 C 
BRANCH  19  20
ATOM     20  C   UNL     1      28.088  15.949  14.859  0.00  0.00    +0.000 C 
BRANCH  20  21
ATOM     21  C   UNL     1      27.507  15.737  13.577  0.00  0.00    +0.000 C 
ATOM     22  C   UNL     1      26.957  15.553  12.375  0.00  0.00    +0.000 C 
ENDBRANCH  20  21
BRANCH  20  23
ATOM     23  O   UNL     1      28.225  17.246  15.310  0.00  0.00    +0.000 OA
ATOM     24  H   UNL     1      28.417  17.864  14.583  0.00  0.00    +0.000 HD
ENDBRANCH  20  23
ENDBRANCH  19  20
ENDBRANCH  17  18
ENDBRANCH  13  16
ENDBRANCH   2  13
TORSDOF 12
ENDMDL
