MODEL 1
REMARK VINA RESULT:      -7.3      0.000      0.000
REMARK  Name = 91746246_sitosterol.pdbqt.pdb
REMARK  10 active torsions:
REMARK  status: ('A' for Active; 'I' for Inactive)
REMARK    1  A    between atoms: C_5  and  C_20
REMARK    2  A    between atoms: C_19  and  O_30
REMARK    3  A    between atoms: C_20  and  C_22
REMARK    4  A    between atoms: C_23  and  C_24
REMARK    5  A    between atoms: C_24  and  C_28
REMARK    6  A    between atoms: O_30  and  C_32
REMARK    7  A    between atoms: C_32  and  C_33
REMARK    8  A    between atoms: C_34  and  C_35
REMARK    9  A    between atoms: C_38  and  O_41
REMARK   10  A    between atoms: C_40  and  O_43
REMARK                            x       y       z     vdW  Elec       q    Type
REMARK                         _______ _______ _______ _____ _____    ______ ____
ROOT
ATOM      1  C   UNL     1      29.937  13.832  16.860  0.00  0.00    +0.000 C 
ATOM      2  C   UNL     1      29.295  12.373  17.151  0.00  0.00    +0.000 C 
ATOM      3  C   UNL     1      29.048  11.877  18.520  0.00  0.00    +0.000 C 
ATOM      4  C   UNL     1      29.100  12.701  19.782  0.00  0.00    +0.000 C 
ATOM      5  C   UNL     1      29.086  14.359  15.711  0.00  0.00    +0.000 C 
ATOM      6  C   UNL     1      29.789  14.557  18.122  0.00  0.00    +0.000 C 
ATOM      7  C   UNL     1      28.885  12.115  21.202  0.00  0.00    +0.000 C 
ATOM      8  C   UNL     1      28.350  12.109  16.109  0.00  0.00    +0.000 C 
ATOM      9  C   UNL     1      29.429  14.053  19.498  0.00  0.00    +0.000 C 
ATOM     10  C   UNL     1      28.207  13.336  15.250  0.00  0.00    +0.000 C 
ATOM     11  C   UNL     1      28.574  10.562  18.747  0.00  0.00    +0.000 C 
ATOM     12  C   UNL     1      31.405  13.600  16.412  0.00  0.00    +0.000 C 
ATOM     13  C   UNL     1      28.152  10.637  21.214  0.00  0.00    +0.000 C 
ATOM     14  C   UNL     1      27.953  12.978  21.986  0.00  0.00    +0.000 C 
ATOM     15  C   UNL     1      28.151  10.012  20.076  0.00  0.00    +0.000 C 
ATOM     16  C   UNL     1      30.265  11.952  21.906  0.00  0.00    +0.000 C 
ATOM     17  C   UNL     1      26.964  10.541  22.032  0.00  0.00    +0.000 C 
ATOM     18  C   UNL     1      26.658  12.709  22.771  0.00  0.00    +0.000 C 
ATOM     19  C   UNL     1      26.106  11.385  22.822  0.00  0.00    +0.000 C 
ENDROOT
BRANCH   5  20
ATOM     20  C   UNL     1      29.324  15.595  15.037  0.00  0.00    +0.000 C 
ATOM     21  C   UNL     1      29.822  15.655  13.619  0.00  0.00    +0.000 C 
BRANCH  20  22
ATOM     22  C   UNL     1      29.341  16.827  15.750  0.00  0.00    +0.000 C 
ATOM     23  C   UNL     1      29.360  18.155  16.522  0.00  0.00    +0.000 C 
BRANCH  23  24
ATOM     24  C   UNL     1      29.362  19.385  17.246  0.00  0.00    +0.000 C 
ATOM     25  C   UNL     1      29.162  19.411  18.680  0.00  0.00    +0.000 C 
ATOM     26  C   UNL     1      29.114  20.688  19.490  0.00  0.00    +0.000 C 
ATOM     27  C   UNL     1      28.986  18.153  19.504  0.00  0.00    +0.000 C 
BRANCH  24  28
ATOM     28  C   UNL     1      29.562  20.607  16.549  0.00  0.00    +0.000 C 
ATOM     29  C   UNL     1      29.848  21.913  15.800  0.00  0.00    +0.000 C 
ENDBRANCH  24  28
ENDBRANCH  23  24
ENDBRANCH  20  22
ENDBRANCH   5  20
BRANCH  19  30
ATOM     30  O   UNL     1      25.587  10.875  24.008  0.00  0.00    +0.000 OA
BRANCH  30  32
ATOM     31  O   UNL     1      23.361  10.338  23.606  0.00  0.00    +0.000 OA
ATOM     32  C   UNL     1      24.235  11.047  24.081  0.00  0.00    +0.000 C 
BRANCH  32  33
ATOM     33  C   UNL     1      23.892  12.213  24.856  0.00  0.00    +0.000 C 
ATOM     34  C   UNL     1      23.619  13.195  25.493  0.00  0.00    +0.000 C 
BRANCH  34  35
ATOM     35  C   UNL     1      23.309  14.370  26.240  0.00  0.00    +0.000 A 
ATOM     36  C   UNL     1      23.599  15.625  25.707  0.00  0.00    +0.000 A 
ATOM     37  C   UNL     1      22.725  14.263  27.499  0.00  0.00    +0.000 A 
ATOM     38  C   UNL     1      23.309  16.788  26.425  0.00  0.00    +0.000 A 
ATOM     39  C   UNL     1      22.430  15.414  28.226  0.00  0.00    +0.000 A 
ATOM     40  C   UNL     1      22.724  16.666  27.688  0.00  0.00    +0.000 A 
BRANCH  38  41
ATOM     41  O   UNL     1      23.564  18.060  25.974  0.00  0.00    +0.000 OA
ATOM     42  C   UNL     1      22.980  18.394  24.741  0.00  0.00    +0.000 C 
ENDBRANCH  38  41
BRANCH  40  43
ATOM     43  O   UNL     1      22.434  17.793  28.408  0.00  0.00    +0.000 OA
ATOM     44  H   UNL     1      22.764  18.570  27.919  0.00  0.00    +0.000 HD
ENDBRANCH  40  43
ENDBRANCH  34  35
ENDBRANCH  32  33
ENDBRANCH  30  32
ENDBRANCH  19  30
TORSDOF 10
ENDMDL
MODEL 2
REMARK VINA RESULT:      -7.3      3.512      5.371
REMARK  Name = 91746246_sitosterol.pdbqt.pdb
REMARK  10 active torsions:
REMARK  status: ('A' for Active; 'I' for Inactive)
REMARK    1  A    between atoms: C_5  and  C_20
REMARK    2  A    between atoms: C_19  and  O_30
REMARK    3  A    between atoms: C_20  and  C_22
REMARK    4  A    between atoms: C_23  and  C_24
REMARK    5  A    between atoms: C_24  and  C_28
REMARK    6  A    between atoms: O_30  and  C_32
REMARK    7  A    between atoms: C_32  and  C_33
REMARK    8  A    between atoms: C_34  and  C_35
REMARK    9  A    between atoms: C_38  and  O_41
REMARK   10  A    between atoms: C_40  and  O_43
REMARK                            x       y       z     vdW  Elec       q    Type
REMARK                         _______ _______ _______ _____ _____    ______ ____
ROOT
ATOM      1  C   UNL     1      29.641  13.281  17.294  0.00  0.00    +0.000 C 
ATOM      2  C   UNL     1      29.180  11.789  17.728  0.00  0.00    +0.000 C 
ATOM      3  C   UNL     1      28.928  11.419  19.135  0.00  0.00    +0.000 C 
ATOM      4  C   UNL     1      28.803  12.376  20.294  0.00  0.00    +0.000 C 
ATOM      5  C   UNL     1      28.791  13.557  16.060  0.00  0.00    +0.000 C 
ATOM      6  C   UNL     1      29.332  14.113  18.456  0.00  0.00    +0.000 C 
ATOM      7  C   UNL     1      28.591  11.927  21.763  0.00  0.00    +0.000 C 
ATOM      8  C   UNL     1      28.336  11.285  16.689  0.00  0.00    +0.000 C 
ATOM      9  C   UNL     1      28.967  13.721  19.867  0.00  0.00    +0.000 C 
ATOM     10  C   UNL     1      28.079  12.379  15.688  0.00  0.00    +0.000 C 
ATOM     11  C   UNL     1      28.618  10.084  19.496  0.00  0.00    +0.000 C 
ATOM     12  C   UNL     1      31.148  13.203  16.934  0.00  0.00    +0.000 C 
ATOM     13  C   UNL     1      28.058  10.372  21.919  0.00  0.00    +0.000 C 
ATOM     14  C   UNL     1      27.512  12.735  22.405  0.00  0.00    +0.000 C 
ATOM     15  C   UNL     1      28.199   9.632  20.862  0.00  0.00    +0.000 C 
ATOM     16  C   UNL     1      29.940  12.031  22.534  0.00  0.00    +0.000 C 
ATOM     17  C   UNL     1      26.850  10.207  22.697  0.00  0.00    +0.000 C 
ATOM     18  C   UNL     1      26.224  12.381  23.165  0.00  0.00    +0.000 C 
ATOM     19  C   UNL     1      25.848  11.007  23.349  0.00  0.00    +0.000 C 
ENDROOT
BRANCH   5  20
ATOM     20  C   UNL     1      28.901  14.732  15.256  0.00  0.00    +0.000 C 
ATOM     21  C   UNL     1      29.114  14.671  13.768  0.00  0.00    +0.000 C 
BRANCH  20  22
ATOM     22  C   UNL     1      29.065  16.014  15.851  0.00  0.00    +0.000 C 
ATOM     23  C   UNL     1      29.244  17.397  16.496  0.00  0.00    +0.000 C 
BRANCH  23  24
ATOM     24  C   UNL     1      29.399  18.677  17.109  0.00  0.00    +0.000 C 
ATOM     25  C   UNL     1      29.269  18.844  18.541  0.00  0.00    +0.000 C 
ATOM     26  C   UNL     1      29.383  20.182  19.236  0.00  0.00    +0.000 C 
ATOM     27  C   UNL     1      29.008  17.683  19.479  0.00  0.00    +0.000 C 
BRANCH  24  28
ATOM     28  C   UNL     1      29.686  19.809  16.299  0.00  0.00    +0.000 C 
ATOM     29  C   UNL     1      29.990  21.071  15.483  0.00  0.00    +0.000 C 
ENDBRANCH  24  28
ENDBRANCH  23  24
ENDBRANCH  20  22
ENDBRANCH   5  20
BRANCH  19  30
ATOM     30  O   UNL     1      25.337  10.566  24.566  0.00  0.00    +0.000 OA
BRANCH  30  32
ATOM     31  O   UNL     1      23.372   9.946  23.488  0.00  0.00    +0.000 OA
ATOM     32  C   UNL     1      24.181   9.860  24.400  0.00  0.00    +0.000 C 
BRANCH  32  33
ATOM     33  C   UNL     1      23.989   8.903  25.461  0.00  0.00    +0.000 C 
ATOM     34  C   UNL     1      23.822   8.092  26.333  0.00  0.00    +0.000 C 
BRANCH  34  35
ATOM     35  C   UNL     1      23.616   7.119  27.354  0.00  0.00    +0.000 A 
ATOM     36  C   UNL     1      22.485   6.304  27.314  0.00  0.00    +0.000 A 
ATOM     37  C   UNL     1      24.536   6.988  28.390  0.00  0.00    +0.000 A 
ATOM     38  C   UNL     1      22.262   5.348  28.309  0.00  0.00    +0.000 A 
ATOM     39  C   UNL     1      24.326   6.040  29.388  0.00  0.00    +0.000 A 
ATOM     40  C   UNL     1      23.193   5.228  29.343  0.00  0.00    +0.000 A 
BRANCH  38  41
ATOM     41  O   UNL     1      21.176   4.508  28.345  0.00  0.00    +0.000 OA
ATOM     42  C   UNL     1      21.271   3.360  27.541  0.00  0.00    +0.000 C 
ENDBRANCH  38  41
BRANCH  40  43
ATOM     43  O   UNL     1      22.992   4.299  30.328  0.00  0.00    +0.000 OA
ATOM     44  H   UNL     1      22.622   4.749  31.110  0.00  0.00    +0.000 HD
ENDBRANCH  40  43
ENDBRANCH  34  35
ENDBRANCH  32  33
ENDBRANCH  30  32
ENDBRANCH  19  30
TORSDOF 10
ENDMDL
MODEL 3
REMARK VINA RESULT:      -7.2      1.907      4.020
REMARK  Name = 91746246_sitosterol.pdbqt.pdb
REMARK  10 active torsions:
REMARK  status: ('A' for Active; 'I' for Inactive)
REMARK    1  A    between atoms: C_5  and  C_20
REMARK    2  A    between atoms: C_19  and  O_30
REMARK    3  A    between atoms: C_20  and  C_22
REMARK    4  A    between atoms: C_23  and  C_24
REMARK    5  A    between atoms: C_24  and  C_28
REMARK    6  A    between atoms: O_30  and  C_32
REMARK    7  A    between atoms: C_32  and  C_33
REMARK    8  A    between atoms: C_34  and  C_35
REMARK    9  A    between atoms: C_38  and  O_41
REMARK   10  A    between atoms: C_40  and  O_43
REMARK                            x       y       z     vdW  Elec       q    Type
REMARK                         _______ _______ _______ _____ _____    ______ ____
ROOT
ATOM      1  C   UNL     1      29.613  13.721  16.563  0.00  0.00    +0.000 C 
ATOM      2  C   UNL     1      29.152  12.225  16.984  0.00  0.00    +0.000 C 
ATOM      3  C   UNL     1      28.978  11.821  18.394  0.00  0.00    +0.000 C 
ATOM      4  C   UNL     1      28.943  12.748  19.583  0.00  0.00    +0.000 C 
ATOM      5  C   UNL     1      28.695  14.046  15.391  0.00  0.00    +0.000 C 
ATOM      6  C   UNL     1      29.392  14.526  17.763  0.00  0.00    +0.000 C 
ATOM      7  C   UNL     1      28.812  12.262  21.050  0.00  0.00    +0.000 C 
ATOM      8  C   UNL     1      28.236  11.766  15.986  0.00  0.00    +0.000 C 
ATOM      9  C   UNL     1      29.106  14.101  19.183  0.00  0.00    +0.000 C 
ATOM     10  C   UNL     1      27.940  12.891  15.032  0.00  0.00    +0.000 C 
ATOM     11  C   UNL     1      28.666  10.482  18.737  0.00  0.00    +0.000 C 
ATOM     12  C   UNL     1      31.094  13.627  16.108  0.00  0.00    +0.000 C 
ATOM     13  C   UNL     1      28.260  10.713  21.197  0.00  0.00    +0.000 C 
ATOM     14  C   UNL     1      27.790  13.071  21.778  0.00  0.00    +0.000 C 
ATOM     15  C   UNL     1      28.323  10.000  20.114  0.00  0.00    +0.000 C 
ATOM     16  C   UNL     1      30.207  12.321  21.739  0.00  0.00    +0.000 C 
ATOM     17  C   UNL     1      27.099  10.547  22.043  0.00  0.00    +0.000 C 
ATOM     18  C   UNL     1      26.544  12.718  22.607  0.00  0.00    +0.000 C 
ATOM     19  C   UNL     1      26.153  11.347  22.776  0.00  0.00    +0.000 C 
ENDROOT
BRANCH   5  20
ATOM     20  C   UNL     1      28.778  15.241  14.614  0.00  0.00    +0.000 C 
ATOM     21  C   UNL     1      28.640  16.609  15.224  0.00  0.00    +0.000 C 
BRANCH  20  22
ATOM     22  C   UNL     1      28.744  15.193  13.192  0.00  0.00    +0.000 C 
ATOM     23  C   UNL     1      28.709  15.145  11.657  0.00  0.00    +0.000 C 
BRANCH  23  24
ATOM     24  C   UNL     1      28.663  15.113  10.230  0.00  0.00    +0.000 C 
ATOM     25  C   UNL     1      28.805  16.323   9.449  0.00  0.00    +0.000 C 
ATOM     26  C   UNL     1      28.723  16.352   7.938  0.00  0.00    +0.000 C 
ATOM     27  C   UNL     1      29.052  17.679  10.078  0.00  0.00    +0.000 C 
BRANCH  24  28
ATOM     28  C   UNL     1      28.476  13.872   9.564  0.00  0.00    +0.000 C 
ATOM     29  C   UNL     1      28.300  12.562   8.788  0.00  0.00    +0.000 C 
ENDBRANCH  24  28
ENDBRANCH  23  24
ENDBRANCH  20  22
ENDBRANCH   5  20
BRANCH  19  30
ATOM     30  O   UNL     1      25.710  10.881  24.010  0.00  0.00    +0.000 OA
BRANCH  30  32
ATOM     31  O   UNL     1      23.518  10.196  23.645  0.00  0.00    +0.000 OA
ATOM     32  C   UNL     1      24.351  10.955  24.117  0.00  0.00    +0.000 C 
BRANCH  32  33
ATOM     33  C   UNL     1      23.945  12.077  24.926  0.00  0.00    +0.000 C 
ATOM     34  C   UNL     1      23.613  13.004  25.615  0.00  0.00    +0.000 C 
BRANCH  34  35
ATOM     35  C   UNL     1      23.225  14.094  26.449  0.00  0.00    +0.000 A 
ATOM     36  C   UNL     1      23.084  15.368  25.901  0.00  0.00    +0.000 A 
ATOM     37  C   UNL     1      22.995  13.887  27.806  0.00  0.00    +0.000 A 
ATOM     38  C   UNL     1      22.710  16.450  26.702  0.00  0.00    +0.000 A 
ATOM     39  C   UNL     1      22.622  14.956  28.617  0.00  0.00    +0.000 A 
ATOM     40  C   UNL     1      22.483  16.228  28.063  0.00  0.00    +0.000 A 
BRANCH  38  41
ATOM     41  O   UNL     1      22.550  17.734  26.243  0.00  0.00    +0.000 OA
ATOM     42  C   UNL     1      23.732  18.392  25.863  0.00  0.00    +0.000 C 
ENDBRANCH  38  41
BRANCH  40  43
ATOM     43  O   UNL     1      22.118  17.275  28.865  0.00  0.00    +0.000 OA
ATOM     44  H   UNL     1      22.583  18.078  28.562  0.00  0.00    +0.000 HD
ENDBRANCH  40  43
ENDBRANCH  34  35
ENDBRANCH  32  33
ENDBRANCH  30  32
ENDBRANCH  19  30
TORSDOF 10
ENDMDL
MODEL 4
REMARK VINA RESULT:      -7.1      1.119      1.913
REMARK  Name = 91746246_sitosterol.pdbqt.pdb
REMARK  10 active torsions:
REMARK  status: ('A' for Active; 'I' for Inactive)
REMARK    1  A    between atoms: C_5  and  C_20
REMARK    2  A    between atoms: C_19  and  O_30
REMARK    3  A    between atoms: C_20  and  C_22
REMARK    4  A    between atoms: C_23  and  C_24
REMARK    5  A    between atoms: C_24  and  C_28
REMARK    6  A    between atoms: O_30  and  C_32
REMARK    7  A    between atoms: C_32  and  C_33
REMARK    8  A    between atoms: C_34  and  C_35
REMARK    9  A    between atoms: C_38  and  O_41
REMARK   10  A    between atoms: C_40  and  O_43
REMARK                            x       y       z     vdW  Elec       q    Type
REMARK                         _______ _______ _______ _____ _____    ______ ____
ROOT
ATOM      1  C   UNL     1      29.811  13.924  16.956  0.00  0.00    +0.000 C 
ATOM      2  C   UNL     1      29.301  12.410  17.233  0.00  0.00    +0.000 C 
ATOM      3  C   UNL     1      29.070  11.893  18.597  0.00  0.00    +0.000 C 
ATOM      4  C   UNL     1      29.015  12.717  19.859  0.00  0.00    +0.000 C 
ATOM      5  C   UNL     1      28.942  14.370  15.787  0.00  0.00    +0.000 C 
ATOM      6  C   UNL     1      29.566  14.630  18.213  0.00  0.00    +0.000 C 
ATOM      7  C   UNL     1      28.822  12.112  21.274  0.00  0.00    +0.000 C 
ATOM      8  C   UNL     1      28.411  12.060  16.170  0.00  0.00    +0.000 C 
ATOM      9  C   UNL     1      29.223  14.094  19.581  0.00  0.00    +0.000 C 
ATOM     10  C   UNL     1      28.173  13.269  15.307  0.00  0.00    +0.000 C 
ATOM     11  C   UNL     1      28.715  10.539  18.815  0.00  0.00    +0.000 C 
ATOM     12  C   UNL     1      31.304  13.831  16.544  0.00  0.00    +0.000 C 
ATOM     13  C   UNL     1      28.230  10.571  21.271  0.00  0.00    +0.000 C 
ATOM     14  C   UNL     1      27.795  12.883  22.035  0.00  0.00    +0.000 C 
ATOM     15  C   UNL     1      28.314   9.951  20.134  0.00  0.00    +0.000 C 
ATOM     16  C   UNL     1      30.193  12.078  22.011  0.00  0.00    +0.000 C 
ATOM     17  C   UNL     1      27.037  10.365  22.061  0.00  0.00    +0.000 C 
ATOM     18  C   UNL     1      26.513  12.494  22.790  0.00  0.00    +0.000 C 
ATOM     19  C   UNL     1      26.085  11.123  22.829  0.00  0.00    +0.000 C 
ENDROOT
BRANCH   5  20
ATOM     20  C   UNL     1      29.078  15.623  15.117  0.00  0.00    +0.000 C 
ATOM     21  C   UNL     1      29.368  15.720  13.643  0.00  0.00    +0.000 C 
BRANCH  20  22
ATOM     22  C   UNL     1      29.197  16.837  15.851  0.00  0.00    +0.000 C 
ATOM     23  C   UNL     1      29.325  18.146  16.645  0.00  0.00    +0.000 C 
BRANCH  23  24
ATOM     24  C   UNL     1      29.429  19.358  17.391  0.00  0.00    +0.000 C 
ATOM     25  C   UNL     1      29.285  19.366  18.832  0.00  0.00    +0.000 C 
ATOM     26  C   UNL     1      29.345  20.627  19.666  0.00  0.00    +0.000 C 
ATOM     27  C   UNL     1      29.064  18.104  19.639  0.00  0.00    +0.000 C 
BRANCH  24  28
ATOM     28  C   UNL     1      29.677  20.580  16.709  0.00  0.00    +0.000 C 
ATOM     29  C   UNL     1      29.989  21.915  16.024  0.00  0.00    +0.000 C 
ENDBRANCH  24  28
ENDBRANCH  23  24
ENDBRANCH  20  22
ENDBRANCH   5  20
BRANCH  19  30
ATOM     30  O   UNL     1      25.589  10.566  24.004  0.00  0.00    +0.000 OA
BRANCH  30  32
ATOM     31  O   UNL     1      23.359  10.182  23.468  0.00  0.00    +0.000 OA
ATOM     32  C   UNL     1      24.239  10.736  24.110  0.00  0.00    +0.000 C 
BRANCH  32  33
ATOM     33  C   UNL     1      23.905  11.679  25.149  0.00  0.00    +0.000 C 
ATOM     34  C   UNL     1      23.631  12.478  26.003  0.00  0.00    +0.000 C 
BRANCH  34  35
ATOM     35  C   UNL     1      23.311  13.441  27.005  0.00  0.00    +0.000 A 
ATOM     36  C   UNL     1      23.404  13.094  28.352  0.00  0.00    +0.000 A 
ATOM     37  C   UNL     1      22.902  14.720  26.639  0.00  0.00    +0.000 A 
ATOM     38  C   UNL     1      23.090  14.022  29.349  0.00  0.00    +0.000 A 
ATOM     39  C   UNL     1      22.586  15.655  27.622  0.00  0.00    +0.000 A 
ATOM     40  C   UNL     1      22.680  15.302  28.967  0.00  0.00    +0.000 A 
BRANCH  38  41
ATOM     41  O   UNL     1      23.152  13.762  30.696  0.00  0.00    +0.000 OA
ATOM     42  C   UNL     1      22.227  12.820  31.174  0.00  0.00    +0.000 C 
ENDBRANCH  38  41
BRANCH  40  43
ATOM     43  O   UNL     1      22.366  16.224  29.928  0.00  0.00    +0.000 OA
ATOM     44  H   UNL     1      21.934  15.764  30.673  0.00  0.00    +0.000 HD
ENDBRANCH  40  43
ENDBRANCH  34  35
ENDBRANCH  32  33
ENDBRANCH  30  32
ENDBRANCH  19  30
TORSDOF 10
ENDMDL
MODEL 5
REMARK VINA RESULT:      -7.1     17.117     22.635
REMARK  Name = 91746246_sitosterol.pdbqt.pdb
REMARK  10 active torsions:
REMARK  status: ('A' for Active; 'I' for Inactive)
REMARK    1  A    between atoms: C_5  and  C_20
REMARK    2  A    between atoms: C_19  and  O_30
REMARK    3  A    between atoms: C_20  and  C_22
REMARK    4  A    between atoms: C_23  and  C_24
REMARK    5  A    between atoms: C_24  and  C_28
REMARK    6  A    between atoms: O_30  and  C_32
REMARK    7  A    between atoms: C_32  and  C_33
REMARK    8  A    between atoms: C_34  and  C_35
REMARK    9  A    between atoms: C_38  and  O_41
REMARK   10  A    between atoms: C_40  and  O_43
REMARK                            x       y       z     vdW  Elec       q    Type
REMARK                         _______ _______ _______ _____ _____    ______ ____
ROOT
ATOM      1  C   UNL     1      21.477  28.850   5.161  0.00  0.00    +0.000 C 
ATOM      2  C   UNL     1      21.257  30.448   5.008  0.00  0.00    +0.000 C 
ATOM      3  C   UNL     1      20.574  31.253   6.041  0.00  0.00    +0.000 C 
ATOM      4  C   UNL     1      20.232  30.796   7.437  0.00  0.00    +0.000 C 
ATOM      5  C   UNL     1      22.913  28.654   4.689  0.00  0.00    +0.000 C 
ATOM      6  C   UNL     1      21.251  28.581   6.580  0.00  0.00    +0.000 C 
ATOM      7  C   UNL     1      19.465  31.668   8.465  0.00  0.00    +0.000 C 
ATOM      8  C   UNL     1      22.401  30.972   4.327  0.00  0.00    +0.000 C 
ATOM      9  C   UNL     1      20.650  29.455   7.653  0.00  0.00    +0.000 C 
ATOM     10  C   UNL     1      23.420  29.878   4.161  0.00  0.00    +0.000 C 
ATOM     11  C   UNL     1      20.312  32.631   5.840  0.00  0.00    +0.000 C 
ATOM     12  C   UNL     1      20.471  28.160   4.201  0.00  0.00    +0.000 C 
ATOM     13  C   UNL     1      19.445  33.277   8.098  0.00  0.00    +0.000 C 
ATOM     14  C   UNL     1      20.138  31.617   9.796  0.00  0.00    +0.000 C 
ATOM     15  C   UNL     1      19.766  33.568   6.874  0.00  0.00    +0.000 C 
ATOM     16  C   UNL     1      17.984  31.193   8.538  0.00  0.00    +0.000 C 
ATOM     17  C   UNL     1      19.923  34.155   9.143  0.00  0.00    +0.000 C 
ATOM     18  C   UNL     1      20.645  32.689  10.775  0.00  0.00    +0.000 C 
ATOM     19  C   UNL     1      20.528  34.082  10.446  0.00  0.00    +0.000 C 
ENDROOT
BRANCH   5  20
ATOM     20  C   UNL     1      23.549  27.383   4.557  0.00  0.00    +0.000 C 
ATOM     21  C   UNL     1      23.026  26.314   3.636  0.00  0.00    +0.000 C 
BRANCH  20  22
ATOM     22  C   UNL     1      24.558  26.970   5.471  0.00  0.00    +0.000 C 
ATOM     23  C   UNL     1      25.648  26.522   6.457  0.00  0.00    +0.000 C 
BRANCH  23  24
ATOM     24  C   UNL     1      26.648  26.096   7.382  0.00  0.00    +0.000 C 
ATOM     25  C   UNL     1      27.581  27.038   7.964  0.00  0.00    +0.000 C 
ATOM     26  C   UNL     1      28.685  26.634   8.916  0.00  0.00    +0.000 C 
ATOM     27  C   UNL     1      27.532  28.523   7.673  0.00  0.00    +0.000 C 
BRANCH  24  28
ATOM     28  C   UNL     1      26.731  24.723   7.738  0.00  0.00    +0.000 C 
ATOM     29  C   UNL     1      26.875  23.235   8.078  0.00  0.00    +0.000 C 
ENDBRANCH  24  28
ENDBRANCH  23  24
ENDBRANCH  20  22
ENDBRANCH   5  20
BRANCH  19  30
ATOM     30  O   UNL     1      20.141  35.010  11.409  0.00  0.00    +0.000 OA
BRANCH  30  32
ATOM     31  O   UNL     1      18.984  36.817  10.512  0.00  0.00    +0.000 OA
ATOM     32  C   UNL     1      19.033  35.706  11.019  0.00  0.00    +0.000 C 
BRANCH  32  33
ATOM     33  C   UNL     1      17.827  34.949  11.243  0.00  0.00    +0.000 C 
ATOM     34  C   UNL     1      16.818  34.328  11.444  0.00  0.00    +0.000 C 
BRANCH  34  35
ATOM     35  C   UNL     1      15.617  33.603  11.700  0.00  0.00    +0.000 A 
ATOM     36  C   UNL     1      14.506  34.265  12.219  0.00  0.00    +0.000 A 
ATOM     37  C   UNL     1      15.557  32.237  11.437  0.00  0.00    +0.000 A 
ATOM     38  C   UNL     1      13.321  33.571  12.481  0.00  0.00    +0.000 A 
ATOM     39  C   UNL     1      14.383  31.532  11.694  0.00  0.00    +0.000 A 
ATOM     40  C   UNL     1      13.276  32.200  12.214  0.00  0.00    +0.000 A 
BRANCH  38  41
ATOM     41  O   UNL     1      12.184  34.146  12.994  0.00  0.00    +0.000 OA
ATOM     42  C   UNL     1      12.295  35.503  13.339  0.00  0.00    +0.000 C 
ENDBRANCH  38  41
BRANCH  40  43
ATOM     43  O   UNL     1      12.126  31.503  12.466  0.00  0.00    +0.000 OA
ATOM     44  H   UNL     1      12.100  31.275  13.415  0.00  0.00    +0.000 HD
ENDBRANCH  40  43
ENDBRANCH  34  35
ENDBRANCH  32  33
ENDBRANCH  30  32
ENDBRANCH  19  30
TORSDOF 10
ENDMDL
MODEL 6
REMARK VINA RESULT:      -6.8      1.281      2.065
REMARK  Name = 91746246_sitosterol.pdbqt.pdb
REMARK  10 active torsions:
REMARK  status: ('A' for Active; 'I' for Inactive)
REMARK    1  A    between atoms: C_5  and  C_20
REMARK    2  A    between atoms: C_19  and  O_30
REMARK    3  A    between atoms: C_20  and  C_22
REMARK    4  A    between atoms: C_23  and  C_24
REMARK    5  A    between atoms: C_24  and  C_28
REMARK    6  A    between atoms: O_30  and  C_32
REMARK    7  A    between atoms: C_32  and  C_33
REMARK    8  A    between atoms: C_34  and  C_35
REMARK    9  A    between atoms: C_38  and  O_41
REMARK   10  A    between atoms: C_40  and  O_43
REMARK                            x       y       z     vdW  Elec       q    Type
REMARK                         _______ _______ _______ _____ _____    ______ ____
ROOT
ATOM      1  C   UNL     1      29.441  12.922  18.948  0.00  0.00    +0.000 C 
ATOM      2  C   UNL     1      29.052  11.395  19.328  0.00  0.00    +0.000 C 
ATOM      3  C   UNL     1      28.392  11.042  20.601  0.00  0.00    +0.000 C 
ATOM      4  C   UNL     1      27.768  12.011  21.574  0.00  0.00    +0.000 C 
ATOM      5  C   UNL     1      29.026  13.029  17.487  0.00  0.00    +0.000 C 
ATOM      6  C   UNL     1      28.660  13.741  19.874  0.00  0.00    +0.000 C 
ATOM      7  C   UNL     1      27.135  11.588  22.924  0.00  0.00    +0.000 C 
ATOM      8  C   UNL     1      28.674  10.738  18.114  0.00  0.00    +0.000 C 
ATOM      9  C   UNL     1      27.897  13.350  21.116  0.00  0.00    +0.000 C 
ATOM     10  C   UNL     1      28.633  11.748  16.999  0.00  0.00    +0.000 C 
ATOM     11  C   UNL     1      28.148   9.690  20.947  0.00  0.00    +0.000 C 
ATOM     12  C   UNL     1      30.979  13.050  19.107  0.00  0.00    +0.000 C 
ATOM     13  C   UNL     1      26.779   9.979  23.023  0.00  0.00    +0.000 C 
ATOM     14  C   UNL     1      25.812  12.254  23.111  0.00  0.00    +0.000 C 
ATOM     15  C   UNL     1      27.356   9.230  22.134  0.00  0.00    +0.000 C 
ATOM     16  C   UNL     1      28.124  11.913  24.081  0.00  0.00    +0.000 C 
ATOM     17  C   UNL     1      25.411   9.668  23.375  0.00  0.00    +0.000 C 
ATOM     18  C   UNL     1      24.398  11.744  23.435  0.00  0.00    +0.000 C 
ATOM     19  C   UNL     1      24.157  10.338  23.596  0.00  0.00    +0.000 C 
ENDROOT
BRANCH   5  20
ATOM     20  C   UNL     1      29.251  14.178  16.670  0.00  0.00    +0.000 C 
ATOM     21  C   UNL     1      29.676  14.072  15.230  0.00  0.00    +0.000 C 
BRANCH  20  22
ATOM     22  C   UNL     1      29.328  15.479  17.241  0.00  0.00    +0.000 C 
ATOM     23  C   UNL     1      29.414  16.884  17.857  0.00  0.00    +0.000 C 
BRANCH  23  24
ATOM     24  C   UNL     1      29.509  18.186  18.436  0.00  0.00    +0.000 C 
ATOM     25  C   UNL     1      29.483  18.372  19.871  0.00  0.00    +0.000 C 
ATOM     26  C   UNL     1      29.539  19.730  20.535  0.00  0.00    +0.000 C 
ATOM     27  C   UNL     1      29.399  17.214  20.845  0.00  0.00    +0.000 C 
BRANCH  24  28
ATOM     28  C   UNL     1      29.632  19.320  17.589  0.00  0.00    +0.000 C 
ATOM     29  C   UNL     1      29.788  20.501  16.625  0.00  0.00    +0.000 C 
ENDBRANCH  24  28
ENDBRANCH  23  24
ENDBRANCH  20  22
ENDBRANCH   5  20
BRANCH  19  30
ATOM     30  O   UNL     1      23.328   9.870  24.612  0.00  0.00    +0.000 OA
BRANCH  30  32
ATOM     31  O   UNL     1      24.583   9.254  26.470  0.00  0.00    +0.000 OA
ATOM     32  C   UNL     1      23.893  10.043  25.842  0.00  0.00    +0.000 C 
BRANCH  32  33
ATOM     33  C   UNL     1      23.614  11.354  26.373  0.00  0.00    +0.000 C 
ATOM     34  C   UNL     1      23.392  12.455  26.802  0.00  0.00    +0.000 C 
BRANCH  34  35
ATOM     35  C   UNL     1      23.140  13.768  27.297  0.00  0.00    +0.000 A 
ATOM     36  C   UNL     1      22.983  14.826  26.403  0.00  0.00    +0.000 A 
ATOM     37  C   UNL     1      23.058  13.993  28.669  0.00  0.00    +0.000 A 
ATOM     38  C   UNL     1      22.742  16.121  26.869  0.00  0.00    +0.000 A 
ATOM     39  C   UNL     1      22.818  15.279  29.147  0.00  0.00    +0.000 A 
ATOM     40  C   UNL     1      22.663  16.333  28.248  0.00  0.00    +0.000 A 
BRANCH  38  41
ATOM     41  O   UNL     1      22.577  17.218  26.058  0.00  0.00    +0.000 OA
ATOM     42  C   UNL     1      23.741  17.677  25.419  0.00  0.00    +0.000 C 
ENDBRANCH  38  41
BRANCH  40  43
ATOM     43  O   UNL     1      22.429  17.594  28.724  0.00  0.00    +0.000 OA
ATOM     44  H   UNL     1      21.906  17.527  29.545  0.00  0.00    +0.000 HD
ENDBRANCH  40  43
ENDBRANCH  34  35
ENDBRANCH  32  33
ENDBRANCH  30  32
ENDBRANCH  19  30
TORSDOF 10
ENDMDL
MODEL 7
REMARK VINA RESULT:      -6.7     16.966     22.198
REMARK  Name = 91746246_sitosterol.pdbqt.pdb
REMARK  10 active torsions:
REMARK  status: ('A' for Active; 'I' for Inactive)
REMARK    1  A    between atoms: C_5  and  C_20
REMARK    2  A    between atoms: C_19  and  O_30
REMARK    3  A    between atoms: C_20  and  C_22
REMARK    4  A    between atoms: C_23  and  C_24
REMARK    5  A    between atoms: C_24  and  C_28
REMARK    6  A    between atoms: O_30  and  C_32
REMARK    7  A    between atoms: C_32  and  C_33
REMARK    8  A    between atoms: C_34  and  C_35
REMARK    9  A    between atoms: C_38  and  O_41
REMARK   10  A    between atoms: C_40  and  O_43
REMARK                            x       y       z     vdW  Elec       q    Type
REMARK                         _______ _______ _______ _____ _____    ______ ____
ROOT
ATOM      1  C   UNL     1      22.224  28.388   4.164  0.00  0.00    +0.000 C 
ATOM      2  C   UNL     1      20.616  28.371   3.961  0.00  0.00    +0.000 C 
ATOM      3  C   UNL     1      19.933  27.336   3.160  0.00  0.00    +0.000 C 
ATOM      4  C   UNL     1      20.550  26.055   2.655  0.00  0.00    +0.000 C 
ATOM      5  C   UNL     1      22.379  28.707   5.646  0.00  0.00    +0.000 C 
ATOM      6  C   UNL     1      22.658  27.048   3.772  0.00  0.00    +0.000 C 
ATOM      7  C   UNL     1      19.798  25.028   1.770  0.00  0.00    +0.000 C 
ATOM      8  C   UNL     1      20.028  28.844   5.177  0.00  0.00    +0.000 C 
ATOM      9  C   UNL     1      21.912  25.955   3.046  0.00  0.00    +0.000 C 
ATOM     10  C   UNL     1      21.108  29.020   6.210  0.00  0.00    +0.000 C 
ATOM     11  C   UNL     1      18.537  27.399   2.921  0.00  0.00    +0.000 C 
ATOM     12  C   UNL     1      22.780  29.535   3.280  0.00  0.00    +0.000 C 
ATOM     13  C   UNL     1      18.157  25.197   1.792  0.00  0.00    +0.000 C 
ATOM     14  C   UNL     1      20.017  23.642   2.280  0.00  0.00    +0.000 C 
ATOM     15  C   UNL     1      17.725  26.330   2.254  0.00  0.00    +0.000 C 
ATOM     16  C   UNL     1      20.259  25.188   0.291  0.00  0.00    +0.000 C 
ATOM     17  C   UNL     1      17.416  24.005   2.140  0.00  0.00    +0.000 C 
ATOM     18  C   UNL     1      19.078  22.488   2.667  0.00  0.00    +0.000 C 
ATOM     19  C   UNL     1      17.654  22.657   2.587  0.00  0.00    +0.000 C 
ENDROOT
BRANCH   5  20
ATOM     20  C   UNL     1      23.634  28.916   6.295  0.00  0.00    +0.000 C 
ATOM     21  C   UNL     1      24.193  30.291   6.541  0.00  0.00    +0.000 C 
BRANCH  20  22
ATOM     22  C   UNL     1      24.533  27.835   6.517  0.00  0.00    +0.000 C 
ATOM     23  C   UNL     1      25.502  26.667   6.755  0.00  0.00    +0.000 C 
BRANCH  23  24
ATOM     24  C   UNL     1      26.389  25.571   6.978  0.00  0.00    +0.000 C 
ATOM     25  C   UNL     1      26.642  24.589   5.946  0.00  0.00    +0.000 C 
ATOM     26  C   UNL     1      27.539  23.387   6.143  0.00  0.00    +0.000 C 
ATOM     27  C   UNL     1      26.029  24.678   4.563  0.00  0.00    +0.000 C 
BRANCH  24  28
ATOM     28  C   UNL     1      27.035  25.441   8.237  0.00  0.00    +0.000 C 
ATOM     29  C   UNL     1      27.679  25.259   9.616  0.00  0.00    +0.000 C 
ENDBRANCH  24  28
ENDBRANCH  23  24
ENDBRANCH  20  22
ENDBRANCH   5  20
BRANCH  19  30
ATOM     30  O   UNL     1      16.843  21.642   2.087  0.00  0.00    +0.000 OA
BRANCH  30  32
ATOM     31  O   UNL     1      18.240  21.153   0.293  0.00  0.00    +0.000 OA
ATOM     32  C   UNL     1      17.528  20.828   1.231  0.00  0.00    +0.000 C 
BRANCH  32  33
ATOM     33  C   UNL     1      17.353  19.438   1.572  0.00  0.00    +0.000 C 
ATOM     34  C   UNL     1      17.203  18.284   1.873  0.00  0.00    +0.000 C 
BRANCH  34  35
ATOM     35  C   UNL     1      17.020  16.921   2.248  0.00  0.00    +0.000 A 
ATOM     36  C   UNL     1      18.126  16.140   2.578  0.00  0.00    +0.000 A 
ATOM     37  C   UNL     1      15.742  16.370   2.279  0.00  0.00    +0.000 A 
ATOM     38  C   UNL     1      17.969  14.800   2.944  0.00  0.00    +0.000 A 
ATOM     39  C   UNL     1      15.570  15.036   2.641  0.00  0.00    +0.000 A 
ATOM     40  C   UNL     1      16.680  14.260   2.969  0.00  0.00    +0.000 A 
BRANCH  38  41
ATOM     41  O   UNL     1      19.004  13.963   3.281  0.00  0.00    +0.000 OA
ATOM     42  C   UNL     1      20.285  14.537   3.240  0.00  0.00    +0.000 C 
ENDBRANCH  38  41
BRANCH  40  43
ATOM     43  O   UNL     1      16.505  12.950   3.322  0.00  0.00    +0.000 OA
ATOM     44  H   UNL     1      16.524  12.404   2.514  0.00  0.00    +0.000 HD
ENDBRANCH  40  43
ENDBRANCH  34  35
ENDBRANCH  32  33
ENDBRANCH  30  32
ENDBRANCH  19  30
TORSDOF 10
ENDMDL
MODEL 8
REMARK VINA RESULT:      -6.7      1.238      1.770
REMARK  Name = 91746246_sitosterol.pdbqt.pdb
REMARK  10 active torsions:
REMARK  status: ('A' for Active; 'I' for Inactive)
REMARK    1  A    between atoms: C_5  and  C_20
REMARK    2  A    between atoms: C_19  and  O_30
REMARK    3  A    between atoms: C_20  and  C_22
REMARK    4  A    between atoms: C_23  and  C_24
REMARK    5  A    between atoms: C_24  and  C_28
REMARK    6  A    between atoms: O_30  and  C_32
REMARK    7  A    between atoms: C_32  and  C_33
REMARK    8  A    between atoms: C_34  and  C_35
REMARK    9  A    between atoms: C_38  and  O_41
REMARK   10  A    between atoms: C_40  and  O_43
REMARK                            x       y       z     vdW  Elec       q    Type
REMARK                         _______ _______ _______ _____ _____    ______ ____
ROOT
ATOM      1  C   UNL     1      30.120  15.885  16.184  0.00  0.00    +0.000 C 
ATOM      2  C   UNL     1      29.495  14.394  16.295  0.00  0.00    +0.000 C 
ATOM      3  C   UNL     1      29.419  13.663  17.576  0.00  0.00    +0.000 C 
ATOM      4  C   UNL     1      29.650  14.251  18.946  0.00  0.00    +0.000 C 
ATOM      5  C   UNL     1      29.137  16.602  15.267  0.00  0.00    +0.000 C 
ATOM      6  C   UNL     1      30.151  16.374  17.561  0.00  0.00    +0.000 C 
ATOM      7  C   UNL     1      29.610  13.422  20.256  0.00  0.00    +0.000 C 
ATOM      8  C   UNL     1      28.419  14.313  15.356  0.00  0.00    +0.000 C 
ATOM      9  C   UNL     1      29.963  15.634  18.863  0.00  0.00    +0.000 C 
ATOM     10  C   UNL     1      28.187  15.672  14.752  0.00  0.00    +0.000 C 
ATOM     11  C   UNL     1      28.954  12.326  17.628  0.00  0.00    +0.000 C 
ATOM     12  C   UNL     1      31.513  15.743  15.514  0.00  0.00    +0.000 C 
ATOM     13  C   UNL     1      28.858  11.961  20.103  0.00  0.00    +0.000 C 
ATOM     14  C   UNL     1      28.803  14.128  21.294  0.00  0.00    +0.000 C 
ATOM     15  C   UNL     1      28.697  11.548  18.884  0.00  0.00    +0.000 C 
ATOM     16  C   UNL     1      31.066  13.144  20.733  0.00  0.00    +0.000 C 
ATOM     17  C   UNL     1      27.784  11.717  21.041  0.00  0.00    +0.000 C 
ATOM     18  C   UNL     1      27.617  13.718  22.183  0.00  0.00    +0.000 C 
ATOM     19  C   UNL     1      27.051  12.403  22.072  0.00  0.00    +0.000 C 
ENDROOT
BRANCH   5  20
ATOM     20  C   UNL     1      29.308  17.939  14.796  0.00  0.00    +0.000 C 
ATOM     21  C   UNL     1      29.896  18.247  13.445  0.00  0.00    +0.000 C 
BRANCH  20  22
ATOM     22  C   UNL     1      29.165  19.050  15.674  0.00  0.00    +0.000 C 
ATOM     23  C   UNL     1      29.008  20.248  16.622  0.00  0.00    +0.000 C 
BRANCH  23  24
ATOM     24  C   UNL     1      28.852  21.370  17.491  0.00  0.00    +0.000 C 
ATOM     25  C   UNL     1      28.815  21.205  18.929  0.00  0.00    +0.000 C 
ATOM     26  C   UNL     1      28.610  22.354  19.893  0.00  0.00    +0.000 C 
ATOM     27  C   UNL     1      28.981  19.859  19.603  0.00  0.00    +0.000 C 
BRANCH  24  28
ATOM     28  C   UNL     1      28.730  22.672  16.936  0.00  0.00    +0.000 C 
ATOM     29  C   UNL     1      28.633  24.103  16.393  0.00  0.00    +0.000 C 
ENDBRANCH  24  28
ENDBRANCH  23  24
ENDBRANCH  20  22
ENDBRANCH   5  20
BRANCH  19  30
ATOM     30  O   UNL     1      26.682  11.689  23.208  0.00  0.00    +0.000 OA
BRANCH  30  32
ATOM     31  O   UNL     1      24.539  10.854  22.865  0.00  0.00    +0.000 OA
ATOM     32  C   UNL     1      25.326  11.648  23.357  0.00  0.00    +0.000 C 
BRANCH  32  33
ATOM     33  C   UNL     1      24.861  12.687  24.243  0.00  0.00    +0.000 C 
ATOM     34  C   UNL     1      24.459  13.556  24.969  0.00  0.00    +0.000 C 
BRANCH  34  35
ATOM     35  C   UNL     1      23.968  14.592  25.817  0.00  0.00    +0.000 A 
ATOM     36  C   UNL     1      24.220  15.925  25.498  0.00  0.00    +0.000 A 
ATOM     37  C   UNL     1      23.245  14.271  26.964  0.00  0.00    +0.000 A 
ATOM     38  C   UNL     1      23.752  16.954  26.320  0.00  0.00    +0.000 A 
ATOM     39  C   UNL     1      22.773  15.287  27.792  0.00  0.00    +0.000 A 
ATOM     40  C   UNL     1      23.029  16.619  27.468  0.00  0.00    +0.000 A 
BRANCH  38  41
ATOM     41  O   UNL     1      23.957  18.291  26.079  0.00  0.00    +0.000 OA
ATOM     42  C   UNL     1      23.232  18.831  25.005  0.00  0.00    +0.000 C 
ENDBRANCH  38  41
BRANCH  40  43
ATOM     43  O   UNL     1      22.564  17.611  28.286  0.00  0.00    +0.000 OA
ATOM     44  H   UNL     1      21.966  18.186  27.772  0.00  0.00    +0.000 HD
ENDBRANCH  40  43
ENDBRANCH  34  35
ENDBRANCH  32  33
ENDBRANCH  30  32
ENDBRANCH  19  30
TORSDOF 10
ENDMDL
MODEL 9
REMARK VINA RESULT:      -6.6     24.676     28.244
REMARK  Name = 91746246_sitosterol.pdbqt.pdb
REMARK  10 active torsions:
REMARK  status: ('A' for Active; 'I' for Inactive)
REMARK    1  A    between atoms: C_5  and  C_20
REMARK    2  A    between atoms: C_19  and  O_30
REMARK    3  A    between atoms: C_20  and  C_22
REMARK    4  A    between atoms: C_23  and  C_24
REMARK    5  A    between atoms: C_24  and  C_28
REMARK    6  A    between atoms: O_30  and  C_32
REMARK    7  A    between atoms: C_32  and  C_33
REMARK    8  A    between atoms: C_34  and  C_35
REMARK    9  A    between atoms: C_38  and  O_41
REMARK   10  A    between atoms: C_40  and  O_43
REMARK                            x       y       z     vdW  Elec       q    Type
REMARK                         _______ _______ _______ _____ _____    ______ ____
ROOT
ATOM      1  C   UNL     1       4.597  15.301   2.779  0.00  0.00    +0.000 C 
ATOM      2  C   UNL     1       6.207  15.121   2.764  0.00  0.00    +0.000 C 
ATOM      3  C   UNL     1       7.093  16.014   1.990  0.00  0.00    +0.000 C 
ATOM      4  C   UNL     1       6.693  17.318   1.347  0.00  0.00    +0.000 C 
ATOM      5  C   UNL     1       4.243  15.105   4.248  0.00  0.00    +0.000 C 
ATOM      6  C   UNL     1       4.372  16.651   2.264  0.00  0.00    +0.000 C 
ATOM      7  C   UNL     1       7.656  18.190   0.499  0.00  0.00    +0.000 C 
ATOM      8  C   UNL     1       6.597  14.670   4.064  0.00  0.00    +0.000 C 
ATOM      9  C   UNL     1       5.319  17.599   1.570  0.00  0.00    +0.000 C 
ATOM     10  C   UNL     1       5.398  14.689   4.973  0.00  0.00    +0.000 C 
ATOM     11  C   UNL     1       8.488  15.777   1.920  0.00  0.00    +0.000 C 
ATOM     12  C   UNL     1       4.005  14.165   1.902  0.00  0.00    +0.000 C 
ATOM     13  C   UNL     1       9.253  17.838   0.721  0.00  0.00    +0.000 C 
ATOM     14  C   UNL     1       7.551  19.624   0.902  0.00  0.00    +0.000 C 
ATOM     15  C   UNL     1       9.492  16.698   1.293  0.00  0.00    +0.000 C 
ATOM     16  C   UNL     1       7.343  17.981  -1.012  0.00  0.00    +0.000 C 
ATOM     17  C   UNL     1      10.089  18.960   1.086  0.00  0.00    +0.000 C 
ATOM     18  C   UNL     1       8.575  20.688   1.330  0.00  0.00    +0.000 C 
ATOM     19  C   UNL     1       9.968  20.353   1.426  0.00  0.00    +0.000 C 
ENDROOT
BRANCH   5  20
ATOM     20  C   UNL     1       2.909  15.085   4.757  0.00  0.00    +0.000 C 
ATOM     21  C   UNL     1       1.812  15.934   4.173  0.00  0.00    +0.000 C 
BRANCH  20  22
ATOM     22  C   UNL     1       2.608  14.454   5.996  0.00  0.00    +0.000 C 
ATOM     23  C   UNL     1       2.283  13.770   7.333  0.00  0.00    +0.000 C 
BRANCH  23  24
ATOM     24  C   UNL     1       1.975  13.120   8.567  0.00  0.00    +0.000 C 
ATOM     25  C   UNL     1       0.801  13.483   9.332  0.00  0.00    +0.000 C 
ATOM     26  C   UNL     1       0.449  12.857  10.663  0.00  0.00    +0.000 C 
ATOM     27  C   UNL     1      -0.191  14.528   8.862  0.00  0.00    +0.000 C 
BRANCH  24  28
ATOM     28  C   UNL     1       2.835  12.101   9.054  0.00  0.00    +0.000 C 
ATOM     29  C   UNL     1       3.803  11.008   9.522  0.00  0.00    +0.000 C 
ENDBRANCH  24  28
ENDBRANCH  23  24
ENDBRANCH  20  22
ENDBRANCH   5  20
BRANCH  19  30
ATOM     30  O   UNL     1      10.945  21.232   0.968  0.00  0.00    +0.000 OA
BRANCH  30  32
ATOM     31  O   UNL     1      11.588  20.140  -0.982  0.00  0.00    +0.000 OA
ATOM     32  C   UNL     1      11.819  20.616   0.120  0.00  0.00    +0.000 C 
BRANCH  32  33
ATOM     33  C   UNL     1      13.156  20.597   0.660  0.00  0.00    +0.000 C 
ATOM     34  C   UNL     1      14.272  20.599   1.104  0.00  0.00    +0.000 C 
BRANCH  34  35
ATOM     35  C   UNL     1      15.600  20.620   1.624  0.00  0.00    +0.000 A 
ATOM     36  C   UNL     1      16.142  21.817   2.091  0.00  0.00    +0.000 A 
ATOM     37  C   UNL     1      16.354  19.450   1.659  0.00  0.00    +0.000 A 
ATOM     38  C   UNL     1      17.443  21.859   2.599  0.00  0.00    +0.000 A 
ATOM     39  C   UNL     1      17.653  19.478   2.163  0.00  0.00    +0.000 A 
ATOM     40  C   UNL     1      18.189  20.678   2.627  0.00  0.00    +0.000 A 
BRANCH  38  41
ATOM     41  O   UNL     1      18.051  22.994   3.076  0.00  0.00    +0.000 OA
ATOM     42  C   UNL     1      18.721  23.770   2.116  0.00  0.00    +0.000 C 
ENDBRANCH  38  41
BRANCH  40  43
ATOM     43  O   UNL     1      19.465  20.698   3.119  0.00  0.00    +0.000 OA
ATOM     44  H   UNL     1      19.436  20.972   4.055  0.00  0.00    +0.000 HD
ENDBRANCH  40  43
ENDBRANCH  34  35
ENDBRANCH  32  33
ENDBRANCH  30  32
ENDBRANCH  19  30
TORSDOF 10
ENDMDL
