MODEL 1
REMARK VINA RESULT:      -3.4      0.000      0.000
REMARK  Name = 92041_2Ethoxy5fluorouracil.pdbqt.pdb
REMARK  2 active torsions:
REMARK  status: ('A' for Active; 'I' for Inactive)
REMARK    1  A    between atoms: C_5  and  O_10
REMARK    2  A    between atoms: O_10  and  C_11
REMARK                            x       y       z     vdW  Elec       q    Type
REMARK                         _______ _______ _______ _____ _____    ______ ____
ROOT
ATOM      1  F   UNL     1      23.891   8.848  24.707  0.00  0.00    +0.000 F 
ATOM      2  O   UNL     1      24.408  11.075  23.004  0.00  0.00    +0.000 OA
ATOM      3  N   UNL     1      23.470  12.435  24.602  0.00  0.00    +0.000 N 
ATOM      4  N   UNL     1      22.762  11.649  26.717  0.00  0.00    +0.000 NA
ATOM      5  C   UNL     1      22.875  12.613  25.848  0.00  0.00    +0.000 C 
ATOM      6  C   UNL     1      23.973  11.216  24.139  0.00  0.00    +0.000 C 
ATOM      7  C   UNL     1      23.905  10.115  25.151  0.00  0.00    +0.000 C 
ATOM      8  C   UNL     1      23.298  10.529  26.214  0.00  0.00    +0.000 C 
ATOM      9  H   UNL     1      23.497  13.205  23.951  0.00  0.00    +0.000 HD
ENDROOT
BRANCH   5  10
ATOM     10  O   UNL     1      22.440  13.880  26.039  0.00  0.00    +0.000 OA
BRANCH  10  11
ATOM     11  C   UNL     1      22.661  14.399  27.244  0.00  0.00    +0.000 C 
ATOM     12  C   UNL     1      22.949  14.946  28.645  0.00  0.00    +0.000 C 
ENDBRANCH  10  11
ENDBRANCH   5  10
TORSDOF 2
ENDMDL
MODEL 2
REMARK VINA RESULT:      -3.4     19.768     20.631
REMARK  Name = 92041_2Ethoxy5fluorouracil.pdbqt.pdb
REMARK  2 active torsions:
REMARK  status: ('A' for Active; 'I' for Inactive)
REMARK    1  A    between atoms: C_5  and  O_10
REMARK    2  A    between atoms: O_10  and  C_11
REMARK                            x       y       z     vdW  Elec       q    Type
REMARK                         _______ _______ _______ _____ _____    ______ ____
ROOT
ATOM      1  F   UNL     1       7.372  23.603  31.943  0.00  0.00    +0.000 F 
ATOM      2  O   UNL     1       5.153  23.673  30.153  0.00  0.00    +0.000 OA
ATOM      3  N   UNL     1       6.610  24.240  28.469  0.00  0.00    +0.000 N 
ATOM      4  N   UNL     1       8.956  24.329  28.761  0.00  0.00    +0.000 NA
ATOM      5  C   UNL     1       7.900  24.500  28.015  0.00  0.00    +0.000 C 
ATOM      6  C   UNL     1       6.305  23.806  29.761  0.00  0.00    +0.000 C 
ATOM      7  C   UNL     1       7.512  23.546  30.608  0.00  0.00    +0.000 C 
ATOM      8  C   UNL     1       8.582  23.879  29.965  0.00  0.00    +0.000 C 
ATOM      9  H   UNL     1       5.825  24.426  27.863  0.00  0.00    +0.000 HD
ENDROOT
BRANCH   5  10
ATOM     10  O   UNL     1       7.922  24.942  26.736  0.00  0.00    +0.000 OA
BRANCH  10  11
ATOM     11  C   UNL     1       8.661  26.022  26.502  0.00  0.00    +0.000 C 
ATOM     12  C   UNL     1       9.498  27.287  26.290  0.00  0.00    +0.000 C 
ENDBRANCH  10  11
ENDBRANCH   5  10
TORSDOF 2
ENDMDL
MODEL 3
REMARK VINA RESULT:      -3.3     26.292     26.673
REMARK  Name = 92041_2Ethoxy5fluorouracil.pdbqt.pdb
REMARK  2 active torsions:
REMARK  status: ('A' for Active; 'I' for Inactive)
REMARK    1  A    between atoms: C_5  and  O_10
REMARK    2  A    between atoms: O_10  and  C_11
REMARK                            x       y       z     vdW  Elec       q    Type
REMARK                         _______ _______ _______ _____ _____    ______ ____
ROOT
ATOM      1  F   UNL     1       3.903  10.348   9.038  0.00  0.00    +0.000 F 
ATOM      2  O   UNL     1       2.407  12.560   8.035  0.00  0.00    +0.000 OA
ATOM      3  N   UNL     1       1.309  12.650  10.052  0.00  0.00    +0.000 N 
ATOM      4  N   UNL     1       1.871  11.278  11.895  0.00  0.00    +0.000 NA
ATOM      5  C   UNL     1       1.107  12.181  11.347  0.00  0.00    +0.000 C 
ATOM      6  C   UNL     1       2.314  12.190   9.198  0.00  0.00    +0.000 C 
ATOM      7  C   UNL     1       3.237  11.198   9.837  0.00  0.00    +0.000 C 
ATOM      8  C   UNL     1       2.827  10.918  11.030  0.00  0.00    +0.000 C 
ATOM      9  H   UNL     1       0.664  13.321   9.663  0.00  0.00    +0.000 HD
ENDROOT
BRANCH   5  10
ATOM     10  O   UNL     1       0.046  12.764  11.951  0.00  0.00    +0.000 OA
BRANCH  10  11
ATOM     11  C   UNL     1      -1.043  12.012  12.075  0.00  0.00    +0.000 C 
ATOM     12  C   UNL     1      -2.261  11.094  12.225  0.00  0.00    +0.000 C 
ENDBRANCH  10  11
ENDBRANCH   5  10
TORSDOF 2
ENDMDL
MODEL 4
REMARK VINA RESULT:      -3.2     30.511     31.515
REMARK  Name = 92041_2Ethoxy5fluorouracil.pdbqt.pdb
REMARK  2 active torsions:
REMARK  status: ('A' for Active; 'I' for Inactive)
REMARK    1  A    between atoms: C_5  and  O_10
REMARK    2  A    between atoms: O_10  and  C_11
REMARK                            x       y       z     vdW  Elec       q    Type
REMARK                         _______ _______ _______ _____ _____    ______ ____
ROOT
ATOM      1  F   UNL     1      -4.835  26.437  19.039  0.00  0.00    +0.000 F 
ATOM      2  O   UNL     1      -4.377  29.213  19.505  0.00  0.00    +0.000 OA
ATOM      3  N   UNL     1      -2.479  29.051  18.220  0.00  0.00    +0.000 N 
ATOM      4  N   UNL     1      -1.862  27.082  17.063  0.00  0.00    +0.000 NA
ATOM      5  C   UNL     1      -1.610  28.308  17.426  0.00  0.00    +0.000 C 
ATOM      6  C   UNL     1      -3.681  28.563  18.736  0.00  0.00    +0.000 C 
ATOM      7  C   UNL     1      -4.014  27.177  18.276  0.00  0.00    +0.000 C 
ATOM      8  C   UNL     1      -3.044  26.703  17.565  0.00  0.00    +0.000 C 
ATOM      9  H   UNL     1      -2.216  29.982  18.504  0.00  0.00    +0.000 HD
ENDROOT
BRANCH   5  10
ATOM     10  O   UNL     1      -0.497  29.000  17.085  0.00  0.00    +0.000 OA
BRANCH  10  11
ATOM     11  C   UNL     1       0.223  28.497  16.087  0.00  0.00    +0.000 C 
ATOM     12  C   UNL     1       1.006  27.933  14.898  0.00  0.00    +0.000 C 
ENDBRANCH  10  11
ENDBRANCH   5  10
TORSDOF 2
ENDMDL
MODEL 5
REMARK VINA RESULT:      -3.1      2.735      4.445
REMARK  Name = 92041_2Ethoxy5fluorouracil.pdbqt.pdb
REMARK  2 active torsions:
REMARK  status: ('A' for Active; 'I' for Inactive)
REMARK    1  A    between atoms: C_5  and  O_10
REMARK    2  A    between atoms: O_10  and  C_11
REMARK                            x       y       z     vdW  Elec       q    Type
REMARK                         _______ _______ _______ _____ _____    ______ ____
ROOT
ATOM      1  F   UNL     1      24.370  13.692  24.488  0.00  0.00    +0.000 F 
ATOM      2  O   UNL     1      24.834  11.554  22.659  0.00  0.00    +0.000 OA
ATOM      3  N   UNL     1      24.169  10.089  24.300  0.00  0.00    +0.000 N 
ATOM      4  N   UNL     1      23.324  10.789  26.396  0.00  0.00    +0.000 NA
ATOM      5  C   UNL     1      23.694   9.838  25.585  0.00  0.00    +0.000 C 
ATOM      6  C   UNL     1      24.330  11.366  23.758  0.00  0.00    +0.000 C 
ATOM      7  C   UNL     1      23.851  12.464  24.657  0.00  0.00    +0.000 C 
ATOM      8  C   UNL     1      23.475  11.974  25.791  0.00  0.00    +0.000 C 
ATOM      9  H   UNL     1      24.478   9.318  23.727  0.00  0.00    +0.000 HD
ENDROOT
BRANCH   5  10
ATOM     10  O   UNL     1      23.665   8.517  25.879  0.00  0.00    +0.000 OA
BRANCH  10  11
ATOM     11  C   UNL     1      24.656   7.785  25.379  0.00  0.00    +0.000 C 
ATOM     12  C   UNL     1      25.759   6.891  24.804  0.00  0.00    +0.000 C 
ENDBRANCH  10  11
ENDBRANCH   5  10
TORSDOF 2
ENDMDL
MODEL 6
REMARK VINA RESULT:      -3.1     26.709     27.098
REMARK  Name = 92041_2Ethoxy5fluorouracil.pdbqt.pdb
REMARK  2 active torsions:
REMARK  status: ('A' for Active; 'I' for Inactive)
REMARK    1  A    between atoms: C_5  and  O_10
REMARK    2  A    between atoms: O_10  and  C_11
REMARK                            x       y       z     vdW  Elec       q    Type
REMARK                         _______ _______ _______ _____ _____    ______ ____
ROOT
ATOM      1  F   UNL     1       3.869  10.292   8.962  0.00  0.00    +0.000 F 
ATOM      2  O   UNL     1       3.216  12.917   8.059  0.00  0.00    +0.000 OA
ATOM      3  N   UNL     1       1.580  12.996   9.671  0.00  0.00    +0.000 N 
ATOM      4  N   UNL     1       1.261  11.290  11.278  0.00  0.00    +0.000 NA
ATOM      5  C   UNL     1       0.896  12.418  10.737  0.00  0.00    +0.000 C 
ATOM      6  C   UNL     1       2.694  12.426   9.051  0.00  0.00    +0.000 C 
ATOM      7  C   UNL     1       3.161  11.161   9.702  0.00  0.00    +0.000 C 
ATOM      8  C   UNL     1       2.353  10.830  10.654  0.00  0.00    +0.000 C 
ATOM      9  H   UNL     1       1.231  13.851   9.264  0.00  0.00    +0.000 HD
ENDROOT
BRANCH   5  10
ATOM     10  O   UNL     1      -0.169  13.155  11.131  0.00  0.00    +0.000 OA
BRANCH  10  11
ATOM     11  C   UNL     1      -1.110  13.360  10.215  0.00  0.00    +0.000 C 
ATOM     12  C   UNL     1      -2.150  13.620   9.121  0.00  0.00    +0.000 C 
ENDBRANCH  10  11
ENDBRANCH   5  10
TORSDOF 2
ENDMDL
MODEL 7
REMARK VINA RESULT:      -3.1     16.280     17.774
REMARK  Name = 92041_2Ethoxy5fluorouracil.pdbqt.pdb
REMARK  2 active torsions:
REMARK  status: ('A' for Active; 'I' for Inactive)
REMARK    1  A    between atoms: C_5  and  O_10
REMARK    2  A    between atoms: O_10  and  C_11
REMARK                            x       y       z     vdW  Elec       q    Type
REMARK                         _______ _______ _______ _____ _____    ______ ____
ROOT
ATOM      1  F   UNL     1      18.979  -3.588  12.470  0.00  0.00    +0.000 F 
ATOM      2  O   UNL     1      17.404  -2.676  14.665  0.00  0.00    +0.000 OA
ATOM      3  N   UNL     1      18.948  -1.006  14.997  0.00  0.00    +0.000 N 
ATOM      4  N   UNL     1      20.781  -0.631  13.551  0.00  0.00    +0.000 NA
ATOM      5  C   UNL     1      20.117  -0.343  14.635  0.00  0.00    +0.000 C 
ATOM      6  C   UNL     1      18.383  -2.057  14.271  0.00  0.00    +0.000 C 
ATOM      7  C   UNL     1      19.102  -2.356  12.991  0.00  0.00    +0.000 C 
ATOM      8  C   UNL     1      20.158  -1.618  12.895  0.00  0.00    +0.000 C 
ATOM      9  H   UNL     1      18.494  -0.770  15.867  0.00  0.00    +0.000 HD
ENDROOT
BRANCH   5  10
ATOM     10  O   UNL     1      20.470   0.613  15.526  0.00  0.00    +0.000 OA
BRANCH  10  11
ATOM     11  C   UNL     1      20.542   0.230  16.797  0.00  0.00    +0.000 C 
ATOM     12  C   UNL     1      20.628  -0.271  18.242  0.00  0.00    +0.000 C 
ENDBRANCH  10  11
ENDBRANCH   5  10
TORSDOF 2
ENDMDL
MODEL 8
REMARK VINA RESULT:      -3.1     22.307     23.701
REMARK  Name = 92041_2Ethoxy5fluorouracil.pdbqt.pdb
REMARK  2 active torsions:
REMARK  status: ('A' for Active; 'I' for Inactive)
REMARK    1  A    between atoms: C_5  and  O_10
REMARK    2  A    between atoms: O_10  and  C_11
REMARK                            x       y       z     vdW  Elec       q    Type
REMARK                         _______ _______ _______ _____ _____    ______ ____
ROOT
ATOM      1  F   UNL     1       6.773  23.041  29.498  0.00  0.00    +0.000 F 
ATOM      2  O   UNL     1       6.592  25.879  29.723  0.00  0.00    +0.000 OA
ATOM      3  N   UNL     1       4.320  25.650  29.982  0.00  0.00    +0.000 N 
ATOM      4  N   UNL     1       3.239  23.552  30.139  0.00  0.00    +0.000 NA
ATOM      5  C   UNL     1       3.183  24.853  30.082  0.00  0.00    +0.000 C 
ATOM      6  C   UNL     1       5.623  25.153  29.900  0.00  0.00    +0.000 C 
ATOM      7  C   UNL     1       5.706  23.663  30.026  0.00  0.00    +0.000 C 
ATOM      8  C   UNL     1       4.518  23.159  30.092  0.00  0.00    +0.000 C 
ATOM      9  H   UNL     1       4.218  26.651  29.902  0.00  0.00    +0.000 HD
ENDROOT
BRANCH   5  10
ATOM     10  O   UNL     1       2.041  25.579  30.112  0.00  0.00    +0.000 OA
BRANCH  10  11
ATOM     11  C   UNL     1       0.908  24.885  30.147  0.00  0.00    +0.000 C 
ATOM     12  C   UNL     1      -0.366  24.036  30.208  0.00  0.00    +0.000 C 
ENDBRANCH  10  11
ENDBRANCH   5  10
TORSDOF 2
ENDMDL
MODEL 9
REMARK VINA RESULT:      -3.0      2.520      2.704
REMARK  Name = 92041_2Ethoxy5fluorouracil.pdbqt.pdb
REMARK  2 active torsions:
REMARK  status: ('A' for Active; 'I' for Inactive)
REMARK    1  A    between atoms: C_5  and  O_10
REMARK    2  A    between atoms: O_10  and  C_11
REMARK                            x       y       z     vdW  Elec       q    Type
REMARK                         _______ _______ _______ _____ _____    ______ ____
ROOT
ATOM      1  F   UNL     1      23.742   9.841  23.534  0.00  0.00    +0.000 F 
ATOM      2  O   UNL     1      25.352  11.686  22.073  0.00  0.00    +0.000 OA
ATOM      3  N   UNL     1      24.984  13.228  23.737  0.00  0.00    +0.000 N 
ATOM      4  N   UNL     1      23.812  12.727  25.729  0.00  0.00    +0.000 NA
ATOM      5  C   UNL     1      24.423  13.584  24.960  0.00  0.00    +0.000 C 
ATOM      6  C   UNL     1      24.926  11.943  23.191  0.00  0.00    +0.000 C 
ATOM      7  C   UNL     1      24.282  10.936  24.093  0.00  0.00    +0.000 C 
ATOM      8  C   UNL     1      23.832  11.518  25.155  0.00  0.00    +0.000 C 
ATOM      9  H   UNL     1      25.411  13.939  23.163  0.00  0.00    +0.000 HD
ENDROOT
BRANCH   5  10
ATOM     10  O   UNL     1      24.586  14.897  25.244  0.00  0.00    +0.000 OA
BRANCH  10  11
ATOM     11  C   UNL     1      25.756  15.428  24.903  0.00  0.00    +0.000 C 
ATOM     12  C   UNL     1      27.119  15.986  24.482  0.00  0.00    +0.000 C 
ENDBRANCH  10  11
ENDBRANCH   5  10
TORSDOF 2
ENDMDL
