MODEL 1
REMARK VINA RESULT:      -4.2      0.000      0.000
REMARK  Name = 95716_6Bromoisatin.pdbqt.pdb
REMARK  0 active torsions:
REMARK  status: ('A' for Active; 'I' for Inactive)
REMARK                            x       y       z     vdW  Elec       q    Type
REMARK                         _______ _______ _______ _____ _____    ______ ____
ROOT
ATOM      1 BR   UNL     1      11.835  30.196  30.764  0.00  0.00    +0.000 Br
ATOM      2  O   UNL     1       8.531  25.510  26.780  0.00  0.00    +0.000 OA
ATOM      3  O   UNL     1       9.520  26.965  24.335  0.00  0.00    +0.000 OA
ATOM      4  N   UNL     1      10.477  28.316  25.978  0.00  0.00    +0.000 N 
ATOM      5  C   UNL     1      10.490  28.314  27.370  0.00  0.00    +0.000 A 
ATOM      6  C   UNL     1       9.755  27.250  27.885  0.00  0.00    +0.000 A 
ATOM      7  C   UNL     1       9.221  26.501  26.748  0.00  0.00    +0.000 C 
ATOM      8  C   UNL     1      11.127  29.216  28.195  0.00  0.00    +0.000 A 
ATOM      9  C   UNL     1       9.612  27.026  29.239  0.00  0.00    +0.000 A 
ATOM     10  C   UNL     1       9.735  27.257  25.489  0.00  0.00    +0.000 C 
ATOM     11  C   UNL     1      10.994  29.005  29.569  0.00  0.00    +0.000 A 
ATOM     12  C   UNL     1      10.251  27.930  30.089  0.00  0.00    +0.000 A 
ATOM     13  H   UNL     1      10.938  28.986  25.377  0.00  0.00    +0.000 HD
ENDROOT
TORSDOF 0
ENDMDL
MODEL 2
REMARK VINA RESULT:      -4.1     20.227     21.073
REMARK  Name = 95716_6Bromoisatin.pdbqt.pdb
REMARK  0 active torsions:
REMARK  status: ('A' for Active; 'I' for Inactive)
REMARK                            x       y       z     vdW  Elec       q    Type
REMARK                         _______ _______ _______ _____ _____    ______ ____
ROOT
ATOM      1 BR   UNL     1      18.882  34.510  12.813  0.00  0.00    +0.000 Br
ATOM      2  O   UNL     1      21.492  30.047   8.121  0.00  0.00    +0.000 OA
ATOM      3  O   UNL     1      19.069  30.521   6.396  0.00  0.00    +0.000 OA
ATOM      4  N   UNL     1      18.533  31.930   8.176  0.00  0.00    +0.000 N 
ATOM      5  C   UNL     1      19.144  32.273   9.378  0.00  0.00    +0.000 A 
ATOM      6  C   UNL     1      20.359  31.611   9.540  0.00  0.00    +0.000 A 
ATOM      7  C   UNL     1      20.557  30.774   8.358  0.00  0.00    +0.000 C 
ATOM      8  C   UNL     1      18.667  33.147  10.332  0.00  0.00    +0.000 A 
ATOM      9  C   UNL     1      21.160  31.781  10.650  0.00  0.00    +0.000 A 
ATOM     10  C   UNL     1      19.302  31.023   7.471  0.00  0.00    +0.000 C 
ATOM     11  C   UNL     1      19.465  33.330  11.463  0.00  0.00    +0.000 A 
ATOM     12  C   UNL     1      20.691  32.662  11.626  0.00  0.00    +0.000 A 
ATOM     13  H   UNL     1      17.647  32.278   7.835  0.00  0.00    +0.000 HD
ENDROOT
TORSDOF 0
ENDMDL
MODEL 3
REMARK VINA RESULT:      -3.9     20.339     20.611
REMARK  Name = 95716_6Bromoisatin.pdbqt.pdb
REMARK  0 active torsions:
REMARK  status: ('A' for Active; 'I' for Inactive)
REMARK                            x       y       z     vdW  Elec       q    Type
REMARK                         _______ _______ _______ _____ _____    ______ ____
ROOT
ATOM      1 BR   UNL     1      23.679  16.563  27.639  0.00  0.00    +0.000 Br
ATOM      2  O   UNL     1      26.005  12.110  22.791  0.00  0.00    +0.000 OA
ATOM      3  O   UNL     1      23.629  10.344  23.345  0.00  0.00    +0.000 OA
ATOM      4  N   UNL     1      23.181  12.050  24.870  0.00  0.00    +0.000 N 
ATOM      5  C   UNL     1      23.807  13.240  25.229  0.00  0.00    +0.000 A 
ATOM      6  C   UNL     1      24.973  13.444  24.495  0.00  0.00    +0.000 A 
ATOM      7  C   UNL     1      25.120  12.304  23.590  0.00  0.00    +0.000 C 
ATOM      8  C   UNL     1      23.386  14.147  26.177  0.00  0.00    +0.000 A 
ATOM      9  C   UNL     1      25.778  14.552  24.662  0.00  0.00    +0.000 A 
ATOM     10  C   UNL     1      23.891  11.395  23.881  0.00  0.00    +0.000 C 
ATOM     11  C   UNL     1      24.188  15.276  26.360  0.00  0.00    +0.000 A 
ATOM     12  C   UNL     1      25.365  15.480  25.618  0.00  0.00    +0.000 A 
ATOM     13  H   UNL     1      22.323  11.686  25.261  0.00  0.00    +0.000 HD
ENDROOT
TORSDOF 0
ENDMDL
MODEL 4
REMARK VINA RESULT:      -3.9     23.588     24.978
REMARK  Name = 95716_6Bromoisatin.pdbqt.pdb
REMARK  0 active torsions:
REMARK  status: ('A' for Active; 'I' for Inactive)
REMARK                            x       y       z     vdW  Elec       q    Type
REMARK                         _______ _______ _______ _____ _____    ______ ____
ROOT
ATOM      1 BR   UNL     1      20.839  26.549   1.997  0.00  0.00    +0.000 Br
ATOM      2  O   UNL     1      21.469  30.228   7.897  0.00  0.00    +0.000 OA
ATOM      3  O   UNL     1      18.662  31.247   7.503  0.00  0.00    +0.000 OA
ATOM      4  N   UNL     1      18.831  29.896   5.609  0.00  0.00    +0.000 N 
ATOM      5  C   UNL     1      19.820  29.079   5.067  0.00  0.00    +0.000 A 
ATOM      6  C   UNL     1      20.970  29.081   5.852  0.00  0.00    +0.000 A 
ATOM      7  C   UNL     1      20.716  29.963   6.991  0.00  0.00    +0.000 C 
ATOM      8  C   UNL     1      19.740  28.337   3.909  0.00  0.00    +0.000 A 
ATOM      9  C   UNL     1      22.095  28.351   5.531  0.00  0.00    +0.000 A 
ATOM     10  C   UNL     1      19.265  30.486   6.782  0.00  0.00    +0.000 C 
ATOM     11  C   UNL     1      20.870  27.591   3.568  0.00  0.00    +0.000 A 
ATOM     12  C   UNL     1      22.031  27.593   4.361  0.00  0.00    +0.000 A 
ATOM     13  H   UNL     1      17.912  30.057   5.223  0.00  0.00    +0.000 HD
ENDROOT
TORSDOF 0
ENDMDL
MODEL 5
REMARK VINA RESULT:      -3.9     20.057     20.224
REMARK  Name = 95716_6Bromoisatin.pdbqt.pdb
REMARK  0 active torsions:
REMARK  status: ('A' for Active; 'I' for Inactive)
REMARK                            x       y       z     vdW  Elec       q    Type
REMARK                         _______ _______ _______ _____ _____    ______ ____
ROOT
ATOM      1 BR   UNL     1      26.666  17.312  26.423  0.00  0.00    +0.000 Br
ATOM      2  O   UNL     1      22.475  11.747  25.961  0.00  0.00    +0.000 OA
ATOM      3  O   UNL     1      23.673  11.130  23.268  0.00  0.00    +0.000 OA
ATOM      4  N   UNL     1      24.895  13.049  23.781  0.00  0.00    +0.000 N 
ATOM      5  C   UNL     1      24.932  13.934  24.855  0.00  0.00    +0.000 A 
ATOM      6  C   UNL     1      24.020  13.575  25.845  0.00  0.00    +0.000 A 
ATOM      7  C   UNL     1      23.337  12.367  25.385  0.00  0.00    +0.000 C 
ATOM      8  C   UNL     1      25.740  15.043  24.989  0.00  0.00    +0.000 A 
ATOM      9  C   UNL     1      23.863  14.293  27.012  0.00  0.00    +0.000 A 
ATOM     10  C   UNL     1      23.959  12.053  23.994  0.00  0.00    +0.000 C 
ATOM     11  C   UNL     1      25.595  15.781  26.165  0.00  0.00    +0.000 A 
ATOM     12  C   UNL     1      24.675  15.418  27.164  0.00  0.00    +0.000 A 
ATOM     13  H   UNL     1      25.461  13.099  22.946  0.00  0.00    +0.000 HD
ENDROOT
TORSDOF 0
ENDMDL
MODEL 6
REMARK VINA RESULT:      -3.9     25.319     26.318
REMARK  Name = 95716_6Bromoisatin.pdbqt.pdb
REMARK  0 active torsions:
REMARK  status: ('A' for Active; 'I' for Inactive)
REMARK                            x       y       z     vdW  Elec       q    Type
REMARK                         _______ _______ _______ _____ _____    ______ ____
ROOT
ATOM      1 BR   UNL     1      21.396  25.562   1.693  0.00  0.00    +0.000 Br
ATOM      2  O   UNL     1      22.509  29.637   7.251  0.00  0.00    +0.000 OA
ATOM      3  O   UNL     1      25.252  28.425   7.529  0.00  0.00    +0.000 OA
ATOM      4  N   UNL     1      24.517  27.243   5.658  0.00  0.00    +0.000 N 
ATOM      5  C   UNL     1      23.348  27.225   4.901  0.00  0.00    +0.000 A 
ATOM      6  C   UNL     1      22.409  28.130   5.391  0.00  0.00    +0.000 A 
ATOM      7  C   UNL     1      23.007  28.788   6.552  0.00  0.00    +0.000 C 
ATOM      8  C   UNL     1      23.085  26.440   3.800  0.00  0.00    +0.000 A 
ATOM      9  C   UNL     1      21.167  28.302   4.816  0.00  0.00    +0.000 A 
ATOM     10  C   UNL     1      24.423  28.158   6.690  0.00  0.00    +0.000 C 
ATOM     11  C   UNL     1      21.832  26.601   3.205  0.00  0.00    +0.000 A 
ATOM     12  C   UNL     1      20.885  27.514   3.699  0.00  0.00    +0.000 A 
ATOM     13  H   UNL     1      25.339  26.678   5.500  0.00  0.00    +0.000 HD
ENDROOT
TORSDOF 0
ENDMDL
MODEL 7
REMARK VINA RESULT:      -3.7     26.995     27.630
REMARK  Name = 95716_6Bromoisatin.pdbqt.pdb
REMARK  0 active torsions:
REMARK  status: ('A' for Active; 'I' for Inactive)
REMARK                            x       y       z     vdW  Elec       q    Type
REMARK                         _______ _______ _______ _____ _____    ______ ____
ROOT
ATOM      1 BR   UNL     1       2.533  17.871   1.256  0.00  0.00    +0.000 Br
ATOM      2  O   UNL     1       3.407  13.649   6.747  0.00  0.00    +0.000 OA
ATOM      3  O   UNL     1       6.121  12.900   5.677  0.00  0.00    +0.000 OA
ATOM      4  N   UNL     1       5.469  14.394   4.009  0.00  0.00    +0.000 N 
ATOM      5  C   UNL     1       4.339  15.172   3.771  0.00  0.00    +0.000 A 
ATOM      6  C   UNL     1       3.385  15.007   4.773  0.00  0.00    +0.000 A 
ATOM      7  C   UNL     1       3.931  14.052   5.737  0.00  0.00    +0.000 C 
ATOM      8  C   UNL     1       4.123  16.017   2.704  0.00  0.00    +0.000 A 
ATOM      9  C   UNL     1       2.175  15.669   4.769  0.00  0.00    +0.000 A 
ATOM     10  C   UNL     1       5.333  13.670   5.179  0.00  0.00    +0.000 C 
ATOM     11  C   UNL     1       2.903  16.696   2.683  0.00  0.00    +0.000 A 
ATOM     12  C   UNL     1       1.941  16.529   3.695  0.00  0.00    +0.000 A 
ATOM     13  H   UNL     1       6.292  14.343   3.426  0.00  0.00    +0.000 HD
ENDROOT
TORSDOF 0
ENDMDL
MODEL 8
REMARK VINA RESULT:      -3.7      9.360     10.471
REMARK  Name = 95716_6Bromoisatin.pdbqt.pdb
REMARK  0 active torsions:
REMARK  status: ('A' for Active; 'I' for Inactive)
REMARK                            x       y       z     vdW  Elec       q    Type
REMARK                         _______ _______ _______ _____ _____    ______ ____
ROOT
ATOM      1 BR   UNL     1      16.070  36.000  18.088  0.00  0.00    +0.000 Br
ATOM      2  O   UNL     1      13.014  31.405  22.365  0.00  0.00    +0.000 OA
ATOM      3  O   UNL     1      14.638  32.521  24.643  0.00  0.00    +0.000 OA
ATOM      4  N   UNL     1      15.428  33.887  22.926  0.00  0.00    +0.000 N 
ATOM      5  C   UNL     1      15.172  34.003  21.563  0.00  0.00    +0.000 A 
ATOM      6  C   UNL     1      14.217  33.080  21.143  0.00  0.00    +0.000 A 
ATOM      7  C   UNL     1      13.821  32.303  22.317  0.00  0.00    +0.000 C 
ATOM      8  C   UNL     1      15.749  34.892  20.682  0.00  0.00    +0.000 A 
ATOM      9  C   UNL     1      13.788  32.991  19.835  0.00  0.00    +0.000 A 
ATOM     10  C   UNL     1      14.662  32.884  23.490  0.00  0.00    +0.000 C 
ATOM     11  C   UNL     1      15.327  34.816  19.353  0.00  0.00    +0.000 A 
ATOM     12  C   UNL     1      14.363  33.884  18.930  0.00  0.00    +0.000 A 
ATOM     13  H   UNL     1      16.080  34.445  23.460  0.00  0.00    +0.000 HD
ENDROOT
TORSDOF 0
ENDMDL
MODEL 9
REMARK VINA RESULT:      -3.6     26.656     27.326
REMARK  Name = 95716_6Bromoisatin.pdbqt.pdb
REMARK  0 active torsions:
REMARK  status: ('A' for Active; 'I' for Inactive)
REMARK                            x       y       z     vdW  Elec       q    Type
REMARK                         _______ _______ _______ _____ _____    ______ ____
ROOT
ATOM      1 BR   UNL     1      17.511  19.911   2.234  0.00  0.00    +0.000 Br
ATOM      2  O   UNL     1      20.270  26.323   2.082  0.00  0.00    +0.000 OA
ATOM      3  O   UNL     1      17.523  27.463   2.555  0.00  0.00    +0.000 OA
ATOM      4  N   UNL     1      16.981  25.194   2.542  0.00  0.00    +0.000 N 
ATOM      5  C   UNL     1      17.698  24.012   2.381  0.00  0.00    +0.000 A 
ATOM      6  C   UNL     1      19.054  24.260   2.182  0.00  0.00    +0.000 A 
ATOM      7  C   UNL     1      19.238  25.710   2.216  0.00  0.00    +0.000 C 
ATOM      8  C   UNL     1      17.197  22.728   2.403  0.00  0.00    +0.000 A 
ATOM      9  C   UNL     1      19.978  23.254   1.996  0.00  0.00    +0.000 A 
ATOM     10  C   UNL     1      17.815  26.293   2.460  0.00  0.00    +0.000 C 
ATOM     11  C   UNL     1      18.119  21.696   2.216  0.00  0.00    +0.000 A 
ATOM     12  C   UNL     1      19.487  21.947   2.016  0.00  0.00    +0.000 A 
ATOM     13  H   UNL     1      15.986  25.272   2.699  0.00  0.00    +0.000 HD
ENDROOT
TORSDOF 0
ENDMDL
