MODEL 1
REMARK VINA RESULT:      -6.0      0.000      0.000
REMARK  Name = 969516_Curcumin.pdbqt.pdb
REMARK  8 active torsions:
REMARK  status: ('A' for Active; 'I' for Inactive)
REMARK    1  A    between atoms: C_3  and  C_5
REMARK    2  A    between atoms: C_4  and  C_6
REMARK    3  A    between atoms: C_8  and  O_12
REMARK    4  A    between atoms: C_10  and  O_14
REMARK    5  A    between atoms: C_17  and  C_19
REMARK    6  A    between atoms: C_18  and  C_20
REMARK    7  A    between atoms: C_22  and  O_26
REMARK    8  A    between atoms: C_24  and  O_28
REMARK                            x       y       z     vdW  Elec       q    Type
REMARK                         _______ _______ _______ _____ _____    ______ ____
ROOT
ATOM      1  C   UNL     1       9.415  18.915  29.979  0.00  0.00    +0.000 C 
ATOM      2  O   UNL     1       7.375  19.081  31.011  0.00  0.00    +0.000 OA
ATOM      3  C   UNL     1       8.313  19.663  30.489  0.00  0.00    +0.000 C 
ATOM      4  O   UNL     1      11.297  18.691  28.690  0.00  0.00    +0.000 OA
ATOM      5  C   UNL     1      10.512  18.165  29.467  0.00  0.00    +0.000 C 
ENDROOT
BRANCH   3   7
ATOM      6  C   UNL     1       8.318  22.299  30.303  0.00  0.00    +0.000 C 
ATOM      7  C   UNL     1       8.316  21.101  30.388  0.00  0.00    +0.000 C 
BRANCH   6   8
ATOM      8  C   UNL     1       8.318  23.723  30.202  0.00  0.00    +0.000 A 
ATOM      9  C   UNL     1       8.698  24.334  29.008  0.00  0.00    +0.000 A 
ATOM     10  C   UNL     1       8.705  25.728  28.892  0.00  0.00    +0.000 A 
ATOM     11  C   UNL     1       7.940  24.498  31.295  0.00  0.00    +0.000 A 
ATOM     12  C   UNL     1       8.323  26.496  29.996  0.00  0.00    +0.000 A 
ATOM     13  C   UNL     1       7.942  25.886  31.191  0.00  0.00    +0.000 A 
BRANCH  10  14
ATOM     14  O   UNL     1       9.065  26.400  27.751  0.00  0.00    +0.000 OA
ATOM     15  C   UNL     1       8.555  25.891  26.550  0.00  0.00    +0.000 C 
ENDBRANCH  10  14
BRANCH  12  16
ATOM     16  O   UNL     1       8.297  27.864  29.978  0.00  0.00    +0.000 OA
ATOM     17  H   UNL     1       9.158  28.219  29.700  0.00  0.00    +0.000 HD
ENDBRANCH  12  16
ENDBRANCH   6   8
ENDBRANCH   3   7
BRANCH   5  19
ATOM     18  C   UNL     1      10.845  15.650  30.205  0.00  0.00    +0.000 C 
ATOM     19  C   UNL     1      10.692  16.794  29.869  0.00  0.00    +0.000 C 
BRANCH  18  20
ATOM     20  C   UNL     1      11.032  14.293  30.600  0.00  0.00    +0.000 A 
ATOM     21  C   UNL     1       9.924  13.477  30.827  0.00  0.00    +0.000 A 
ATOM     22  C   UNL     1      10.091  12.145  31.214  0.00  0.00    +0.000 A 
ATOM     23  C   UNL     1      12.319  13.784  30.759  0.00  0.00    +0.000 A 
ATOM     24  C   UNL     1      11.387  11.648  31.369  0.00  0.00    +0.000 A 
ATOM     25  C   UNL     1      12.498  12.459  31.145  0.00  0.00    +0.000 A 
BRANCH  22  26
ATOM     26  O   UNL     1       9.056  11.274  31.458  0.00  0.00    +0.000 OA
ATOM     27  C   UNL     1       8.236  11.600  32.550  0.00  0.00    +0.000 C 
ENDBRANCH  22  26
BRANCH  24  28
ATOM     28  O   UNL     1      11.570  10.346  31.748  0.00  0.00    +0.000 OA
ATOM     29  H   UNL     1      11.008   9.776  31.191  0.00  0.00    +0.000 HD
ENDBRANCH  24  28
ENDBRANCH  18  20
ENDBRANCH   5  19
TORSDOF 8
ENDMDL
MODEL 2
REMARK VINA RESULT:      -5.8     15.684     21.381
REMARK  Name = 969516_Curcumin.pdbqt.pdb
REMARK  8 active torsions:
REMARK  status: ('A' for Active; 'I' for Inactive)
REMARK    1  A    between atoms: C_3  and  C_5
REMARK    2  A    between atoms: C_4  and  C_6
REMARK    3  A    between atoms: C_8  and  O_12
REMARK    4  A    between atoms: C_10  and  O_14
REMARK    5  A    between atoms: C_17  and  C_19
REMARK    6  A    between atoms: C_18  and  C_20
REMARK    7  A    between atoms: C_22  and  O_26
REMARK    8  A    between atoms: C_24  and  O_28
REMARK                            x       y       z     vdW  Elec       q    Type
REMARK                         _______ _______ _______ _____ _____    ______ ____
ROOT
ATOM      1  C   UNL     1      25.144  11.619  24.765  0.00  0.00    +0.000 C 
ATOM      2  O   UNL     1      23.512  10.667  23.467  0.00  0.00    +0.000 OA
ATOM      3  C   UNL     1      24.693  10.694  23.778  0.00  0.00    +0.000 C 
ATOM      4  O   UNL     1      26.681  12.381  26.284  0.00  0.00    +0.000 OA
ATOM      5  C   UNL     1      25.592  12.541  25.753  0.00  0.00    +0.000 C 
ENDROOT
BRANCH   3   7
ATOM      6  C   UNL     1      26.416   9.052  22.630  0.00  0.00    +0.000 C 
ATOM      7  C   UNL     1      25.633   9.799  23.152  0.00  0.00    +0.000 C 
BRANCH   6   8
ATOM      8  C   UNL     1      27.346   8.166  22.009  0.00  0.00    +0.000 A 
ATOM      9  C   UNL     1      26.957   7.420  20.897  0.00  0.00    +0.000 A 
ATOM     10  C   UNL     1      27.855   6.547  20.276  0.00  0.00    +0.000 A 
ATOM     11  C   UNL     1      28.638   8.048  22.512  0.00  0.00    +0.000 A 
ATOM     12  C   UNL     1      29.151   6.436  20.790  0.00  0.00    +0.000 A 
ATOM     13  C   UNL     1      29.541   7.182  21.902  0.00  0.00    +0.000 A 
BRANCH  10  14
ATOM     14  O   UNL     1      27.546   5.782  19.179  0.00  0.00    +0.000 OA
ATOM     15  C   UNL     1      26.801   4.622  19.428  0.00  0.00    +0.000 C 
ENDBRANCH  10  14
BRANCH  12  16
ATOM     16  O   UNL     1      30.098   5.610  20.250  0.00  0.00    +0.000 OA
ATOM     17  H   UNL     1      29.901   5.427  19.316  0.00  0.00    +0.000 HD
ENDBRANCH  12  16
ENDBRANCH   6   8
ENDBRANCH   3   7
BRANCH   5  19
ATOM     18  C   UNL     1      24.063  14.587  26.428  0.00  0.00    +0.000 C 
ATOM     19  C   UNL     1      24.759  13.658  26.120  0.00  0.00    +0.000 C 
BRANCH  18  20
ATOM     20  C   UNL     1      23.231  15.687  26.792  0.00  0.00    +0.000 A 
ATOM     21  C   UNL     1      22.917  16.663  25.847  0.00  0.00    +0.000 A 
ATOM     22  C   UNL     1      22.103  17.747  26.188  0.00  0.00    +0.000 A 
ATOM     23  C   UNL     1      22.734  15.785  28.090  0.00  0.00    +0.000 A 
ATOM     24  C   UNL     1      21.611  17.831  27.493  0.00  0.00    +0.000 A 
ATOM     25  C   UNL     1      21.922  16.859  28.442  0.00  0.00    +0.000 A 
BRANCH  22  26
ATOM     26  O   UNL     1      21.746  18.750  25.320  0.00  0.00    +0.000 OA
ATOM     27  C   UNL     1      22.524  18.848  24.156  0.00  0.00    +0.000 C 
ENDBRANCH  22  26
BRANCH  24  28
ATOM     28  O   UNL     1      20.813  18.885  27.846  0.00  0.00    +0.000 OA
ATOM     29  H   UNL     1      20.974  19.098  28.785  0.00  0.00    +0.000 HD
ENDBRANCH  24  28
ENDBRANCH  18  20
ENDBRANCH   5  19
TORSDOF 8
ENDMDL
MODEL 3
REMARK VINA RESULT:      -5.7     14.150     18.842
REMARK  Name = 969516_Curcumin.pdbqt.pdb
REMARK  8 active torsions:
REMARK  status: ('A' for Active; 'I' for Inactive)
REMARK    1  A    between atoms: C_3  and  C_5
REMARK    2  A    between atoms: C_4  and  C_6
REMARK    3  A    between atoms: C_8  and  O_12
REMARK    4  A    between atoms: C_10  and  O_14
REMARK    5  A    between atoms: C_17  and  C_19
REMARK    6  A    between atoms: C_18  and  C_20
REMARK    7  A    between atoms: C_22  and  O_26
REMARK    8  A    between atoms: C_24  and  O_28
REMARK                            x       y       z     vdW  Elec       q    Type
REMARK                         _______ _______ _______ _____ _____    ______ ____
ROOT
ATOM      1  C   UNL     1      23.198  18.946  26.552  0.00  0.00    +0.000 C 
ATOM      2  O   UNL     1      21.348  18.281  25.374  0.00  0.00    +0.000 OA
ATOM      3  C   UNL     1      22.325  17.948  26.026  0.00  0.00    +0.000 C 
ATOM      4  O   UNL     1      24.855  19.656  27.967  0.00  0.00    +0.000 OA
ATOM      5  C   UNL     1      24.065  19.945  27.080  0.00  0.00    +0.000 C 
ENDROOT
BRANCH   3   7
ATOM      6  C   UNL     1      22.838  15.394  26.467  0.00  0.00    +0.000 C 
ATOM      7  C   UNL     1      22.605  16.555  26.266  0.00  0.00    +0.000 C 
BRANCH   6   8
ATOM      8  C   UNL     1      23.112  14.014  26.706  0.00  0.00    +0.000 A 
ATOM      9  C   UNL     1      23.080  13.106  25.648  0.00  0.00    +0.000 A 
ATOM     10  C   UNL     1      23.346  11.751  25.864  0.00  0.00    +0.000 A 
ATOM     11  C   UNL     1      23.412  13.577  27.993  0.00  0.00    +0.000 A 
ATOM     12  C   UNL     1      23.646  11.323  27.161  0.00  0.00    +0.000 A 
ATOM     13  C   UNL     1      23.679  12.230  28.220  0.00  0.00    +0.000 A 
BRANCH  10  14
ATOM     14  O   UNL     1      23.334  10.800  24.874  0.00  0.00    +0.000 OA
ATOM     15  C   UNL     1      24.291  10.952  23.863  0.00  0.00    +0.000 C 
ENDBRANCH  10  14
BRANCH  12  16
ATOM     16  O   UNL     1      23.921  10.019  27.469  0.00  0.00    +0.000 OA
ATOM     17  H   UNL     1      23.609   9.427  26.764  0.00  0.00    +0.000 HD
ENDBRANCH  12  16
ENDBRANCH   6   8
ENDBRANCH   3   7
BRANCH   5  19
ATOM     18  C   UNL     1      23.963  22.410  26.133  0.00  0.00    +0.000 C 
ATOM     19  C   UNL     1      24.007  21.289  26.564  0.00  0.00    +0.000 C 
BRANCH  18  20
ATOM     20  C   UNL     1      23.913  23.742  25.627  0.00  0.00    +0.000 A 
ATOM     21  C   UNL     1      24.627  24.075  24.477  0.00  0.00    +0.000 A 
ATOM     22  C   UNL     1      24.588  25.376  23.968  0.00  0.00    +0.000 A 
ATOM     23  C   UNL     1      23.150  24.708  26.281  0.00  0.00    +0.000 A 
ATOM     24  C   UNL     1      23.819  26.334  24.633  0.00  0.00    +0.000 A 
ATOM     25  C   UNL     1      23.103  26.007  25.784  0.00  0.00    +0.000 A 
BRANCH  22  26
ATOM     26  O   UNL     1      25.261  25.788  22.843  0.00  0.00    +0.000 OA
ATOM     27  C   UNL     1      25.684  24.763  21.982  0.00  0.00    +0.000 C 
ENDBRANCH  22  26
BRANCH  24  28
ATOM     28  O   UNL     1      23.768  27.613  24.150  0.00  0.00    +0.000 OA
ATOM     29  H   UNL     1      24.674  27.902  23.933  0.00  0.00    +0.000 HD
ENDBRANCH  24  28
ENDBRANCH  18  20
ENDBRANCH   5  19
TORSDOF 8
ENDMDL
MODEL 4
REMARK VINA RESULT:      -5.7     15.791     18.859
REMARK  Name = 969516_Curcumin.pdbqt.pdb
REMARK  8 active torsions:
REMARK  status: ('A' for Active; 'I' for Inactive)
REMARK    1  A    between atoms: C_3  and  C_5
REMARK    2  A    between atoms: C_4  and  C_6
REMARK    3  A    between atoms: C_8  and  O_12
REMARK    4  A    between atoms: C_10  and  O_14
REMARK    5  A    between atoms: C_17  and  C_19
REMARK    6  A    between atoms: C_18  and  C_20
REMARK    7  A    between atoms: C_22  and  O_26
REMARK    8  A    between atoms: C_24  and  O_28
REMARK                            x       y       z     vdW  Elec       q    Type
REMARK                         _______ _______ _______ _____ _____    ______ ____
ROOT
ATOM      1  C   UNL     1      25.216  11.435  24.691  0.00  0.00    +0.000 C 
ATOM      2  O   UNL     1      26.816  12.253  26.114  0.00  0.00    +0.000 OA
ATOM      3  C   UNL     1      25.703  12.392  25.629  0.00  0.00    +0.000 C 
ATOM      4  O   UNL     1      23.536  10.431  23.498  0.00  0.00    +0.000 OA
ATOM      5  C   UNL     1      24.730  10.475  23.757  0.00  0.00    +0.000 C 
ENDROOT
BRANCH   3   7
ATOM      6  C   UNL     1      24.197  14.458  26.298  0.00  0.00    +0.000 C 
ATOM      7  C   UNL     1      24.881  13.518  25.994  0.00  0.00    +0.000 C 
BRANCH   6   8
ATOM      8  C   UNL     1      23.384  15.574  26.657  0.00  0.00    +0.000 A 
ATOM      9  C   UNL     1      23.364  16.708  25.847  0.00  0.00    +0.000 A 
ATOM     10  C   UNL     1      22.573  17.811  26.184  0.00  0.00    +0.000 A 
ATOM     11  C   UNL     1      22.613  15.529  27.815  0.00  0.00    +0.000 A 
ATOM     12  C   UNL     1      21.803  17.754  27.349  0.00  0.00    +0.000 A 
ATOM     13  C   UNL     1      21.821  16.620  28.161  0.00  0.00    +0.000 A 
BRANCH  10  14
ATOM     14  O   UNL     1      22.502  18.959  25.436  0.00  0.00    +0.000 OA
ATOM     15  C   UNL     1      22.367  18.786  24.053  0.00  0.00    +0.000 C 
ENDBRANCH  10  14
BRANCH  12  16
ATOM     16  O   UNL     1      20.999  18.782  27.760  0.00  0.00    +0.000 OA
ATOM     17  H   UNL     1      21.494  19.618  27.780  0.00  0.00    +0.000 HD
ENDBRANCH  12  16
ENDBRANCH   6   8
ENDBRANCH   3   7
BRANCH   5  19
ATOM     18  C   UNL     1      26.417   8.808  22.592  0.00  0.00    +0.000 C 
ATOM     19  C   UNL     1      25.649   9.564  23.123  0.00  0.00    +0.000 C 
BRANCH  18  20
ATOM     20  C   UNL     1      27.327   7.913  21.957  0.00  0.00    +0.000 A 
ATOM     21  C   UNL     1      26.924   7.195  20.832  0.00  0.00    +0.000 A 
ATOM     22  C   UNL     1      27.805   6.314  20.198  0.00  0.00    +0.000 A 
ATOM     23  C   UNL     1      28.617   7.757  22.461  0.00  0.00    +0.000 A 
ATOM     24  C   UNL     1      29.095   6.168  20.714  0.00  0.00    +0.000 A 
ATOM     25  C   UNL     1      29.503   6.883  21.839  0.00  0.00    +0.000 A 
BRANCH  22  26
ATOM     26  O   UNL     1      27.490   5.569  19.087  0.00  0.00    +0.000 OA
ATOM     27  C   UNL     1      26.652   4.466  19.316  0.00  0.00    +0.000 C 
ENDBRANCH  22  26
BRANCH  24  28
ATOM     28  O   UNL     1      29.972   5.311  20.108  0.00  0.00    +0.000 OA
ATOM     29  H   UNL     1      30.781   5.256  20.650  0.00  0.00    +0.000 HD
ENDBRANCH  24  28
ENDBRANCH  18  20
ENDBRANCH   5  19
TORSDOF 8
ENDMDL
MODEL 5
REMARK VINA RESULT:      -5.5     24.974     27.858
REMARK  Name = 969516_Curcumin.pdbqt.pdb
REMARK  8 active torsions:
REMARK  status: ('A' for Active; 'I' for Inactive)
REMARK    1  A    between atoms: C_3  and  C_5
REMARK    2  A    between atoms: C_4  and  C_6
REMARK    3  A    between atoms: C_8  and  O_12
REMARK    4  A    between atoms: C_10  and  O_14
REMARK    5  A    between atoms: C_17  and  C_19
REMARK    6  A    between atoms: C_18  and  C_20
REMARK    7  A    between atoms: C_22  and  O_26
REMARK    8  A    between atoms: C_24  and  O_28
REMARK                            x       y       z     vdW  Elec       q    Type
REMARK                         _______ _______ _______ _____ _____    ______ ____
ROOT
ATOM      1  C   UNL     1      21.233   0.140  16.664  0.00  0.00    +0.000 C 
ATOM      2  O   UNL     1      21.098  -0.227  14.405  0.00  0.00    +0.000 OA
ATOM      3  C   UNL     1      20.624  -0.439  15.511  0.00  0.00    +0.000 C 
ATOM      4  O   UNL     1      21.222   0.772  18.867  0.00  0.00    +0.000 OA
ATOM      5  C   UNL     1      21.840   0.723  17.813  0.00  0.00    +0.000 C 
ENDROOT
BRANCH   3   7
ATOM      6  C   UNL     1      18.487  -1.969  15.783  0.00  0.00    +0.000 C 
ATOM      7  C   UNL     1      19.458  -1.273  15.660  0.00  0.00    +0.000 C 
BRANCH   6   8
ATOM      8  C   UNL     1      17.335  -2.797  15.931  0.00  0.00    +0.000 A 
ATOM      9  C   UNL     1      16.900  -3.162  17.204  0.00  0.00    +0.000 A 
ATOM     10  C   UNL     1      15.772  -3.972  17.367  0.00  0.00    +0.000 A 
ATOM     11  C   UNL     1      16.647  -3.239  14.804  0.00  0.00    +0.000 A 
ATOM     12  C   UNL     1      15.089  -4.410  16.228  0.00  0.00    +0.000 A 
ATOM     13  C   UNL     1      15.522  -4.046  14.954  0.00  0.00    +0.000 A 
BRANCH  10  14
ATOM     14  O   UNL     1      15.285  -4.371  18.587  0.00  0.00    +0.000 OA
ATOM     15  C   UNL     1      14.949  -3.346  19.480  0.00  0.00    +0.000 C 
ENDBRANCH  10  14
BRANCH  12  16
ATOM     16  O   UNL     1      13.977  -5.205  16.288  0.00  0.00    +0.000 OA
ATOM     17  H   UNL     1      14.103  -5.922  16.931  0.00  0.00    +0.000 HD
ENDBRANCH  12  16
ENDBRANCH   6   8
ENDBRANCH   3   7
BRANCH   5  19
ATOM     18  C   UNL     1      24.295   1.687  17.658  0.00  0.00    +0.000 C 
ATOM     19  C   UNL     1      23.178   1.249  17.727  0.00  0.00    +0.000 C 
BRANCH  18  20
ATOM     20  C   UNL     1      25.620   2.209  17.582  0.00  0.00    +0.000 A 
ATOM     21  C   UNL     1      25.921   3.429  18.185  0.00  0.00    +0.000 A 
ATOM     22  C   UNL     1      27.215   3.953  18.119  0.00  0.00    +0.000 A 
ATOM     23  C   UNL     1      26.610   1.498  16.906  0.00  0.00    +0.000 A 
ATOM     24  C   UNL     1      28.198   3.231  17.438  0.00  0.00    +0.000 A 
ATOM     25  C   UNL     1      27.902   2.010  16.834  0.00  0.00    +0.000 A 
BRANCH  22  26
ATOM     26  O   UNL     1      27.596   5.147  18.683  0.00  0.00    +0.000 OA
ATOM     27  C   UNL     1      27.084   5.400  19.966  0.00  0.00    +0.000 C 
ENDBRANCH  22  26
BRANCH  24  28
ATOM     28  O   UNL     1      29.471   3.727  17.363  0.00  0.00    +0.000 OA
ATOM     29  H   UNL     1      29.455   4.550  16.839  0.00  0.00    +0.000 HD
ENDBRANCH  24  28
ENDBRANCH  18  20
ENDBRANCH   5  19
TORSDOF 8
ENDMDL
MODEL 6
REMARK VINA RESULT:      -5.4     17.025     22.825
REMARK  Name = 969516_Curcumin.pdbqt.pdb
REMARK  8 active torsions:
REMARK  status: ('A' for Active; 'I' for Inactive)
REMARK    1  A    between atoms: C_3  and  C_5
REMARK    2  A    between atoms: C_4  and  C_6
REMARK    3  A    between atoms: C_8  and  O_12
REMARK    4  A    between atoms: C_10  and  O_14
REMARK    5  A    between atoms: C_17  and  C_19
REMARK    6  A    between atoms: C_18  and  C_20
REMARK    7  A    between atoms: C_22  and  O_26
REMARK    8  A    between atoms: C_24  and  O_28
REMARK                            x       y       z     vdW  Elec       q    Type
REMARK                         _______ _______ _______ _____ _____    ______ ____
ROOT
ATOM      1  C   UNL     1       5.325  -0.145  21.181  0.00  0.00    +0.000 C 
ATOM      2  O   UNL     1       4.224   1.748  20.504  0.00  0.00    +0.000 OA
ATOM      3  C   UNL     1       4.789   0.715  20.178  0.00  0.00    +0.000 C 
ATOM      4  O   UNL     1       6.147  -2.158  21.905  0.00  0.00    +0.000 OA
ATOM      5  C   UNL     1       5.857  -1.004  22.185  0.00  0.00    +0.000 C 
ENDROOT
BRANCH   3   7
ATOM      6  C   UNL     1       5.028   0.065  17.628  0.00  0.00    +0.000 C 
ATOM      7  C   UNL     1       4.919   0.361  18.787  0.00  0.00    +0.000 C 
BRANCH   6   8
ATOM      8  C   UNL     1       5.155  -0.287  16.251  0.00  0.00    +0.000 A 
ATOM      9  C   UNL     1       6.414  -0.314  15.654  0.00  0.00    +0.000 A 
ATOM     10  C   UNL     1       6.557  -0.657  14.306  0.00  0.00    +0.000 A 
ATOM     11  C   UNL     1       4.022  -0.602  15.505  0.00  0.00    +0.000 A 
ATOM     12  C   UNL     1       5.412  -0.971  13.568  0.00  0.00    +0.000 A 
ATOM     13  C   UNL     1       4.151  -0.945  14.163  0.00  0.00    +0.000 A 
BRANCH  10  14
ATOM     14  O   UNL     1       7.763  -0.706  13.651  0.00  0.00    +0.000 OA
ATOM     15  C   UNL     1       8.396  -1.955  13.622  0.00  0.00    +0.000 C 
ENDBRANCH  10  14
BRANCH  12  16
ATOM     16  O   UNL     1       5.452  -1.318  12.245  0.00  0.00    +0.000 OA
ATOM     17  H   UNL     1       5.910  -0.636  11.726  0.00  0.00    +0.000 HD
ENDBRANCH  12  16
ENDBRANCH   6   8
ENDBRANCH   3   7
BRANCH   5  19
ATOM     18  C   UNL     1       6.215  -0.091  24.638  0.00  0.00    +0.000 C 
ATOM     19  C   UNL     1       6.050  -0.507  23.523  0.00  0.00    +0.000 C 
BRANCH  18  20
ATOM     20  C   UNL     1       6.415   0.402  25.961  0.00  0.00    +0.000 A 
ATOM     21  C   UNL     1       6.979   1.663  26.155  0.00  0.00    +0.000 A 
ATOM     22  C   UNL     1       7.180   2.160  27.445  0.00  0.00    +0.000 A 
ATOM     23  C   UNL     1       6.047  -0.375  27.057  0.00  0.00    +0.000 A 
ATOM     24  C   UNL     1       6.806   1.370  28.535  0.00  0.00    +0.000 A 
ATOM     25  C   UNL     1       6.243   0.109  28.347  0.00  0.00    +0.000 A 
BRANCH  22  26
ATOM     26  O   UNL     1       7.729   3.388  27.724  0.00  0.00    +0.000 OA
ATOM     27  C   UNL     1       6.886   4.490  27.511  0.00  0.00    +0.000 C 
ENDBRANCH  22  26
BRANCH  24  28
ATOM     28  O   UNL     1       6.996   1.839  29.806  0.00  0.00    +0.000 OA
ATOM     29  H   UNL     1       6.327   2.525  29.989  0.00  0.00    +0.000 HD
ENDBRANCH  24  28
ENDBRANCH  18  20
ENDBRANCH   5  19
TORSDOF 8
ENDMDL
MODEL 7
REMARK VINA RESULT:      -5.3     14.184     14.925
REMARK  Name = 969516_Curcumin.pdbqt.pdb
REMARK  8 active torsions:
REMARK  status: ('A' for Active; 'I' for Inactive)
REMARK    1  A    between atoms: C_3  and  C_5
REMARK    2  A    between atoms: C_4  and  C_6
REMARK    3  A    between atoms: C_8  and  O_12
REMARK    4  A    between atoms: C_10  and  O_14
REMARK    5  A    between atoms: C_17  and  C_19
REMARK    6  A    between atoms: C_18  and  C_20
REMARK    7  A    between atoms: C_22  and  O_26
REMARK    8  A    between atoms: C_24  and  O_28
REMARK                            x       y       z     vdW  Elec       q    Type
REMARK                         _______ _______ _______ _____ _____    ______ ____
ROOT
ATOM      1  C   UNL     1      23.046  19.515  26.065  0.00  0.00    +0.000 C 
ATOM      2  O   UNL     1      23.216  20.395  28.175  0.00  0.00    +0.000 OA
ATOM      3  C   UNL     1      23.224  20.602  26.971  0.00  0.00    +0.000 C 
ATOM      4  O   UNL     1      22.571  18.650  23.997  0.00  0.00    +0.000 OA
ATOM      5  C   UNL     1      22.863  18.428  25.163  0.00  0.00    +0.000 C 
ENDROOT
BRANCH   3   7
ATOM      6  C   UNL     1      23.577  23.047  26.034  0.00  0.00    +0.000 C 
ATOM      7  C   UNL     1      23.416  21.936  26.459  0.00  0.00    +0.000 C 
BRANCH   6   8
ATOM      8  C   UNL     1      23.770  24.367  25.527  0.00  0.00    +0.000 A 
ATOM      9  C   UNL     1      24.663  24.585  24.479  0.00  0.00    +0.000 A 
ATOM     10  C   UNL     1      24.864  25.872  23.970  0.00  0.00    +0.000 A 
ATOM     11  C   UNL     1      23.069  25.434  26.080  0.00  0.00    +0.000 A 
ATOM     12  C   UNL     1      24.153  26.936  24.533  0.00  0.00    +0.000 A 
ATOM     13  C   UNL     1      23.260  26.720  25.582  0.00  0.00    +0.000 A 
BRANCH  10  14
ATOM     14  O   UNL     1      25.724  26.163  22.940  0.00  0.00    +0.000 OA
ATOM     15  C   UNL     1      25.769  25.233  21.894  0.00  0.00    +0.000 C 
ENDBRANCH  10  14
BRANCH  12  16
ATOM     16  O   UNL     1      24.284  28.228  24.103  0.00  0.00    +0.000 OA
ATOM     17  H   UNL     1      25.153  28.586  24.351  0.00  0.00    +0.000 HD
ENDBRANCH  12  16
ENDBRANCH   6   8
ENDBRANCH   3   7
BRANCH   5  19
ATOM     18  C   UNL     1      23.164  15.948  26.021  0.00  0.00    +0.000 C 
ATOM     19  C   UNL     1      23.025  17.075  25.630  0.00  0.00    +0.000 C 
BRANCH  18  20
ATOM     20  C   UNL     1      23.334  14.610  26.484  0.00  0.00    +0.000 A 
ATOM     21  C   UNL     1      23.014  14.285  27.802  0.00  0.00    +0.000 A 
ATOM     22  C   UNL     1      23.175  12.978  28.270  0.00  0.00    +0.000 A 
ATOM     23  C   UNL     1      23.818  13.630  25.620  0.00  0.00    +0.000 A 
ATOM     24  C   UNL     1      23.661  12.005  27.393  0.00  0.00    +0.000 A 
ATOM     25  C   UNL     1      23.982  12.325  26.074  0.00  0.00    +0.000 A 
BRANCH  22  26
ATOM     26  O   UNL     1      22.885  12.573  29.551  0.00  0.00    +0.000 OA
ATOM     27  C   UNL     1      23.866  12.862  30.513  0.00  0.00    +0.000 C 
ENDBRANCH  22  26
BRANCH  24  28
ATOM     28  O   UNL     1      23.824  10.720  27.832  0.00  0.00    +0.000 OA
ATOM     29  H   UNL     1      23.216  10.565  28.579  0.00  0.00    +0.000 HD
ENDBRANCH  24  28
ENDBRANCH  18  20
ENDBRANCH   5  19
TORSDOF 8
ENDMDL
MODEL 8
REMARK VINA RESULT:      -5.2     23.971     26.757
REMARK  Name = 969516_Curcumin.pdbqt.pdb
REMARK  8 active torsions:
REMARK  status: ('A' for Active; 'I' for Inactive)
REMARK    1  A    between atoms: C_3  and  C_5
REMARK    2  A    between atoms: C_4  and  C_6
REMARK    3  A    between atoms: C_8  and  O_12
REMARK    4  A    between atoms: C_10  and  O_14
REMARK    5  A    between atoms: C_17  and  C_19
REMARK    6  A    between atoms: C_18  and  C_20
REMARK    7  A    between atoms: C_22  and  O_26
REMARK    8  A    between atoms: C_24  and  O_28
REMARK                            x       y       z     vdW  Elec       q    Type
REMARK                         _______ _______ _______ _____ _____    ______ ____
ROOT
ATOM      1  C   UNL     1      29.596  20.881  16.192  0.00  0.00    +0.000 C 
ATOM      2  O   UNL     1      30.773  20.009  17.956  0.00  0.00    +0.000 OA
ATOM      3  C   UNL     1      30.055  19.792  16.991  0.00  0.00    +0.000 C 
ATOM      4  O   UNL     1      28.688  21.756  14.279  0.00  0.00    +0.000 OA
ATOM      5  C   UNL     1      29.142  21.969  15.394  0.00  0.00    +0.000 C 
ENDROOT
BRANCH   3   7
ATOM      6  C   UNL     1      29.342  17.323  16.378  0.00  0.00    +0.000 C 
ATOM      7  C   UNL     1      29.667  18.445  16.656  0.00  0.00    +0.000 C 
BRANCH   6   8
ATOM      8  C   UNL     1      28.955  15.990  16.047  0.00  0.00    +0.000 A 
ATOM      9  C   UNL     1      28.178  15.754  14.913  0.00  0.00    +0.000 A 
ATOM     10  C   UNL     1      27.790  14.454  14.574  0.00  0.00    +0.000 A 
ATOM     11  C   UNL     1      29.351  14.929  16.855  0.00  0.00    +0.000 A 
ATOM     12  C   UNL     1      28.195  13.396  15.393  0.00  0.00    +0.000 A 
ATOM     13  C   UNL     1      28.971  13.631  16.527  0.00  0.00    +0.000 A 
BRANCH  10  14
ATOM     14  O   UNL     1      27.028  14.145  13.475  0.00  0.00    +0.000 OA
ATOM     15  C   UNL     1      26.442  15.227  12.807  0.00  0.00    +0.000 C 
ENDBRANCH  10  14
BRANCH  12  16
ATOM     16  O   UNL     1      27.864  12.092  15.143  0.00  0.00    +0.000 OA
ATOM     17  H   UNL     1      28.404  11.735  14.417  0.00  0.00    +0.000 HD
ENDBRANCH  12  16
ENDBRANCH   6   8
ENDBRANCH   3   7
BRANCH   5  19
ATOM     18  C   UNL     1      29.282  24.434  16.336  0.00  0.00    +0.000 C 
ATOM     19  C   UNL     1      29.219  23.314  15.905  0.00  0.00    +0.000 C 
BRANCH  18  20
ATOM     20  C   UNL     1      29.352  25.763  16.848  0.00  0.00    +0.000 A 
ATOM     21  C   UNL     1      28.994  26.839  16.037  0.00  0.00    +0.000 A 
ATOM     22  C   UNL     1      29.057  28.147  16.525  0.00  0.00    +0.000 A 
ATOM     23  C   UNL     1      29.775  25.983  18.157  0.00  0.00    +0.000 A 
ATOM     24  C   UNL     1      29.483  28.354  17.839  0.00  0.00    +0.000 A 
ATOM     25  C   UNL     1      29.841  27.281  18.654  0.00  0.00    +0.000 A 
BRANCH  22  26
ATOM     26  O   UNL     1      28.724  29.262  15.794  0.00  0.00    +0.000 OA
ATOM     27  C   UNL     1      29.348  29.373  14.542  0.00  0.00    +0.000 C 
ENDBRANCH  22  26
BRANCH  24  28
ATOM     28  O   UNL     1      29.550  29.627  18.335  0.00  0.00    +0.000 OA
ATOM     29  H   UNL     1      28.654  29.909  18.597  0.00  0.00    +0.000 HD
ENDBRANCH  24  28
ENDBRANCH  18  20
ENDBRANCH   5  19
TORSDOF 8
ENDMDL
MODEL 9
REMARK VINA RESULT:      -5.1      1.917     12.027
REMARK  Name = 969516_Curcumin.pdbqt.pdb
REMARK  8 active torsions:
REMARK  status: ('A' for Active; 'I' for Inactive)
REMARK    1  A    between atoms: C_3  and  C_5
REMARK    2  A    between atoms: C_4  and  C_6
REMARK    3  A    between atoms: C_8  and  O_12
REMARK    4  A    between atoms: C_10  and  O_14
REMARK    5  A    between atoms: C_17  and  C_19
REMARK    6  A    between atoms: C_18  and  C_20
REMARK    7  A    between atoms: C_22  and  O_26
REMARK    8  A    between atoms: C_24  and  O_28
REMARK                            x       y       z     vdW  Elec       q    Type
REMARK                         _______ _______ _______ _____ _____    ______ ____
ROOT
ATOM      1  C   UNL     1       8.644  17.351  31.050  0.00  0.00    +0.000 C 
ATOM      2  O   UNL     1       7.244  16.655  32.726  0.00  0.00    +0.000 OA
ATOM      3  C   UNL     1       8.036  16.340  31.850  0.00  0.00    +0.000 C 
ATOM      4  O   UNL     1      10.249  18.101  29.597  0.00  0.00    +0.000 OA
ATOM      5  C   UNL     1       9.253  18.364  30.254  0.00  0.00    +0.000 C 
ENDROOT
BRANCH   3   7
ATOM      6  C   UNL     1       8.627  13.800  31.425  0.00  0.00    +0.000 C 
ATOM      7  C   UNL     1       8.358  14.954  31.619  0.00  0.00    +0.000 C 
BRANCH   6   8
ATOM      8  C   UNL     1       8.949  12.429  31.196  0.00  0.00    +0.000 A 
ATOM      9  C   UNL     1      10.151  11.908  31.672  0.00  0.00    +0.000 A 
ATOM     10  C   UNL     1      10.482  10.567  31.456  0.00  0.00    +0.000 A 
ATOM     11  C   UNL     1       8.062  11.614  30.498  0.00  0.00    +0.000 A 
ATOM     12  C   UNL     1       9.584   9.757  30.754  0.00  0.00    +0.000 A 
ATOM     13  C   UNL     1       8.381  10.277  30.277  0.00  0.00    +0.000 A 
BRANCH  10  14
ATOM     14  O   UNL     1      11.645   9.984  31.895  0.00  0.00    +0.000 OA
ATOM     15  C   UNL     1      11.792   9.874  33.283  0.00  0.00    +0.000 C 
ENDBRANCH  10  14
BRANCH  12  16
ATOM     16  O   UNL     1       9.820   8.435  30.494  0.00  0.00    +0.000 OA
ATOM     17  H   UNL     1      10.773   8.245  30.527  0.00  0.00    +0.000 HD
ENDBRANCH  12  16
ENDBRANCH   6   8
ENDBRANCH   3   7
BRANCH   5  19
ATOM     18  C   UNL     1       8.218  20.794  30.203  0.00  0.00    +0.000 C 
ATOM     19  C   UNL     1       8.690  19.689  30.228  0.00  0.00    +0.000 C 
BRANCH  18  20
ATOM     20  C   UNL     1       7.659  22.106  30.168  0.00  0.00    +0.000 A 
ATOM     21  C   UNL     1       8.398  23.161  29.637  0.00  0.00    +0.000 A 
ATOM     22  C   UNL     1       7.864  24.452  29.595  0.00  0.00    +0.000 A 
ATOM     23  C   UNL     1       6.376  22.330  30.664  0.00  0.00    +0.000 A 
ATOM     24  C   UNL     1       6.577  24.662  30.096  0.00  0.00    +0.000 A 
ATOM     25  C   UNL     1       5.834  23.611  30.629  0.00  0.00    +0.000 A 
BRANCH  22  26
ATOM     26  O   UNL     1       8.523  25.547  29.090  0.00  0.00    +0.000 OA
ATOM     27  C   UNL     1       8.722  25.545  27.700  0.00  0.00    +0.000 C 
ENDBRANCH  22  26
BRANCH  24  28
ATOM     28  O   UNL     1       6.037  25.919  30.064  0.00  0.00    +0.000 OA
ATOM     29  H   UNL     1       6.484  26.434  29.366  0.00  0.00    +0.000 HD
ENDBRANCH  24  28
ENDBRANCH  18  20
ENDBRANCH   5  19
TORSDOF 8
ENDMDL
