MODEL 1
REMARK VINA RESULT:      -3.9      0.000      0.000
REMARK  Name = 971_OxalicAcid.pdbqt.pdb
REMARK  3 active torsions:
REMARK  status: ('A' for Active; 'I' for Inactive)
REMARK    1  A    between atoms: C_2  and  O_3
REMARK    2  A    between atoms: C_2  and  C_6
REMARK    3  A    between atoms: C_6  and  O_7
REMARK                            x       y       z     vdW  Elec       q    Type
REMARK                         _______ _______ _______ _____ _____    ______ ____
ROOT
ATOM      1  O   UNL     1      19.585   2.710  21.671  0.00  0.00    +0.000 OA
ATOM      2  C   UNL     1      19.217   3.328  22.651  0.00  0.00    +0.000 C 
ENDROOT
BRANCH   2   3
ATOM      3  O   UNL     1      19.184   4.667  22.672  0.00  0.00    +0.000 OA
ATOM      4  H   UNL     1      18.901   4.920  21.771  0.00  0.00    +0.000 HD
ENDBRANCH   2   3
BRANCH   2   6
ATOM      5  O   UNL     1      18.431   1.528  24.151  0.00  0.00    +0.000 OA
ATOM      6  C   UNL     1      18.740   2.692  23.994  0.00  0.00    +0.000 C 
BRANCH   6   7
ATOM      7  O   UNL     1      18.700   3.578  24.999  0.00  0.00    +0.000 OA
ATOM      8  H   UNL     1      19.557   3.467  25.458  0.00  0.00    +0.000 HD
ENDBRANCH   6   7
ENDBRANCH   2   6
TORSDOF 3
ENDMDL
MODEL 2
REMARK VINA RESULT:      -3.5     14.838     15.651
REMARK  Name = 971_OxalicAcid.pdbqt.pdb
REMARK  3 active torsions:
REMARK  status: ('A' for Active; 'I' for Inactive)
REMARK    1  A    between atoms: C_2  and  O_3
REMARK    2  A    between atoms: C_2  and  C_6
REMARK    3  A    between atoms: C_6  and  O_7
REMARK                            x       y       z     vdW  Elec       q    Type
REMARK                         _______ _______ _______ _____ _____    ______ ____
ROOT
ATOM      1  O   UNL     1      13.871  15.449  30.470  0.00  0.00    +0.000 OA
ATOM      2  C   UNL     1      13.354  15.657  29.390  0.00  0.00    +0.000 C 
ENDROOT
BRANCH   2   3
ATOM      3  O   UNL     1      13.988  15.395  28.239  0.00  0.00    +0.000 OA
ATOM      4  H   UNL     1      14.403  16.245  27.989  0.00  0.00    +0.000 HD
ENDBRANCH   2   3
BRANCH   2   6
ATOM      5  O   UNL     1      11.315  16.930  29.965  0.00  0.00    +0.000 OA
ATOM      6  C   UNL     1      11.924  16.240  29.171  0.00  0.00    +0.000 C 
BRANCH   6   7
ATOM      7  O   UNL     1      11.404  15.902  27.982  0.00  0.00    +0.000 OA
ATOM      8  H   UNL     1      11.177  14.955  28.075  0.00  0.00    +0.000 HD
ENDBRANCH   6   7
ENDBRANCH   2   6
TORSDOF 3
ENDMDL
MODEL 3
REMARK VINA RESULT:      -3.5     14.799     15.616
REMARK  Name = 971_OxalicAcid.pdbqt.pdb
REMARK  3 active torsions:
REMARK  status: ('A' for Active; 'I' for Inactive)
REMARK    1  A    between atoms: C_2  and  O_3
REMARK    2  A    between atoms: C_2  and  C_6
REMARK    3  A    between atoms: C_6  and  O_7
REMARK                            x       y       z     vdW  Elec       q    Type
REMARK                         _______ _______ _______ _____ _____    ______ ____
ROOT
ATOM      1  O   UNL     1      11.275  16.772  30.068  0.00  0.00    +0.000 OA
ATOM      2  C   UNL     1      11.902  16.166  29.221  0.00  0.00    +0.000 C 
ENDROOT
BRANCH   2   3
ATOM      3  O   UNL     1      11.398  15.927  28.002  0.00  0.00    +0.000 OA
ATOM      4  H   UNL     1      10.583  16.467  27.964  0.00  0.00    +0.000 HD
ENDBRANCH   2   3
BRANCH   2   6
ATOM      5  O   UNL     1      13.865  15.330  30.467  0.00  0.00    +0.000 OA
ATOM      6  C   UNL     1      13.339  15.588  29.402  0.00  0.00    +0.000 C 
BRANCH   6   7
ATOM      7  O   UNL     1      13.969  15.394  28.235  0.00  0.00    +0.000 OA
ATOM      8  H   UNL     1      14.394  16.254  28.040  0.00  0.00    +0.000 HD
ENDBRANCH   6   7
ENDBRANCH   2   6
TORSDOF 3
ENDMDL
MODEL 4
REMARK VINA RESULT:      -3.4     24.383     25.118
REMARK  Name = 971_OxalicAcid.pdbqt.pdb
REMARK  3 active torsions:
REMARK  status: ('A' for Active; 'I' for Inactive)
REMARK    1  A    between atoms: C_2  and  O_3
REMARK    2  A    between atoms: C_2  and  C_6
REMARK    3  A    between atoms: C_6  and  O_7
REMARK                            x       y       z     vdW  Elec       q    Type
REMARK                         _______ _______ _______ _____ _____    ______ ____
ROOT
ATOM      1  O   UNL     1       9.186  26.055  27.328  0.00  0.00    +0.000 OA
ATOM      2  C   UNL     1       8.140  25.489  27.076  0.00  0.00    +0.000 C 
ENDROOT
BRANCH   2   3
ATOM      3  O   UNL     1       7.573  25.552  25.863  0.00  0.00    +0.000 OA
ATOM      4  H   UNL     1       7.675  26.487  25.594  0.00  0.00    +0.000 HD
ENDBRANCH   2   3
BRANCH   2   6
ATOM      5  O   UNL     1       7.630  23.529  28.493  0.00  0.00    +0.000 OA
ATOM      6  C   UNL     1       7.314  24.629  28.082  0.00  0.00    +0.000 C 
BRANCH   6   7
ATOM      7  O   UNL     1       6.180  25.231  28.468  0.00  0.00    +0.000 OA
ATOM      8  H   UNL     1       5.629  24.508  28.829  0.00  0.00    +0.000 HD
ENDBRANCH   6   7
ENDBRANCH   2   6
TORSDOF 3
ENDMDL
MODEL 5
REMARK VINA RESULT:      -3.3     25.319     25.758
REMARK  Name = 971_OxalicAcid.pdbqt.pdb
REMARK  3 active torsions:
REMARK  status: ('A' for Active; 'I' for Inactive)
REMARK    1  A    between atoms: C_2  and  O_3
REMARK    2  A    between atoms: C_2  and  C_6
REMARK    3  A    between atoms: C_6  and  O_7
REMARK                            x       y       z     vdW  Elec       q    Type
REMARK                         _______ _______ _______ _____ _____    ______ ____
ROOT
ATOM      1  O   UNL     1       8.833  25.749  27.712  0.00  0.00    +0.000 OA
ATOM      2  C   UNL     1       8.593  26.041  26.557  0.00  0.00    +0.000 C 
ENDROOT
BRANCH   2   3
ATOM      3  O   UNL     1       7.527  25.551  25.909  0.00  0.00    +0.000 OA
ATOM      4  H   UNL     1       7.533  26.010  25.045  0.00  0.00    +0.000 HD
ENDBRANCH   2   3
BRANCH   2   6
ATOM      5  O   UNL     1      10.170  27.884  26.081  0.00  0.00    +0.000 OA
ATOM      6  C   UNL     1       9.450  26.996  25.669  0.00  0.00    +0.000 C 
BRANCH   6   7
ATOM      7  O   UNL     1       9.318  26.741  24.359  0.00  0.00    +0.000 OA
ATOM      8  H   UNL     1      10.005  27.291  23.933  0.00  0.00    +0.000 HD
ENDBRANCH   6   7
ENDBRANCH   2   6
TORSDOF 3
ENDMDL
MODEL 6
REMARK VINA RESULT:      -3.2     31.576     32.336
REMARK  Name = 971_OxalicAcid.pdbqt.pdb
REMARK  3 active torsions:
REMARK  status: ('A' for Active; 'I' for Inactive)
REMARK    1  A    between atoms: C_2  and  O_3
REMARK    2  A    between atoms: C_2  and  C_6
REMARK    3  A    between atoms: C_6  and  O_7
REMARK                            x       y       z     vdW  Elec       q    Type
REMARK                         _______ _______ _______ _____ _____    ______ ____
ROOT
ATOM      1  O   UNL     1      -0.398  27.122  15.038  0.00  0.00    +0.000 OA
ATOM      2  C   UNL     1       0.300  27.862  15.702  0.00  0.00    +0.000 C 
ENDROOT
BRANCH   2   3
ATOM      3  O   UNL     1       1.623  27.955  15.504  0.00  0.00    +0.000 OA
ATOM      4  H   UNL     1       2.003  27.242  16.055  0.00  0.00    +0.000 HD
ENDBRANCH   2   3
BRANCH   2   6
ATOM      5  O   UNL     1      -1.222  29.453  16.823  0.00  0.00    +0.000 OA
ATOM      6  C   UNL     1      -0.203  28.791  16.849  0.00  0.00    +0.000 C 
BRANCH   6   7
ATOM      7  O   UNL     1       0.618  28.796  17.909  0.00  0.00    +0.000 OA
ATOM      8  H   UNL     1       1.324  28.161  17.674  0.00  0.00    +0.000 HD
ENDBRANCH   6   7
ENDBRANCH   2   6
TORSDOF 3
ENDMDL
MODEL 7
REMARK VINA RESULT:      -3.0     32.256     32.928
REMARK  Name = 971_OxalicAcid.pdbqt.pdb
REMARK  3 active torsions:
REMARK  status: ('A' for Active; 'I' for Inactive)
REMARK    1  A    between atoms: C_2  and  O_3
REMARK    2  A    between atoms: C_2  and  C_6
REMARK    3  A    between atoms: C_6  and  O_7
REMARK                            x       y       z     vdW  Elec       q    Type
REMARK                         _______ _______ _______ _____ _____    ______ ____
ROOT
ATOM      1  O   UNL     1      -0.761  27.536  16.601  0.00  0.00    +0.000 OA
ATOM      2  C   UNL     1      -0.057  28.512  16.766  0.00  0.00    +0.000 C 
ENDROOT
BRANCH   2   3
ATOM      3  O   UNL     1       0.483  28.804  17.957  0.00  0.00    +0.000 OA
ATOM      4  H   UNL     1       1.442  28.650  17.836  0.00  0.00    +0.000 HD
ENDBRANCH   2   3
BRANCH   2   6
ATOM      5  O   UNL     1      -0.363  30.490  15.315  0.00  0.00    +0.000 OA
ATOM      6  C   UNL     1       0.323  29.548  15.663  0.00  0.00    +0.000 C 
BRANCH   6   7
ATOM      7  O   UNL     1       1.518  29.300  15.110  0.00  0.00    +0.000 OA
ATOM      8  H   UNL     1       2.164  29.646  15.758  0.00  0.00    +0.000 HD
ENDBRANCH   6   7
ENDBRANCH   2   6
TORSDOF 3
ENDMDL
MODEL 8
REMARK VINA RESULT:      -3.0      2.034      2.805
REMARK  Name = 971_OxalicAcid.pdbqt.pdb
REMARK  3 active torsions:
REMARK  status: ('A' for Active; 'I' for Inactive)
REMARK    1  A    between atoms: C_2  and  O_3
REMARK    2  A    between atoms: C_2  and  C_6
REMARK    3  A    between atoms: C_6  and  O_7
REMARK                            x       y       z     vdW  Elec       q    Type
REMARK                         _______ _______ _______ _____ _____    ______ ____
ROOT
ATOM      1  O   UNL     1      20.677   2.175  25.540  0.00  0.00    +0.000 OA
ATOM      2  C   UNL     1      20.833   2.687  24.449  0.00  0.00    +0.000 C 
ENDROOT
BRANCH   2   3
ATOM      3  O   UNL     1      22.045   2.812  23.891  0.00  0.00    +0.000 OA
ATOM      4  H   UNL     1      22.610   3.163  24.609  0.00  0.00    +0.000 HD
ENDBRANCH   2   3
BRANCH   2   6
ATOM      5  O   UNL     1      19.813   3.583  22.383  0.00  0.00    +0.000 OA
ATOM      6  C   UNL     1      19.695   3.263  23.550  0.00  0.00    +0.000 C 
BRANCH   6   7
ATOM      7  O   UNL     1      18.530   3.378  24.202  0.00  0.00    +0.000 OA
ATOM      8  H   UNL     1      18.775   3.725  25.083  0.00  0.00    +0.000 HD
ENDBRANCH   6   7
ENDBRANCH   2   6
TORSDOF 3
ENDMDL
MODEL 9
REMARK VINA RESULT:      -3.0     21.309     22.501
REMARK  Name = 971_OxalicAcid.pdbqt.pdb
REMARK  3 active torsions:
REMARK  status: ('A' for Active; 'I' for Inactive)
REMARK    1  A    between atoms: C_2  and  O_3
REMARK    2  A    between atoms: C_2  and  C_6
REMARK    3  A    between atoms: C_6  and  O_7
REMARK                            x       y       z     vdW  Elec       q    Type
REMARK                         _______ _______ _______ _____ _____    ______ ____
ROOT
ATOM      1  O   UNL     1      26.377  25.798  23.355  0.00  0.00    +0.000 OA
ATOM      2  C   UNL     1      25.486  25.282  22.710  0.00  0.00    +0.000 C 
ENDROOT
BRANCH   2   3
ATOM      3  O   UNL     1      24.478  25.998  22.194  0.00  0.00    +0.000 OA
ATOM      4  H   UNL     1      24.906  26.801  21.834  0.00  0.00    +0.000 HD
ENDBRANCH   2   3
BRANCH   2   6
ATOM      5  O   UNL     1      24.579  22.990  22.895  0.00  0.00    +0.000 OA
ATOM      6  C   UNL     1      25.370  23.760  22.386  0.00  0.00    +0.000 C 
BRANCH   6   7
ATOM      7  O   UNL     1      26.253  23.360  21.460  0.00  0.00    +0.000 OA
ATOM      8  H   UNL     1      25.804  23.523  20.607  0.00  0.00    +0.000 HD
ENDBRANCH   6   7
ENDBRANCH   2   6
TORSDOF 3
ENDMDL
