MODEL 1
REMARK VINA RESULT:      -6.0      0.000      0.000
REMARK  Name = 9852185_GambogicAcid.pdbqt.pdb
REMARK  10 active torsions:
REMARK  status: ('A' for Active; 'I' for Inactive)
REMARK    1  A    between atoms: C_8  and  C_30
REMARK    2  A    between atoms: C_20  and  C_38
REMARK    3  A    between atoms: C_21  and  O_28
REMARK    4  A    between atoms: C_25  and  C_43
REMARK    5  A    between atoms: C_31  and  C_32
REMARK    6  A    between atoms: C_32  and  C_35
REMARK    7  A    between atoms: C_35  and  O_36
REMARK    8  A    between atoms: C_39  and  C_40
REMARK    9  A    between atoms: C_43  and  C_44
REMARK   10  A    between atoms: C_45  and  C_46
REMARK                            x       y       z     vdW  Elec       q    Type
REMARK                         _______ _______ _______ _____ _____    ______ ____
ROOT
ATOM      1  O   UNL     1       8.429  24.272  31.825  0.00  0.00    +0.000 OA
ATOM      2  O   UNL     1       9.830  26.205  30.213  0.00  0.00    +0.000 OA
ATOM      3  O   UNL     1       7.415  21.889  29.989  0.00  0.00    +0.000 OA
ATOM      4  O   UNL     1       9.061  26.368  26.172  0.00  0.00    +0.000 OA
ATOM      5  O   UNL     1      12.422  30.186  30.069  0.00  0.00    +0.000 OA
ATOM      6  C   UNL     1       8.769  25.389  29.736  0.00  0.00    +0.000 C 
ATOM      7  C   UNL     1       7.376  25.789  30.342  0.00  0.00    +0.000 C 
ATOM      8  C   UNL     1       8.753  23.981  30.456  0.00  0.00    +0.000 C 
ATOM      9  C   UNL     1       7.539  25.401  31.815  0.00  0.00    +0.000 C 
ATOM     10  C   UNL     1       6.355  25.086  29.564  0.00  0.00    +0.000 C 
ATOM     11  C   UNL     1       6.744  23.913  28.799  0.00  0.00    +0.000 C 
ATOM     12  C   UNL     1       8.737  25.229  28.207  0.00  0.00    +0.000 C 
ATOM     13  C   UNL     1       7.618  23.073  29.772  0.00  0.00    +0.000 C 
ATOM     14  C   UNL     1       7.662  24.384  27.794  0.00  0.00    +0.000 C 
ATOM     15  C   UNL     1       6.209  24.967  32.449  0.00  0.00    +0.000 C 
ATOM     16  C   UNL     1       8.159  26.565  32.604  0.00  0.00    +0.000 C 
ATOM     17  C   UNL     1       9.276  26.303  27.374  0.00  0.00    +0.000 C 
ATOM     18  C   UNL     1      10.303  27.227  29.436  0.00  0.00    +0.000 A 
ATOM     19  C   UNL     1      10.071  27.332  28.057  0.00  0.00    +0.000 A 
ATOM     20  C   UNL     1      11.103  28.187  30.092  0.00  0.00    +0.000 A 
ATOM     21  C   UNL     1      10.607  28.405  27.325  0.00  0.00    +0.000 A 
ATOM     22  C   UNL     1      11.645  29.257  29.371  0.00  0.00    +0.000 A 
ATOM     23  C   UNL     1      11.383  29.355  27.981  0.00  0.00    +0.000 A 
ATOM     24  C   UNL     1      11.992  30.477  27.364  0.00  0.00    +0.000 C 
ATOM     25  C   UNL     1      13.086  31.299  29.351  0.00  0.00    +0.000 C 
ATOM     26  C   UNL     1      12.686  31.253  27.944  0.00  0.00    +0.000 C 
ATOM     27  C   UNL     1      14.612  31.098  29.530  0.00  0.00    +0.000 C 
ENDROOT
BRANCH  21  28
ATOM     28  O   UNL     1      10.400  28.561  25.980  0.00  0.00    +0.000 OA
ATOM     29  H   UNL     1       9.473  28.321  25.755  0.00  0.00    +0.000 HD
ENDBRANCH  21  28
BRANCH   8  30
ATOM     30  C   UNL     1      10.058  23.307  30.397  0.00  0.00    +0.000 C 
ATOM     31  C   UNL     1      11.401  22.561  30.364  0.00  0.00    +0.000 C 
BRANCH  31  32
ATOM     32  C   UNL     1      12.525  21.902  30.385  0.00  0.00    +0.000 C 
ATOM     33  C   UNL     1      12.431  20.467  29.903  0.00  0.00    +0.000 C 
BRANCH  32  35
ATOM     34  O   UNL     1      13.861  23.704  31.278  0.00  0.00    +0.000 OA
ATOM     35  C   UNL     1      13.776  22.566  30.840  0.00  0.00    +0.000 C 
BRANCH  35  36
ATOM     36  O   UNL     1      14.881  21.798  30.739  0.00  0.00    +0.000 OA
ATOM     37  H   UNL     1      15.505  22.156  31.405  0.00  0.00    +0.000 HD
ENDBRANCH  35  36
ENDBRANCH  32  35
ENDBRANCH  31  32
ENDBRANCH   8  30
BRANCH  20  38
ATOM     38  C   UNL     1      11.357  28.068  31.498  0.00  0.00    +0.000 C 
ATOM     39  C   UNL     1      11.657  27.951  33.000  0.00  0.00    +0.000 C 
BRANCH  39  40
ATOM     40  C   UNL     1      11.928  27.864  34.265  0.00  0.00    +0.000 C 
ATOM     41  C   UNL     1      11.096  26.970  35.135  0.00  0.00    +0.000 C 
ATOM     42  C   UNL     1      13.200  28.451  34.795  0.00  0.00    +0.000 C 
ENDBRANCH  39  40
ENDBRANCH  20  38
BRANCH  25  43
ATOM     43  C   UNL     1      12.649  32.550  30.000  0.00  0.00    +0.000 C 
BRANCH  43  44
ATOM     44  C   UNL     1      12.200  33.855  30.670  0.00  0.00    +0.000 C 
ATOM     45  C   UNL     1      11.749  35.161  31.339  0.00  0.00    +0.000 C 
BRANCH  45  46
ATOM     46  C   UNL     1      11.373  36.268  31.899  0.00  0.00    +0.000 C 
ATOM     47  C   UNL     1      12.390  37.137  32.575  0.00  0.00    +0.000 C 
ATOM     48  C   UNL     1       9.916  36.587  32.026  0.00  0.00    +0.000 C 
ENDBRANCH  45  46
ENDBRANCH  43  44
ENDBRANCH  25  43
TORSDOF 10
ENDMDL
MODEL 2
REMARK VINA RESULT:      -5.9      2.631      9.278
REMARK  Name = 9852185_GambogicAcid.pdbqt.pdb
REMARK  10 active torsions:
REMARK  status: ('A' for Active; 'I' for Inactive)
REMARK    1  A    between atoms: C_8  and  C_30
REMARK    2  A    between atoms: C_20  and  C_38
REMARK    3  A    between atoms: C_21  and  O_28
REMARK    4  A    between atoms: C_25  and  C_43
REMARK    5  A    between atoms: C_31  and  C_32
REMARK    6  A    between atoms: C_32  and  C_35
REMARK    7  A    between atoms: C_35  and  O_36
REMARK    8  A    between atoms: C_39  and  C_40
REMARK    9  A    between atoms: C_43  and  C_44
REMARK   10  A    between atoms: C_45  and  C_46
REMARK                            x       y       z     vdW  Elec       q    Type
REMARK                         _______ _______ _______ _____ _____    ______ ____
ROOT
ATOM      1  O   UNL     1      12.612  30.306  32.262  0.00  0.00    +0.000 OA
ATOM      2  O   UNL     1      10.867  28.784  30.550  0.00  0.00    +0.000 OA
ATOM      3  O   UNL     1      13.481  32.981  30.791  0.00  0.00    +0.000 OA
ATOM      4  O   UNL     1      11.002  29.423  26.484  0.00  0.00    +0.000 OA
ATOM      5  O   UNL     1       8.043  24.995  30.046  0.00  0.00    +0.000 OA
ATOM      6  C   UNL     1      11.892  29.648  30.078  0.00  0.00    +0.000 C 
ATOM      7  C   UNL     1      13.333  29.091  30.360  0.00  0.00    +0.000 C 
ATOM      8  C   UNL     1      12.103  30.878  31.048  0.00  0.00    +0.000 C 
ATOM      9  C   UNL     1      13.420  29.176  31.888  0.00  0.00    +0.000 C 
ATOM     10  C   UNL     1      14.265  29.908  29.582  0.00  0.00    +0.000 C 
ATOM     11  C   UNL     1      13.838  31.222  29.134  0.00  0.00    +0.000 C 
ATOM     12  C   UNL     1      11.700  30.114  28.624  0.00  0.00    +0.000 C 
ATOM     13  C   UNL     1      13.175  31.872  30.381  0.00  0.00    +0.000 C 
ATOM     14  C   UNL     1      12.751  30.993  28.218  0.00  0.00    +0.000 C 
ATOM     15  C   UNL     1      14.854  29.432  32.372  0.00  0.00    +0.000 C 
ATOM     16  C   UNL     1      12.856  27.895  32.523  0.00  0.00    +0.000 C 
ATOM     17  C   UNL     1      10.977  29.248  27.695  0.00  0.00    +0.000 C 
ATOM     18  C   UNL     1      10.219  27.956  29.673  0.00  0.00    +0.000 A 
ATOM     19  C   UNL     1      10.232  28.126  28.282  0.00  0.00    +0.000 A 
ATOM     20  C   UNL     1       9.470  26.906  30.248  0.00  0.00    +0.000 A 
ATOM     21  C   UNL     1       9.527  27.241  27.449  0.00  0.00    +0.000 A 
ATOM     22  C   UNL     1       8.760  26.023  29.428  0.00  0.00    +0.000 A 
ATOM     23  C   UNL     1       8.802  26.201  28.022  0.00  0.00    +0.000 A 
ATOM     24  C   UNL     1       8.039  25.247  27.304  0.00  0.00    +0.000 C 
ATOM     25  C   UNL     1       7.210  24.070  29.240  0.00  0.00    +0.000 C 
ATOM     26  C   UNL     1       7.395  24.390  27.824  0.00  0.00    +0.000 C 
ATOM     27  C   UNL     1       5.745  24.277  29.698  0.00  0.00    +0.000 C 
ENDROOT
BRANCH  21  28
ATOM     28  O   UNL     1       9.518  27.356  26.084  0.00  0.00    +0.000 OA
ATOM     29  H   UNL     1       8.802  26.797  25.707  0.00  0.00    +0.000 HD
ENDBRANCH  21  28
BRANCH   8  30
ATOM     30  C   UNL     1      10.848  31.589  31.332  0.00  0.00    +0.000 C 
ATOM     31  C   UNL     1       9.510  32.293  31.604  0.00  0.00    +0.000 C 
BRANCH  31  32
ATOM     32  C   UNL     1       8.353  32.864  31.788  0.00  0.00    +0.000 C 
ATOM     33  C   UNL     1       8.355  33.997  32.798  0.00  0.00    +0.000 C 
BRANCH  32  35
ATOM     34  O   UNL     1       6.624  33.012  30.109  0.00  0.00    +0.000 OA
ATOM     35  C   UNL     1       7.160  32.407  31.026  0.00  0.00    +0.000 C 
BRANCH  35  36
ATOM     36  O   UNL     1       6.670  31.213  31.423  0.00  0.00    +0.000 OA
ATOM     37  H   UNL     1       5.955  31.004  30.786  0.00  0.00    +0.000 HD
ENDBRANCH  35  36
ENDBRANCH  32  35
ENDBRANCH  31  32
ENDBRANCH   8  30
BRANCH  20  38
ATOM     38  C   UNL     1       9.441  26.744  31.673  0.00  0.00    +0.000 C 
ATOM     39  C   UNL     1       9.379  26.580  33.199  0.00  0.00    +0.000 C 
BRANCH  39  40
ATOM     40  C   UNL     1       9.307  26.441  34.486  0.00  0.00    +0.000 C 
ATOM     41  C   UNL     1       8.385  25.410  35.063  0.00  0.00    +0.000 C 
ATOM     42  C   UNL     1      10.307  27.128  35.365  0.00  0.00    +0.000 C 
ENDBRANCH  39  40
ENDBRANCH  20  38
BRANCH  25  43
ATOM     43  C   UNL     1       7.663  22.701  29.552  0.00  0.00    +0.000 C 
BRANCH  43  44
ATOM     44  C   UNL     1       8.141  21.281  29.877  0.00  0.00    +0.000 C 
ATOM     45  C   UNL     1       8.618  19.858  30.203  0.00  0.00    +0.000 C 
BRANCH  45  46
ATOM     46  C   UNL     1       9.023  18.659  30.485  0.00  0.00    +0.000 C 
ATOM     47  C   UNL     1      10.227  18.102  29.787  0.00  0.00    +0.000 C 
ATOM     48  C   UNL     1       8.194  17.776  31.363  0.00  0.00    +0.000 C 
ENDBRANCH  45  46
ENDBRANCH  43  44
ENDBRANCH  25  43
TORSDOF 10
ENDMDL
MODEL 3
REMARK VINA RESULT:      -5.8     18.831     22.748
REMARK  Name = 9852185_GambogicAcid.pdbqt.pdb
REMARK  10 active torsions:
REMARK  status: ('A' for Active; 'I' for Inactive)
REMARK    1  A    between atoms: C_8  and  C_30
REMARK    2  A    between atoms: C_20  and  C_38
REMARK    3  A    between atoms: C_21  and  O_28
REMARK    4  A    between atoms: C_25  and  C_43
REMARK    5  A    between atoms: C_31  and  C_32
REMARK    6  A    between atoms: C_32  and  C_35
REMARK    7  A    between atoms: C_35  and  O_36
REMARK    8  A    between atoms: C_39  and  C_40
REMARK    9  A    between atoms: C_43  and  C_44
REMARK   10  A    between atoms: C_45  and  C_46
REMARK                            x       y       z     vdW  Elec       q    Type
REMARK                         _______ _______ _______ _____ _____    ______ ____
ROOT
ATOM      1  O   UNL     1      -1.521  31.494   8.806  0.00  0.00    +0.000 OA
ATOM      2  O   UNL     1      -0.726  30.336  11.321  0.00  0.00    +0.000 OA
ATOM      3  O   UNL     1       1.059  32.215   7.104  0.00  0.00    +0.000 OA
ATOM      4  O   UNL     1       3.044  31.120  12.778  0.00  0.00    +0.000 OA
ATOM      5  O   UNL     1      -2.058  28.241  15.373  0.00  0.00    +0.000 OA
ATOM      6  C   UNL     1       0.044  31.292  10.605  0.00  0.00    +0.000 C 
ATOM      7  C   UNL     1      -0.604  32.723  10.613  0.00  0.00    +0.000 C 
ATOM      8  C   UNL     1      -0.150  31.138   9.043  0.00  0.00    +0.000 C 
ATOM      9  C   UNL     1      -1.861  32.514   9.762  0.00  0.00    +0.000 C 
ATOM     10  C   UNL     1       0.409  33.651  10.110  0.00  0.00    +0.000 C 
ATOM     11  C   UNL     1       1.512  33.125   9.324  0.00  0.00    +0.000 C 
ATOM     12  C   UNL     1       1.536  31.304  10.979  0.00  0.00    +0.000 C 
ATOM     13  C   UNL     1       0.849  32.156   8.305  0.00  0.00    +0.000 C 
ATOM     14  C   UNL     1       2.257  32.270  10.212  0.00  0.00    +0.000 C 
ATOM     15  C   UNL     1      -2.253  33.782   8.990  0.00  0.00    +0.000 C 
ATOM     16  C   UNL     1      -3.025  32.038  10.645  0.00  0.00    +0.000 C 
ATOM     17  C   UNL     1       1.928  30.899  12.328  0.00  0.00    +0.000 C 
ATOM     18  C   UNL     1      -0.365  29.989  12.595  0.00  0.00    +0.000 A 
ATOM     19  C   UNL     1       0.903  30.232  13.142  0.00  0.00    +0.000 A 
ATOM     20  C   UNL     1      -1.342  29.310  13.354  0.00  0.00    +0.000 A 
ATOM     21  C   UNL     1       1.202  29.830  14.454  0.00  0.00    +0.000 A 
ATOM     22  C   UNL     1      -1.053  28.900  14.660  0.00  0.00    +0.000 A 
ATOM     23  C   UNL     1       0.229  29.173  15.201  0.00  0.00    +0.000 A 
ATOM     24  C   UNL     1       0.400  28.704  16.527  0.00  0.00    +0.000 C 
ATOM     25  C   UNL     1      -1.792  27.715  16.734  0.00  0.00    +0.000 C 
ATOM     26  C   UNL     1      -0.438  28.108  17.130  0.00  0.00    +0.000 C 
ATOM     27  C   UNL     1      -1.953  26.177  16.656  0.00  0.00    +0.000 C 
ENDROOT
BRANCH  21  28
ATOM     28  O   UNL     1       2.420  30.054  15.039  0.00  0.00    +0.000 OA
ATOM     29  H   UNL     1       2.991  29.259  14.938  0.00  0.00    +0.000 HD
ENDBRANCH  21  28
BRANCH   8  30
ATOM     30  C   UNL     1       0.083  29.762   8.582  0.00  0.00    +0.000 C 
ATOM     31  C   UNL     1       0.273  28.317   8.096  0.00  0.00    +0.000 C 
BRANCH  31  32
ATOM     32  C   UNL     1       0.381  27.079   7.703  0.00  0.00    +0.000 C 
ATOM     33  C   UNL     1      -0.695  26.147   8.227  0.00  0.00    +0.000 C 
BRANCH  32  35
ATOM     34  O   UNL     1       1.983  27.368   5.919  0.00  0.00    +0.000 OA
ATOM     35  C   UNL     1       1.488  26.674   6.795  0.00  0.00    +0.000 C 
BRANCH  35  36
ATOM     36  O   UNL     1       1.947  25.422   7.003  0.00  0.00    +0.000 OA
ATOM     37  H   UNL     1       1.699  24.921   6.197  0.00  0.00    +0.000 HD
ENDBRANCH  35  36
ENDBRANCH  32  35
ENDBRANCH  31  32
ENDBRANCH   8  30
BRANCH  20  38
ATOM     38  C   UNL     1      -2.632  29.044  12.787  0.00  0.00    +0.000 C 
ATOM     39  C   UNL     1      -4.021  28.789  12.184  0.00  0.00    +0.000 C 
BRANCH  39  40
ATOM     40  C   UNL     1      -5.197  28.595  11.673  0.00  0.00    +0.000 C 
ATOM     41  C   UNL     1      -5.753  27.204  11.617  0.00  0.00    +0.000 C 
ATOM     42  C   UNL     1      -6.080  29.767  11.374  0.00  0.00    +0.000 C 
ENDBRANCH  39  40
ENDBRANCH  20  38
BRANCH  25  43
ATOM     43  C   UNL     1      -2.810  28.299  17.627  0.00  0.00    +0.000 C 
BRANCH  43  44
ATOM     44  C   UNL     1      -3.871  28.899  18.558  0.00  0.00    +0.000 C 
ATOM     45  C   UNL     1      -4.932  29.499  19.493  0.00  0.00    +0.000 C 
BRANCH  45  46
ATOM     46  C   UNL     1      -5.828  29.998  20.285  0.00  0.00    +0.000 C 
ATOM     47  C   UNL     1      -6.663  31.153  19.822  0.00  0.00    +0.000 C 
ATOM     48  C   UNL     1      -5.906  29.545  21.709  0.00  0.00    +0.000 C 
ENDBRANCH  45  46
ENDBRANCH  43  44
ENDBRANCH  25  43
TORSDOF 10
ENDMDL
MODEL 4
REMARK VINA RESULT:      -5.5     25.444     29.538
REMARK  Name = 9852185_GambogicAcid.pdbqt.pdb
REMARK  10 active torsions:
REMARK  status: ('A' for Active; 'I' for Inactive)
REMARK    1  A    between atoms: C_8  and  C_30
REMARK    2  A    between atoms: C_20  and  C_38
REMARK    3  A    between atoms: C_21  and  O_28
REMARK    4  A    between atoms: C_25  and  C_43
REMARK    5  A    between atoms: C_31  and  C_32
REMARK    6  A    between atoms: C_32  and  C_35
REMARK    7  A    between atoms: C_35  and  O_36
REMARK    8  A    between atoms: C_39  and  C_40
REMARK    9  A    between atoms: C_43  and  C_44
REMARK   10  A    between atoms: C_45  and  C_46
REMARK                            x       y       z     vdW  Elec       q    Type
REMARK                         _______ _______ _______ _____ _____    ______ ____
ROOT
ATOM      1  O   UNL     1       0.003  15.174   8.840  0.00  0.00    +0.000 OA
ATOM      2  O   UNL     1       0.303  16.126   6.138  0.00  0.00    +0.000 OA
ATOM      3  O   UNL     1      -3.018  15.504   9.756  0.00  0.00    +0.000 OA
ATOM      4  O   UNL     1      -2.440  18.812   4.650  0.00  0.00    +0.000 OA
ATOM      5  O   UNL     1       3.133  16.639   2.355  0.00  0.00    +0.000 OA
ATOM      6  C   UNL     1      -0.652  16.633   7.060  0.00  0.00    +0.000 C 
ATOM      7  C   UNL     1       0.007  17.461   8.221  0.00  0.00    +0.000 C 
ATOM      8  C   UNL     1      -1.151  15.509   8.053  0.00  0.00    +0.000 C 
ATOM      9  C   UNL     1       0.768  16.381   8.998  0.00  0.00    +0.000 C 
ATOM     10  C   UNL     1      -1.077  18.158   8.915  0.00  0.00    +0.000 C 
ATOM     11  C   UNL     1      -2.434  17.660   8.770  0.00  0.00    +0.000 C 
ATOM     12  C   UNL     1      -1.838  17.358   6.402  0.00  0.00    +0.000 C 
ATOM     13  C   UNL     1      -2.319  16.123   8.970  0.00  0.00    +0.000 C 
ATOM     14  C   UNL     1      -2.769  17.826   7.379  0.00  0.00    +0.000 C 
ATOM     15  C   UNL     1       0.854  16.700  10.497  0.00  0.00    +0.000 C 
ATOM     16  C   UNL     1       2.173  16.193   8.404  0.00  0.00    +0.000 C 
ATOM     17  C   UNL     1      -1.636  18.013   5.111  0.00  0.00    +0.000 C 
ATOM     18  C   UNL     1       0.504  16.767   4.946  0.00  0.00    +0.000 A 
ATOM     19  C   UNL     1      -0.395  17.691   4.394  0.00  0.00    +0.000 A 
ATOM     20  C   UNL     1       1.677  16.418   4.243  0.00  0.00    +0.000 A 
ATOM     21  C   UNL     1      -0.124  18.295   3.155  0.00  0.00    +0.000 A 
ATOM     22  C   UNL     1       1.954  17.011   3.006  0.00  0.00    +0.000 A 
ATOM     23  C   UNL     1       1.041  17.956   2.474  0.00  0.00    +0.000 A 
ATOM     24  C   UNL     1       1.430  18.480   1.216  0.00  0.00    +0.000 C 
ATOM     25  C   UNL     1       3.449  17.173   1.009  0.00  0.00    +0.000 C 
ATOM     26  C   UNL     1       2.415  18.140   0.636  0.00  0.00    +0.000 C 
ATOM     27  C   UNL     1       3.486  15.960   0.046  0.00  0.00    +0.000 C 
ENDROOT
BRANCH  21  28
ATOM     28  O   UNL     1      -0.962  19.212   2.578  0.00  0.00    +0.000 OA
ATOM     29  H   UNL     1      -1.031  20.009   3.151  0.00  0.00    +0.000 HD
ENDBRANCH  21  28
BRANCH   8  30
ATOM     30  C   UNL     1      -1.626  14.309   7.349  0.00  0.00    +0.000 C 
ATOM     31  C   UNL     1      -2.071  13.039   6.608  0.00  0.00    +0.000 C 
BRANCH  31  32
ATOM     32  C   UNL     1      -2.397  11.958   5.957  0.00  0.00    +0.000 C 
ATOM     33  C   UNL     1      -3.662  12.071   5.128  0.00  0.00    +0.000 C 
BRANCH  32  35
ATOM     34  O   UNL     1      -1.080  10.126   5.097  0.00  0.00    +0.000 OA
ATOM     35  C   UNL     1      -1.544  10.742   6.045  0.00  0.00    +0.000 C 
BRANCH  35  36
ATOM     36  O   UNL     1      -1.291  10.331   7.306  0.00  0.00    +0.000 OA
ATOM     37  H   UNL     1      -0.393   9.940   7.273  0.00  0.00    +0.000 HD
ENDBRANCH  35  36
ENDBRANCH  32  35
ENDBRANCH  31  32
ENDBRANCH   8  30
BRANCH  20  38
ATOM     38  C   UNL     1       2.587  15.459   4.799  0.00  0.00    +0.000 C 
ATOM     39  C   UNL     1       3.554  14.442   5.423  0.00  0.00    +0.000 C 
BRANCH  39  40
ATOM     40  C   UNL     1       4.362  13.588   5.969  0.00  0.00    +0.000 C 
ATOM     41  C   UNL     1       3.863  12.704   7.071  0.00  0.00    +0.000 C 
ATOM     42  C   UNL     1       5.696  13.320   5.340  0.00  0.00    +0.000 C 
ENDBRANCH  39  40
ENDBRANCH  20  38
BRANCH  25  43
ATOM     43  C   UNL     1       4.779  17.805   1.098  0.00  0.00    +0.000 C 
BRANCH  43  44
ATOM     44  C   UNL     1       6.164  18.457   1.197  0.00  0.00    +0.000 C 
ATOM     45  C   UNL     1       7.549  19.111   1.294  0.00  0.00    +0.000 C 
BRANCH  45  46
ATOM     46  C   UNL     1       8.721  19.661   1.370  0.00  0.00    +0.000 C 
ATOM     47  C   UNL     1       8.861  21.135   1.143  0.00  0.00    +0.000 C 
ATOM     48  C   UNL     1       9.943  18.807   1.503  0.00  0.00    +0.000 C 
ENDBRANCH  45  46
ENDBRANCH  43  44
ENDBRANCH  25  43
TORSDOF 10
ENDMDL
MODEL 5
REMARK VINA RESULT:      -5.5     15.033     19.324
REMARK  Name = 9852185_GambogicAcid.pdbqt.pdb
REMARK  10 active torsions:
REMARK  status: ('A' for Active; 'I' for Inactive)
REMARK    1  A    between atoms: C_8  and  C_30
REMARK    2  A    between atoms: C_20  and  C_38
REMARK    3  A    between atoms: C_21  and  O_28
REMARK    4  A    between atoms: C_25  and  C_43
REMARK    5  A    between atoms: C_31  and  C_32
REMARK    6  A    between atoms: C_32  and  C_35
REMARK    7  A    between atoms: C_35  and  O_36
REMARK    8  A    between atoms: C_39  and  C_40
REMARK    9  A    between atoms: C_43  and  C_44
REMARK   10  A    between atoms: C_45  and  C_46
REMARK                            x       y       z     vdW  Elec       q    Type
REMARK                         _______ _______ _______ _____ _____    ______ ____
ROOT
ATOM      1  O   UNL     1       5.700  39.242  19.732  0.00  0.00    +0.000 OA
ATOM      2  O   UNL     1       6.163  37.354  17.608  0.00  0.00    +0.000 OA
ATOM      3  O   UNL     1       8.423  40.689  20.483  0.00  0.00    +0.000 OA
ATOM      4  O   UNL     1       9.968  35.890  17.031  0.00  0.00    +0.000 OA
ATOM      5  O   UNL     1       4.308  34.271  14.503  0.00  0.00    +0.000 OA
ATOM      6  C   UNL     1       7.135  37.712  18.581  0.00  0.00    +0.000 C 
ATOM      7  C   UNL     1       6.794  37.159  20.011  0.00  0.00    +0.000 C 
ATOM      8  C   UNL     1       6.961  39.214  19.045  0.00  0.00    +0.000 C 
ATOM      9  C   UNL     1       5.547  37.969  20.383  0.00  0.00    +0.000 C 
ATOM     10  C   UNL     1       7.991  37.341  20.833  0.00  0.00    +0.000 C 
ATOM     11  C   UNL     1       8.986  38.314  20.415  0.00  0.00    +0.000 C 
ATOM     12  C   UNL     1       8.586  37.429  18.154  0.00  0.00    +0.000 C 
ATOM     13  C   UNL     1       8.169  39.582  20.037  0.00  0.00    +0.000 C 
ATOM     14  C   UNL     1       9.512  37.829  19.166  0.00  0.00    +0.000 C 
ATOM     15  C   UNL     1       5.448  38.213  21.895  0.00  0.00    +0.000 C 
ATOM     16  C   UNL     1       4.284  37.263  19.865  0.00  0.00    +0.000 C 
ATOM     17  C   UNL     1       8.845  36.337  17.218  0.00  0.00    +0.000 C 
ATOM     18  C   UNL     1       6.407  36.309  16.758  0.00  0.00    +0.000 A 
ATOM     19  C   UNL     1       7.681  35.771  16.524  0.00  0.00    +0.000 A 
ATOM     20  C   UNL     1       5.289  35.800  16.062  0.00  0.00    +0.000 A 
ATOM     21  C   UNL     1       7.851  34.707  15.622  0.00  0.00    +0.000 A 
ATOM     22  C   UNL     1       5.448  34.744  15.158  0.00  0.00    +0.000 A 
ATOM     23  C   UNL     1       6.741  34.202  14.951  0.00  0.00    +0.000 A 
ATOM     24  C   UNL     1       6.772  33.144  14.009  0.00  0.00    +0.000 C 
ATOM     25  C   UNL     1       4.419  33.205  13.478  0.00  0.00    +0.000 C 
ATOM     26  C   UNL     1       5.811  32.758  13.418  0.00  0.00    +0.000 C 
ATOM     27  C   UNL     1       3.947  33.824  12.139  0.00  0.00    +0.000 C 
ENDROOT
BRANCH  21  28
ATOM     28  O   UNL     1       9.070  34.138  15.369  0.00  0.00    +0.000 OA
ATOM     29  H   UNL     1       8.962  33.173  15.212  0.00  0.00    +0.000 HD
ENDBRANCH  21  28
BRANCH   8  30
ATOM     30  C   UNL     1       6.920  40.150  17.913  0.00  0.00    +0.000 C 
ATOM     31  C   UNL     1       6.868  41.086  16.696  0.00  0.00    +0.000 C 
BRANCH  31  32
ATOM     32  C   UNL     1       6.838  41.836  15.630  0.00  0.00    +0.000 C 
ATOM     33  C   UNL     1       7.156  43.300  15.873  0.00  0.00    +0.000 C 
BRANCH  32  35
ATOM     34  O   UNL     1       6.515  41.842  13.237  0.00  0.00    +0.000 OA
ATOM     35  C   UNL     1       6.526  41.243  14.302  0.00  0.00    +0.000 C 
BRANCH  35  36
ATOM     36  O   UNL     1       6.239  39.924  14.337  0.00  0.00    +0.000 OA
ATOM     37  H   UNL     1       5.353  39.843  13.926  0.00  0.00    +0.000 HD
ENDBRANCH  35  36
ENDBRANCH  32  35
ENDBRANCH  31  32
ENDBRANCH   8  30
BRANCH  20  38
ATOM     38  C   UNL     1       3.989  36.364  16.286  0.00  0.00    +0.000 C 
ATOM     39  C   UNL     1       2.610  36.996  16.524  0.00  0.00    +0.000 C 
BRANCH  39  40
ATOM     40  C   UNL     1       1.453  37.549  16.720  0.00  0.00    +0.000 C 
ATOM     41  C   UNL     1       1.048  37.931  18.112  0.00  0.00    +0.000 C 
ATOM     42  C   UNL     1       0.647  38.020  15.549  0.00  0.00    +0.000 C 
ENDBRANCH  39  40
ENDBRANCH  20  38
BRANCH  25  43
ATOM     43  C   UNL     1       3.515  32.115  13.892  0.00  0.00    +0.000 C 
BRANCH  43  44
ATOM     44  C   UNL     1       2.576  30.978  14.315  0.00  0.00    +0.000 C 
ATOM     45  C   UNL     1       1.638  29.839  14.739  0.00  0.00    +0.000 C 
BRANCH  45  46
ATOM     46  C   UNL     1       0.847  28.874  15.090  0.00  0.00    +0.000 C 
ATOM     47  C   UNL     1       0.400  27.875  14.067  0.00  0.00    +0.000 C 
ATOM     48  C   UNL     1       0.244  28.860  16.460  0.00  0.00    +0.000 C 
ENDBRANCH  45  46
ENDBRANCH  43  44
ENDBRANCH  25  43
TORSDOF 10
ENDMDL
MODEL 6
REMARK VINA RESULT:      -5.5     11.792     16.906
REMARK  Name = 9852185_GambogicAcid.pdbqt.pdb
REMARK  10 active torsions:
REMARK  status: ('A' for Active; 'I' for Inactive)
REMARK    1  A    between atoms: C_8  and  C_30
REMARK    2  A    between atoms: C_20  and  C_38
REMARK    3  A    between atoms: C_21  and  O_28
REMARK    4  A    between atoms: C_25  and  C_43
REMARK    5  A    between atoms: C_31  and  C_32
REMARK    6  A    between atoms: C_32  and  C_35
REMARK    7  A    between atoms: C_35  and  O_36
REMARK    8  A    between atoms: C_39  and  C_40
REMARK    9  A    between atoms: C_43  and  C_44
REMARK   10  A    between atoms: C_45  and  C_46
REMARK                            x       y       z     vdW  Elec       q    Type
REMARK                         _______ _______ _______ _____ _____    ______ ____
ROOT
ATOM      1  O   UNL     1      -4.568  18.393  22.708  0.00  0.00    +0.000 OA
ATOM      2  O   UNL     1      -2.387  17.709  24.460  0.00  0.00    +0.000 OA
ATOM      3  O   UNL     1      -5.080  16.015  20.668  0.00  0.00    +0.000 OA
ATOM      4  O   UNL     1       0.347  14.883  23.239  0.00  0.00    +0.000 OA
ATOM      5  O   UNL     1       0.237  18.880  28.246  0.00  0.00    +0.000 OA
ATOM      6  C   UNL     1      -2.510  17.244  23.123  0.00  0.00    +0.000 C 
ATOM      7  C   UNL     1      -2.288  18.381  22.062  0.00  0.00    +0.000 C 
ATOM      8  C   UNL     1      -4.026  17.063  22.712  0.00  0.00    +0.000 C 
ATOM      9  C   UNL     1      -3.514  19.274  22.283  0.00  0.00    +0.000 C 
ATOM     10  C   UNL     1      -2.151  17.727  20.760  0.00  0.00    +0.000 C 
ATOM     11  C   UNL     1      -2.667  16.379  20.597  0.00  0.00    +0.000 C 
ATOM     12  C   UNL     1      -1.699  15.973  22.823  0.00  0.00    +0.000 C 
ATOM     13  C   UNL     1      -4.080  16.410  21.245  0.00  0.00    +0.000 C 
ATOM     14  C   UNL     1      -1.880  15.547  21.471  0.00  0.00    +0.000 C 
ATOM     15  C   UNL     1      -3.963  19.968  20.989  0.00  0.00    +0.000 C 
ATOM     16  C   UNL     1      -3.223  20.311  23.379  0.00  0.00    +0.000 C 
ATOM     17  C   UNL     1      -0.477  15.720  23.584  0.00  0.00    +0.000 C 
ATOM     18  C   UNL     1      -1.225  17.492  25.150  0.00  0.00    +0.000 A 
ATOM     19  C   UNL     1      -0.260  16.545  24.780  0.00  0.00    +0.000 A 
ATOM     20  C   UNL     1      -1.046  18.259  26.323  0.00  0.00    +0.000 A 
ATOM     21  C   UNL     1       0.901  16.371  25.551  0.00  0.00    +0.000 A 
ATOM     22  C   UNL     1       0.104  18.089  27.101  0.00  0.00    +0.000 A 
ATOM     23  C   UNL     1       1.076  17.140  26.698  0.00  0.00    +0.000 A 
ATOM     24  C   UNL     1       2.189  17.057  27.571  0.00  0.00    +0.000 C 
ATOM     25  C   UNL     1       1.395  18.697  29.153  0.00  0.00    +0.000 C 
ATOM     26  C   UNL     1       2.294  17.700  28.569  0.00  0.00    +0.000 C 
ATOM     27  C   UNL     1       0.823  18.236  30.518  0.00  0.00    +0.000 C 
ENDROOT
BRANCH  21  28
ATOM     28  O   UNL     1       1.878  15.468  25.226  0.00  0.00    +0.000 OA
ATOM     29  H   UNL     1       2.764  15.851  25.420  0.00  0.00    +0.000 HD
ENDBRANCH  21  28
BRANCH   8  30
ATOM     30  C   UNL     1      -4.772  16.235  23.671  0.00  0.00    +0.000 C 
ATOM     31  C   UNL     1      -5.519  15.388  24.713  0.00  0.00    +0.000 C 
BRANCH  31  32
ATOM     32  C   UNL     1      -6.104  14.670  25.629  0.00  0.00    +0.000 C 
ATOM     33  C   UNL     1      -6.433  13.249  25.209  0.00  0.00    +0.000 C 
BRANCH  32  35
ATOM     34  O   UNL     1      -6.380  14.634  28.027  0.00  0.00    +0.000 OA
ATOM     35  C   UNL     1      -6.388  15.248  26.970  0.00  0.00    +0.000 C 
BRANCH  35  36
ATOM     36  O   UNL     1      -6.670  16.568  26.958  0.00  0.00    +0.000 OA
ATOM     37  H   UNL     1      -6.201  16.923  26.174  0.00  0.00    +0.000 HD
ENDBRANCH  35  36
ENDBRANCH  32  35
ENDBRANCH  31  32
ENDBRANCH   8  30
BRANCH  20  38
ATOM     38  C   UNL     1      -2.043  19.214  26.712  0.00  0.00    +0.000 C 
ATOM     39  C   UNL     1      -3.089  20.250  27.149  0.00  0.00    +0.000 C 
BRANCH  39  40
ATOM     40  C   UNL     1      -3.957  21.136  27.526  0.00  0.00    +0.000 C 
ATOM     41  C   UNL     1      -3.969  21.592  28.955  0.00  0.00    +0.000 C 
ATOM     42  C   UNL     1      -4.765  21.870  26.500  0.00  0.00    +0.000 C 
ENDBRANCH  39  40
ENDBRANCH  20  38
BRANCH  25  43
ATOM     43  C   UNL     1       2.051  20.012  29.283  0.00  0.00    +0.000 C 
BRANCH  43  44
ATOM     44  C   UNL     1       2.726  21.383  29.417  0.00  0.00    +0.000 C 
ATOM     45  C   UNL     1       3.402  22.755  29.548  0.00  0.00    +0.000 C 
BRANCH  45  46
ATOM     46  C   UNL     1       3.979  23.910  29.657  0.00  0.00    +0.000 C 
ATOM     47  C   UNL     1       5.410  24.065  29.239  0.00  0.00    +0.000 C 
ATOM     48  C   UNL     1       3.282  25.033  30.360  0.00  0.00    +0.000 C 
ENDBRANCH  45  46
ENDBRANCH  43  44
ENDBRANCH  25  43
TORSDOF 10
ENDMDL
MODEL 7
REMARK VINA RESULT:      -5.4     17.397     21.608
REMARK  Name = 9852185_GambogicAcid.pdbqt.pdb
REMARK  10 active torsions:
REMARK  status: ('A' for Active; 'I' for Inactive)
REMARK    1  A    between atoms: C_8  and  C_30
REMARK    2  A    between atoms: C_20  and  C_38
REMARK    3  A    between atoms: C_21  and  O_28
REMARK    4  A    between atoms: C_25  and  C_43
REMARK    5  A    between atoms: C_31  and  C_32
REMARK    6  A    between atoms: C_32  and  C_35
REMARK    7  A    between atoms: C_35  and  O_36
REMARK    8  A    between atoms: C_39  and  C_40
REMARK    9  A    between atoms: C_43  and  C_44
REMARK   10  A    between atoms: C_45  and  C_46
REMARK                            x       y       z     vdW  Elec       q    Type
REMARK                         _______ _______ _______ _____ _____    ______ ____
ROOT
ATOM      1  O   UNL     1      -1.754  28.937  15.221  0.00  0.00    +0.000 OA
ATOM      2  O   UNL     1      -3.274  26.584  15.887  0.00  0.00    +0.000 OA
ATOM      3  O   UNL     1      -0.803  28.770  12.197  0.00  0.00    +0.000 OA
ATOM      4  O   UNL     1      -2.735  23.161  13.663  0.00  0.00    +0.000 OA
ATOM      5  O   UNL     1      -5.937  24.301  19.094  0.00  0.00    +0.000 OA
ATOM      6  C   UNL     1      -2.228  26.610  14.926  0.00  0.00    +0.000 C 
ATOM      7  C   UNL     1      -0.810  26.793  15.578  0.00  0.00    +0.000 C 
ATOM      8  C   UNL     1      -2.149  28.011  14.197  0.00  0.00    +0.000 C 
ATOM      9  C   UNL     1      -0.885  28.226  16.119  0.00  0.00    +0.000 C 
ATOM     10  C   UNL     1       0.177  26.513  14.535  0.00  0.00    +0.000 C 
ATOM     11  C   UNL     1      -0.234  26.592  13.143  0.00  0.00    +0.000 C 
ATOM     12  C   UNL     1      -2.279  25.458  13.909  0.00  0.00    +0.000 C 
ATOM     13  C   UNL     1      -1.038  27.919  13.040  0.00  0.00    +0.000 C 
ATOM     14  C   UNL     1      -1.214  25.553  12.962  0.00  0.00    +0.000 C 
ATOM     15  C   UNL     1       0.486  28.918  16.108  0.00  0.00    +0.000 C 
ATOM     16  C   UNL     1      -1.479  28.226  17.536  0.00  0.00    +0.000 C 
ATOM     17  C   UNL     1      -2.881  24.188  14.312  0.00  0.00    +0.000 C 
ATOM     18  C   UNL     1      -3.807  25.385  16.278  0.00  0.00    +0.000 A 
ATOM     19  C   UNL     1      -3.655  24.190  15.560  0.00  0.00    +0.000 A 
ATOM     20  C   UNL     1      -4.586  25.406  17.455  0.00  0.00    +0.000 A 
ATOM     21  C   UNL     1      -4.248  23.002  16.020  0.00  0.00    +0.000 A 
ATOM     22  C   UNL     1      -5.185  24.229  17.919  0.00  0.00    +0.000 A 
ATOM     23  C   UNL     1      -5.003  23.028  17.189  0.00  0.00    +0.000 A 
ATOM     24  C   UNL     1      -5.663  21.910  17.756  0.00  0.00    +0.000 C 
ATOM     25  C   UNL     1      -6.659  23.108  19.598  0.00  0.00    +0.000 C 
ATOM     26  C   UNL     1      -6.337  21.969  18.737  0.00  0.00    +0.000 C 
ATOM     27  C   UNL     1      -8.169  23.455  19.565  0.00  0.00    +0.000 C 
ENDROOT
BRANCH  21  28
ATOM     28  O   UNL     1      -4.119  21.807  15.363  0.00  0.00    +0.000 OA
ATOM     29  H   UNL     1      -4.984  21.339  15.349  0.00  0.00    +0.000 HD
ENDBRANCH  21  28
BRANCH   8  30
ATOM     30  C   UNL     1      -3.443  28.425  13.637  0.00  0.00    +0.000 C 
ATOM     31  C   UNL     1      -4.811  28.875  13.102  0.00  0.00    +0.000 C 
BRANCH  31  32
ATOM     32  C   UNL     1      -5.993  29.248  12.700  0.00  0.00    +0.000 C 
ATOM     33  C   UNL     1      -6.781  28.183  11.960  0.00  0.00    +0.000 C 
BRANCH  32  35
ATOM     34  O   UNL     1      -7.637  31.009  12.863  0.00  0.00    +0.000 OA
ATOM     35  C   UNL     1      -6.485  30.622  12.988  0.00  0.00    +0.000 C 
BRANCH  35  36
ATOM     36  O   UNL     1      -5.532  31.473  13.425  0.00  0.00    +0.000 OA
ATOM     37  H   UNL     1      -5.014  31.710  12.626  0.00  0.00    +0.000 HD
ENDBRANCH  35  36
ENDBRANCH  32  35
ENDBRANCH  31  32
ENDBRANCH   8  30
BRANCH  20  38
ATOM     38  C   UNL     1      -4.759  26.632  18.178  0.00  0.00    +0.000 C 
ATOM     39  C   UNL     1      -4.913  27.951  18.950  0.00  0.00    +0.000 C 
BRANCH  39  40
ATOM     40  C   UNL     1      -5.023  29.070  19.596  0.00  0.00    +0.000 C 
ATOM     41  C   UNL     1      -5.119  30.355  18.829  0.00  0.00    +0.000 C 
ATOM     42  C   UNL     1      -5.300  29.055  21.068  0.00  0.00    +0.000 C 
ENDBRANCH  39  40
ENDBRANCH  20  38
BRANCH  25  43
ATOM     43  C   UNL     1      -6.208  22.887  20.985  0.00  0.00    +0.000 C 
BRANCH  43  44
ATOM     44  C   UNL     1      -5.737  22.649  22.425  0.00  0.00    +0.000 C 
ATOM     45  C   UNL     1      -5.266  22.408  23.867  0.00  0.00    +0.000 C 
BRANCH  45  46
ATOM     46  C   UNL     1      -4.875  22.202  25.085  0.00  0.00    +0.000 C 
ATOM     47  C   UNL     1      -4.235  20.897  25.446  0.00  0.00    +0.000 C 
ATOM     48  C   UNL     1      -5.222  23.186  26.159  0.00  0.00    +0.000 C 
ENDBRANCH  45  46
ENDBRANCH  43  44
ENDBRANCH  25  43
TORSDOF 10
ENDMDL
MODEL 8
REMARK VINA RESULT:      -5.4     30.903     34.635
REMARK  Name = 9852185_GambogicAcid.pdbqt.pdb
REMARK  10 active torsions:
REMARK  status: ('A' for Active; 'I' for Inactive)
REMARK    1  A    between atoms: C_8  and  C_30
REMARK    2  A    between atoms: C_20  and  C_38
REMARK    3  A    between atoms: C_21  and  O_28
REMARK    4  A    between atoms: C_25  and  C_43
REMARK    5  A    between atoms: C_31  and  C_32
REMARK    6  A    between atoms: C_32  and  C_35
REMARK    7  A    between atoms: C_35  and  O_36
REMARK    8  A    between atoms: C_39  and  C_40
REMARK    9  A    between atoms: C_43  and  C_44
REMARK   10  A    between atoms: C_45  and  C_46
REMARK                            x       y       z     vdW  Elec       q    Type
REMARK                         _______ _______ _______ _____ _____    ______ ____
ROOT
ATOM      1  O   UNL     1       4.801  -2.415  18.648  0.00  0.00    +0.000 OA
ATOM      2  O   UNL     1       6.432  -2.900  16.324  0.00  0.00    +0.000 OA
ATOM      3  O   UNL     1       1.965  -1.311  17.747  0.00  0.00    +0.000 OA
ATOM      4  O   UNL     1       5.563  -0.913  12.824  0.00  0.00    +0.000 OA
ATOM      5  O   UNL     1      10.506  -4.599  14.564  0.00  0.00    +0.000 OA
ATOM      6  C   UNL     1       5.424  -1.900  16.396  0.00  0.00    +0.000 C 
ATOM      7  C   UNL     1       5.815  -0.713  17.347  0.00  0.00    +0.000 C 
ATOM      8  C   UNL     1       4.231  -2.348  17.331  0.00  0.00    +0.000 C 
ATOM      9  C   UNL     1       5.802  -1.384  18.725  0.00  0.00    +0.000 C 
ATOM     10  C   UNL     1       4.849   0.360  17.107  0.00  0.00    +0.000 C 
ATOM     11  C   UNL     1       3.575   0.030  16.492  0.00  0.00    +0.000 C 
ATOM     12  C   UNL     1       4.907  -1.429  15.025  0.00  0.00    +0.000 C 
ATOM     13  C   UNL     1       3.079  -1.232  17.255  0.00  0.00    +0.000 C 
ATOM     14  C   UNL     1       3.886  -0.441  15.167  0.00  0.00    +0.000 C 
ATOM     15  C   UNL     1       5.398  -0.408  19.839  0.00  0.00    +0.000 C 
ATOM     16  C   UNL     1       7.174  -2.007  19.023  0.00  0.00    +0.000 C 
ATOM     17  C   UNL     1       5.804  -1.494  13.873  0.00  0.00    +0.000 C 
ATOM     18  C   UNL     1       7.284  -2.929  15.253  0.00  0.00    +0.000 A 
ATOM     19  C   UNL     1       7.039  -2.271  14.040  0.00  0.00    +0.000 A 
ATOM     20  C   UNL     1       8.447  -3.715  15.407  0.00  0.00    +0.000 A 
ATOM     21  C   UNL     1       7.958  -2.364  12.981  0.00  0.00    +0.000 A 
ATOM     22  C   UNL     1       9.366  -3.818  14.357  0.00  0.00    +0.000 A 
ATOM     23  C   UNL     1       9.109  -3.129  13.145  0.00  0.00    +0.000 A 
ATOM     24  C   UNL     1      10.108  -3.317  12.158  0.00  0.00    +0.000 C 
ATOM     25  C   UNL     1      11.481  -4.810  13.467  0.00  0.00    +0.000 C 
ATOM     26  C   UNL     1      11.065  -4.012  12.312  0.00  0.00    +0.000 C 
ATOM     27  C   UNL     1      11.480  -6.328  13.156  0.00  0.00    +0.000 C 
ENDROOT
BRANCH  21  28
ATOM     28  O   UNL     1       7.772  -1.731  11.781  0.00  0.00    +0.000 OA
ATOM     29  H   UNL     1       8.636  -1.621  11.324  0.00  0.00    +0.000 HD
ENDBRANCH  21  28
BRANCH   8  30
ATOM     30  C   UNL     1       3.696  -3.667  16.965  0.00  0.00    +0.000 C 
ATOM     31  C   UNL     1       3.187  -5.065  16.582  0.00  0.00    +0.000 C 
BRANCH  31  32
ATOM     32  C   UNL     1       2.806  -6.262  16.235  0.00  0.00    +0.000 C 
ATOM     33  C   UNL     1       1.367  -6.598  16.580  0.00  0.00    +0.000 C 
BRANCH  32  35
ATOM     34  O   UNL     1       3.508  -8.326  15.198  0.00  0.00    +0.000 OA
ATOM     35  C   UNL     1       3.751  -7.179  15.541  0.00  0.00    +0.000 C 
BRANCH  35  36
ATOM     36  O   UNL     1       4.965  -6.643  15.294  0.00  0.00    +0.000 OA
ATOM     37  H   UNL     1       4.786  -5.831  14.774  0.00  0.00    +0.000 HD
ENDBRANCH  35  36
ENDBRANCH  32  35
ENDBRANCH  31  32
ENDBRANCH   8  30
BRANCH  20  38
ATOM     38  C   UNL     1       8.688  -4.404  16.642  0.00  0.00    +0.000 C 
ATOM     39  C   UNL     1       8.971  -5.156  17.951  0.00  0.00    +0.000 C 
BRANCH  39  40
ATOM     40  C   UNL     1       9.228  -5.796  19.049  0.00  0.00    +0.000 C 
ATOM     41  C   UNL     1       9.100  -7.289  19.076  0.00  0.00    +0.000 C 
ATOM     42  C   UNL     1       9.880  -5.079  20.191  0.00  0.00    +0.000 C 
ENDBRANCH  39  40
ENDBRANCH  20  38
BRANCH  25  43
ATOM     43  C   UNL     1      12.799  -4.386  13.976  0.00  0.00    +0.000 C 
BRANCH  43  44
ATOM     44  C   UNL     1      14.172  -3.952  14.504  0.00  0.00    +0.000 C 
ATOM     45  C   UNL     1      15.546  -3.516  15.032  0.00  0.00    +0.000 C 
BRANCH  45  46
ATOM     46  C   UNL     1      16.708  -3.145  15.472  0.00  0.00    +0.000 C 
ATOM     47  C   UNL     1      17.830  -2.929  14.503  0.00  0.00    +0.000 C 
ATOM     48  C   UNL     1      16.975  -3.106  16.944  0.00  0.00    +0.000 C 
ENDBRANCH  45  46
ENDBRANCH  43  44
ENDBRANCH  25  43
TORSDOF 10
ENDMDL
MODEL 9
REMARK VINA RESULT:      -5.4     29.037     33.923
REMARK  Name = 9852185_GambogicAcid.pdbqt.pdb
REMARK  10 active torsions:
REMARK  status: ('A' for Active; 'I' for Inactive)
REMARK    1  A    between atoms: C_8  and  C_30
REMARK    2  A    between atoms: C_20  and  C_38
REMARK    3  A    between atoms: C_21  and  O_28
REMARK    4  A    between atoms: C_25  and  C_43
REMARK    5  A    between atoms: C_31  and  C_32
REMARK    6  A    between atoms: C_32  and  C_35
REMARK    7  A    between atoms: C_35  and  O_36
REMARK    8  A    between atoms: C_39  and  C_40
REMARK    9  A    between atoms: C_43  and  C_44
REMARK   10  A    between atoms: C_45  and  C_46
REMARK                            x       y       z     vdW  Elec       q    Type
REMARK                         _______ _______ _______ _____ _____    ______ ____
ROOT
ATOM      1  O   UNL     1      28.043   0.123  19.858  0.00  0.00    +0.000 OA
ATOM      2  O   UNL     1      25.395   0.550  18.807  0.00  0.00    +0.000 OA
ATOM      3  O   UNL     1      29.388   2.919  20.524  0.00  0.00    +0.000 OA
ATOM      4  O   UNL     1      24.486   4.186  17.103  0.00  0.00    +0.000 OA
ATOM      5  O   UNL     1      21.300  -1.368  17.345  0.00  0.00    +0.000 OA
ATOM      6  C   UNL     1      26.473   1.463  18.648  0.00  0.00    +0.000 C 
ATOM      7  C   UNL     1      27.585   0.925  17.677  0.00  0.00    +0.000 C 
ATOM      8  C   UNL     1      27.448   1.429  19.892  0.00  0.00    +0.000 C 
ATOM      9  C   UNL     1      28.174  -0.244  18.474  0.00  0.00    +0.000 C 
ATOM     10  C   UNL     1      28.467   2.053  17.374  0.00  0.00    +0.000 C 
ATOM     11  C   UNL     1      28.478   3.193  18.275  0.00  0.00    +0.000 C 
ATOM     12  C   UNL     1      26.035   2.902  18.325  0.00  0.00    +0.000 C 
ATOM     13  C   UNL     1      28.556   2.576  19.700  0.00  0.00    +0.000 C 
ATOM     14  C   UNL     1      27.161   3.771  18.196  0.00  0.00    +0.000 C 
ATOM     15  C   UNL     1      29.665  -0.454  18.174  0.00  0.00    +0.000 C 
ATOM     16  C   UNL     1      27.380  -1.529  18.194  0.00  0.00    +0.000 C 
ATOM     17  C   UNL     1      24.775   3.113  17.614  0.00  0.00    +0.000 C 
ATOM     18  C   UNL     1      24.233   0.743  18.111  0.00  0.00    +0.000 A 
ATOM     19  C   UNL     1      23.873   1.958  17.511  0.00  0.00    +0.000 A 
ATOM     20  C   UNL     1      23.352  -0.359  18.055  0.00  0.00    +0.000 A 
ATOM     21  C   UNL     1      22.652   2.081  16.827  0.00  0.00    +0.000 A 
ATOM     22  C   UNL     1      22.131  -0.245  17.381  0.00  0.00    +0.000 A 
ATOM     23  C   UNL     1      21.796   0.986  16.764  0.00  0.00    +0.000 A 
ATOM     24  C   UNL     1      20.534   0.976  16.119  0.00  0.00    +0.000 C 
ATOM     25  C   UNL     1      19.962  -1.292  16.712  0.00  0.00    +0.000 C 
ATOM     26  C   UNL     1      19.802   0.035  16.116  0.00  0.00    +0.000 C 
ATOM     27  C   UNL     1      18.924  -1.558  17.831  0.00  0.00    +0.000 C 
ENDROOT
BRANCH  21  28
ATOM     28  O   UNL     1      22.260   3.241  16.213  0.00  0.00    +0.000 OA
ATOM     29  H   UNL     1      23.051   3.748  15.920  0.00  0.00    +0.000 HD
ENDBRANCH  21  28
BRANCH   8  30
ATOM     30  C   UNL     1      26.737   1.609  21.166  0.00  0.00    +0.000 C 
ATOM     31  C   UNL     1      25.967   1.749  22.488  0.00  0.00    +0.000 C 
BRANCH  31  32
ATOM     32  C   UNL     1      25.273   1.837  23.588  0.00  0.00    +0.000 C 
ATOM     33  C   UNL     1      25.408   0.649  24.522  0.00  0.00    +0.000 C 
BRANCH  32  35
ATOM     34  O   UNL     1      24.861   4.186  23.964  0.00  0.00    +0.000 OA
ATOM     35  C   UNL     1      24.444   3.042  23.859  0.00  0.00    +0.000 C 
BRANCH  35  36
ATOM     36  O   UNL     1      23.124   2.790  23.989  0.00  0.00    +0.000 OA
ATOM     37  H   UNL     1      22.678   3.632  23.759  0.00  0.00    +0.000 HD
ENDBRANCH  35  36
ENDBRANCH  32  35
ENDBRANCH  31  32
ENDBRANCH   8  30
BRANCH  20  38
ATOM     38  C   UNL     1      23.711  -1.596  18.686  0.00  0.00    +0.000 C 
ATOM     39  C   UNL     1      24.119  -2.924  19.341  0.00  0.00    +0.000 C 
BRANCH  39  40
ATOM     40  C   UNL     1      24.481  -4.045  19.883  0.00  0.00    +0.000 C 
ATOM     41  C   UNL     1      25.939  -4.374  19.986  0.00  0.00    +0.000 C 
ATOM     42  C   UNL     1      23.472  -4.877  20.614  0.00  0.00    +0.000 C 
ENDBRANCH  39  40
ENDBRANCH  20  38
BRANCH  25  43
ATOM     43  C   UNL     1      19.908  -2.357  15.692  0.00  0.00    +0.000 C 
BRANCH  43  44
ATOM     44  C   UNL     1      19.850  -3.468  14.637  0.00  0.00    +0.000 C 
ATOM     45  C   UNL     1      19.789  -4.581  13.580  0.00  0.00    +0.000 C 
BRANCH  45  46
ATOM     46  C   UNL     1      19.733  -5.524  12.693  0.00  0.00    +0.000 C 
ATOM     47  C   UNL     1      19.068  -5.262  11.376  0.00  0.00    +0.000 C 
ATOM     48  C   UNL     1      20.168  -6.912  13.046  0.00  0.00    +0.000 C 
ENDBRANCH  45  46
ENDBRANCH  43  44
ENDBRANCH  25  43
TORSDOF 10
ENDMDL
