MODEL 1
REMARK VINA RESULT:      -6.3      0.000      0.000
REMARK  Name = AFLATOXIN.pdbqt.pdb
REMARK  1 active torsions:
REMARK  status: ('A' for Active; 'I' for Inactive)
REMARK    1  A    between atoms: C_15  and  O_23
REMARK                            x       y       z     vdW  Elec       q    Type
REMARK                         _______ _______ _______ _____ _____    ______ ____
ROOT
ATOM      1  O   UNL     1      29.120  11.104  19.319  0.00  0.00    +0.000 OA
ATOM      2  O   UNL     1      28.676  11.972  21.589  0.00  0.00    +0.000 OA
ATOM      3  O   UNL     1      29.150  15.526  17.700  0.00  0.00    +0.000 OA
ATOM      4  O   UNL     1      28.142  16.929  13.022  0.00  0.00    +0.000 OA
ATOM      5  O   UNL     1      29.377  17.674  17.058  0.00  0.00    +0.000 OA
ATOM      6  O   UNL     1      28.610  18.436  14.625  0.00  0.00    +0.000 OA
ATOM      7  C   UNL     1      29.403  13.363  19.848  0.00  0.00    +0.000 C 
ATOM      8  C   UNL     1      29.148  13.256  18.426  0.00  0.00    +0.000 A 
ATOM      9  C   UNL     1      29.392  11.977  20.377  0.00  0.00    +0.000 C 
ATOM     10  C   UNL     1      29.023  11.885  18.178  0.00  0.00    +0.000 A 
ATOM     11  C   UNL     1      29.001  14.170  17.399  0.00  0.00    +0.000 A 
ATOM     12  C   UNL     1      28.733  13.741  16.100  0.00  0.00    +0.000 A 
ATOM     13  C   UNL     1      28.730  14.155  20.815  0.00  0.00    +0.000 C 
ATOM     14  C   UNL     1      28.544  14.794  15.087  0.00  0.00    +0.000 A 
ATOM     15  C   UNL     1      28.654  12.338  15.870  0.00  0.00    +0.000 A 
ATOM     16  C   UNL     1      28.768  11.402  16.915  0.00  0.00    +0.000 A 
ATOM     17  C   UNL     1      28.158  14.491  13.761  0.00  0.00    +0.000 A 
ATOM     18  C   UNL     1      28.704  16.121  15.362  0.00  0.00    +0.000 A 
ATOM     19  C   UNL     1      28.465  13.289  21.595  0.00  0.00    +0.000 C 
ATOM     20  C   UNL     1      28.003  15.637  12.843  0.00  0.00    +0.000 A 
ATOM     21  C   UNL     1      29.102  16.526  16.737  0.00  0.00    +0.000 A 
ATOM     22  C   UNL     1      28.493  17.253  14.327  0.00  0.00    +0.000 A 
ENDROOT
BRANCH  15  23
ATOM     23  O   UNL     1      28.372  11.843  14.615  0.00  0.00    +0.000 OA
ATOM     24  C   UNL     1      29.360  10.931  14.206  0.00  0.00    +0.000 C 
ENDBRANCH  15  23
TORSDOF 1
ENDMDL
MODEL 2
REMARK VINA RESULT:      -6.3     15.720     17.824
REMARK  Name = AFLATOXIN.pdbqt.pdb
REMARK  1 active torsions:
REMARK  status: ('A' for Active; 'I' for Inactive)
REMARK    1  A    between atoms: C_15  and  O_23
REMARK                            x       y       z     vdW  Elec       q    Type
REMARK                         _______ _______ _______ _____ _____    ______ ____
ROOT
ATOM      1  O   UNL     1      18.371  -2.103  22.761  0.00  0.00    +0.000 OA
ATOM      2  O   UNL     1      18.693  -0.244  24.357  0.00  0.00    +0.000 OA
ATOM      3  O   UNL     1      20.735   0.355  19.514  0.00  0.00    +0.000 OA
ATOM      4  O   UNL     1      20.280  -0.143  14.573  0.00  0.00    +0.000 OA
ATOM      5  O   UNL     1      22.071   1.498  18.105  0.00  0.00    +0.000 OA
ATOM      6  O   UNL     1      21.653   1.393  15.477  0.00  0.00    +0.000 OA
ATOM      7  C   UNL     1      19.918  -0.397  22.364  0.00  0.00    +0.000 C 
ATOM      8  C   UNL     1      19.523  -0.960  21.089  0.00  0.00    +0.000 A 
ATOM      9  C   UNL     1      19.178  -1.157  23.401  0.00  0.00    +0.000 C 
ATOM     10  C   UNL     1      18.629  -1.988  21.404  0.00  0.00    +0.000 A 
ATOM     11  C   UNL     1      19.825  -0.673  19.771  0.00  0.00    +0.000 A 
ATOM     12  C   UNL     1      19.249  -1.407  18.735  0.00  0.00    +0.000 A 
ATOM     13  C   UNL     1      19.895   0.959  22.783  0.00  0.00    +0.000 C 
ATOM     14  C   UNL     1      19.594  -0.991  17.364  0.00  0.00    +0.000 A 
ATOM     15  C   UNL     1      18.376  -2.475  19.087  0.00  0.00    +0.000 A 
ATOM     16  C   UNL     1      18.036  -2.752  20.425  0.00  0.00    +0.000 A 
ATOM     17  C   UNL     1      18.990  -1.583  16.232  0.00  0.00    +0.000 A 
ATOM     18  C   UNL     1      20.496  -0.001  17.098  0.00  0.00    +0.000 A 
ATOM     19  C   UNL     1      19.260   0.820  23.786  0.00  0.00    +0.000 C 
ATOM     20  C   UNL     1      19.424  -1.077  14.914  0.00  0.00    +0.000 A 
ATOM     21  C   UNL     1      21.172   0.679  18.235  0.00  0.00    +0.000 A 
ATOM     22  C   UNL     1      20.866   0.474  15.672  0.00  0.00    +0.000 A 
ENDROOT
BRANCH  15  23
ATOM     23  O   UNL     1      17.755  -3.230  18.116  0.00  0.00    +0.000 OA
ATOM     24  C   UNL     1      16.359  -3.195  18.274  0.00  0.00    +0.000 C 
ENDBRANCH  15  23
TORSDOF 1
ENDMDL
MODEL 3
REMARK VINA RESULT:      -6.1     26.583     28.433
REMARK  Name = AFLATOXIN.pdbqt.pdb
REMARK  1 active torsions:
REMARK  status: ('A' for Active; 'I' for Inactive)
REMARK    1  A    between atoms: C_15  and  O_23
REMARK                            x       y       z     vdW  Elec       q    Type
REMARK                         _______ _______ _______ _____ _____    ______ ____
ROOT
ATOM      1  O   UNL     1       3.671  15.463   4.450  0.00  0.00    +0.000 OA
ATOM      2  O   UNL     1       4.925  13.974   2.928  0.00  0.00    +0.000 OA
ATOM      3  O   UNL     1       3.855  12.127   7.768  0.00  0.00    +0.000 OA
ATOM      4  O   UNL     1       0.637  11.578  11.537  0.00  0.00    +0.000 OA
ATOM      5  O   UNL     1       4.193  10.574   9.365  0.00  0.00    +0.000 OA
ATOM      6  O   UNL     1       2.344  10.145  11.232  0.00  0.00    +0.000 OA
ATOM      7  C   UNL     1       4.784  13.563   5.231  0.00  0.00    +0.000 C 
ATOM      8  C   UNL     1       3.707  13.871   6.151  0.00  0.00    +0.000 A 
ATOM      9  C   UNL     1       4.737  14.602   4.174  0.00  0.00    +0.000 C 
ATOM     10  C   UNL     1       3.111  15.029   5.641  0.00  0.00    +0.000 A 
ATOM     11  C   UNL     1       3.213  13.274   7.295  0.00  0.00    +0.000 A 
ATOM     12  C   UNL     1       2.118  13.819   7.964  0.00  0.00    +0.000 A 
ATOM     13  C   UNL     1       5.061  12.341   4.565  0.00  0.00    +0.000 C 
ATOM     14  C   UNL     1       1.635  13.081   9.144  0.00  0.00    +0.000 A 
ATOM     15  C   UNL     1       1.558  15.022   7.446  0.00  0.00    +0.000 A 
ATOM     16  C   UNL     1       2.033  15.617   6.262  0.00  0.00    +0.000 A 
ATOM     17  C   UNL     1       0.467  13.470   9.839  0.00  0.00    +0.000 A 
ATOM     18  C   UNL     1       2.264  11.970   9.628  0.00  0.00    +0.000 A 
ATOM     19  C   UNL     1       5.108  12.759   3.447  0.00  0.00    +0.000 C 
ATOM     20  C   UNL     1       0.092  12.647  11.006  0.00  0.00    +0.000 A 
ATOM     21  C   UNL     1       3.496  11.489   8.948  0.00  0.00    +0.000 A 
ATOM     22  C   UNL     1       1.771  11.160  10.853  0.00  0.00    +0.000 A 
ENDROOT
BRANCH  15  23
ATOM     23  O   UNL     1       0.462  15.606   8.044  0.00  0.00    +0.000 OA
ATOM     24  C   UNL     1       0.798  16.859   8.584  0.00  0.00    +0.000 C 
ENDBRANCH  15  23
TORSDOF 1
ENDMDL
MODEL 4
REMARK VINA RESULT:      -6.0     17.548     20.391
REMARK  Name = AFLATOXIN.pdbqt.pdb
REMARK  1 active torsions:
REMARK  status: ('A' for Active; 'I' for Inactive)
REMARK    1  A    between atoms: C_15  and  O_23
REMARK                            x       y       z     vdW  Elec       q    Type
REMARK                         _______ _______ _______ _____ _____    ______ ____
ROOT
ATOM      1  O   UNL     1      18.913  26.857   1.865  0.00  0.00    +0.000 OA
ATOM      2  O   UNL     1      17.508  28.890   1.870  0.00  0.00    +0.000 OA
ATOM      3  O   UNL     1      21.438  28.666   5.404  0.00  0.00    +0.000 OA
ATOM      4  O   UNL     1      26.168  27.527   6.496  0.00  0.00    +0.000 OA
ATOM      5  O   UNL     1      22.439  29.503   7.241  0.00  0.00    +0.000 OA
ATOM      6  O   UNL     1      25.030  29.068   7.674  0.00  0.00    +0.000 OA
ATOM      7  C   UNL     1      18.955  28.375   3.641  0.00  0.00    +0.000 C 
ATOM      8  C   UNL     1      20.222  27.673   3.612  0.00  0.00    +0.000 A 
ATOM      9  C   UNL     1      18.147  27.822   2.527  0.00  0.00    +0.000 C 
ATOM     10  C   UNL     1      20.112  26.765   2.553  0.00  0.00    +0.000 A 
ATOM     11  C   UNL     1      21.388  27.752   4.349  0.00  0.00    +0.000 A 
ATOM     12  C   UNL     1      22.472  26.926   4.054  0.00  0.00    +0.000 A 
ATOM     13  C   UNL     1      18.715  29.774   3.640  0.00  0.00    +0.000 C 
ATOM     14  C   UNL     1      23.687  27.123   4.864  0.00  0.00    +0.000 A 
ATOM     15  C   UNL     1      22.317  25.983   2.999  0.00  0.00    +0.000 A 
ATOM     16  C   UNL     1      21.145  25.919   2.221  0.00  0.00    +0.000 A 
ATOM     17  C   UNL     1      24.886  26.427   4.589  0.00  0.00    +0.000 A 
ATOM     18  C   UNL     1      23.744  27.999   5.910  0.00  0.00    +0.000 A 
ATOM     19  C   UNL     1      17.970  29.821   2.706  0.00  0.00    +0.000 C 
ATOM     20  C   UNL     1      26.031  26.713   5.476  0.00  0.00    +0.000 A 
ATOM     21  C   UNL     1      22.526  28.778   6.260  0.00  0.00    +0.000 A 
ATOM     22  C   UNL     1      25.010  28.244   6.767  0.00  0.00    +0.000 A 
ENDROOT
BRANCH  15  23
ATOM     23  O   UNL     1      23.353  25.149   2.639  0.00  0.00    +0.000 OA
ATOM     24  C   UNL     1      22.861  23.934   2.132  0.00  0.00    +0.000 C 
ENDBRANCH  15  23
TORSDOF 1
ENDMDL
MODEL 5
REMARK VINA RESULT:      -6.0     23.256     25.511
REMARK  Name = AFLATOXIN.pdbqt.pdb
REMARK  1 active torsions:
REMARK  status: ('A' for Active; 'I' for Inactive)
REMARK    1  A    between atoms: C_15  and  O_23
REMARK                            x       y       z     vdW  Elec       q    Type
REMARK                         _______ _______ _______ _____ _____    ______ ____
ROOT
ATOM      1  O   UNL     1      10.524  15.928  30.115  0.00  0.00    +0.000 OA
ATOM      2  O   UNL     1      12.816  16.724  29.645  0.00  0.00    +0.000 OA
ATOM      3  O   UNL     1       9.003  20.380  29.924  0.00  0.00    +0.000 OA
ATOM      4  O   UNL     1       4.934  22.175  32.180  0.00  0.00    +0.000 OA
ATOM      5  O   UNL     1       8.329  22.503  29.585  0.00  0.00    +0.000 OA
ATOM      6  O   UNL     1       6.294  23.505  30.979  0.00  0.00    +0.000 OA
ATOM      7  C   UNL     1      10.936  18.088  29.322  0.00  0.00    +0.000 C 
ATOM      8  C   UNL     1       9.680  18.099  30.045  0.00  0.00    +0.000 A 
ATOM      9  C   UNL     1      11.435  16.691  29.377  0.00  0.00    +0.000 C 
ATOM     10  C   UNL     1       9.484  16.777  30.458  0.00  0.00    +0.000 A 
ATOM     11  C   UNL     1       8.765  19.080  30.375  0.00  0.00    +0.000 A 
ATOM     12  C   UNL     1       7.628  18.768  31.119  0.00  0.00    +0.000 A 
ATOM     13  C   UNL     1      12.075  18.915  29.506  0.00  0.00    +0.000 C 
ATOM     14  C   UNL     1       6.740  19.892  31.463  0.00  0.00    +0.000 A 
ATOM     15  C   UNL     1       7.433  17.407  31.490  0.00  0.00    +0.000 A 
ATOM     16  C   UNL     1       8.377  16.408  31.188  0.00  0.00    +0.000 A 
ATOM     17  C   UNL     1       5.618  19.723  32.306  0.00  0.00    +0.000 A 
ATOM     18  C   UNL     1       6.950  21.164  31.014  0.00  0.00    +0.000 A 
ATOM     19  C   UNL     1      12.895  18.055  29.632  0.00  0.00    +0.000 C 
ATOM     20  C   UNL     1       4.807  20.929  32.572  0.00  0.00    +0.000 A 
ATOM     21  C   UNL     1       8.115  21.429  30.128  0.00  0.00    +0.000 A 
ATOM     22  C   UNL     1       6.048  22.370  31.373  0.00  0.00    +0.000 A 
ENDROOT
BRANCH  15  23
ATOM     23  O   UNL     1       6.342  17.029  32.243  0.00  0.00    +0.000 OA
ATOM     24  C   UNL     1       5.592  16.046  31.575  0.00  0.00    +0.000 C 
ENDBRANCH  15  23
TORSDOF 1
ENDMDL
MODEL 6
REMARK VINA RESULT:      -5.9     20.252     22.472
REMARK  Name = AFLATOXIN.pdbqt.pdb
REMARK  1 active torsions:
REMARK  status: ('A' for Active; 'I' for Inactive)
REMARK    1  A    between atoms: C_15  and  O_23
REMARK                            x       y       z     vdW  Elec       q    Type
REMARK                         _______ _______ _______ _____ _____    ______ ____
ROOT
ATOM      1  O   UNL     1       8.970  15.441  30.129  0.00  0.00    +0.000 OA
ATOM      2  O   UNL     1       9.473  13.129  30.842  0.00  0.00    +0.000 OA
ATOM      3  O   UNL     1      13.503  16.554  30.747  0.00  0.00    +0.000 OA
ATOM      4  O   UNL     1      15.285  21.112  31.705  0.00  0.00    +0.000 OA
ATOM      5  O   UNL     1      15.721  16.936  30.846  0.00  0.00    +0.000 OA
ATOM      6  O   UNL     1      16.641  19.322  31.588  0.00  0.00    +0.000 OA
ATOM      7  C   UNL     1      11.163  14.646  30.259  0.00  0.00    +0.000 C 
ATOM      8  C   UNL     1      11.191  16.086  30.411  0.00  0.00    +0.000 A 
ATOM      9  C   UNL     1       9.739  14.275  30.069  0.00  0.00    +0.000 C 
ATOM     10  C   UNL     1       9.858  16.492  30.290  0.00  0.00    +0.000 A 
ATOM     11  C   UNL     1      12.188  17.014  30.649  0.00  0.00    +0.000 A 
ATOM     12  C   UNL     1      11.883  18.369  30.766  0.00  0.00    +0.000 A 
ATOM     13  C   UNL     1      11.714  13.652  31.110  0.00  0.00    +0.000 C 
ATOM     14  C   UNL     1      13.007  19.271  31.071  0.00  0.00    +0.000 A 
ATOM     15  C   UNL     1      10.523  18.758  30.596  0.00  0.00    +0.000 A 
ATOM     16  C   UNL     1       9.497  17.817  30.387  0.00  0.00    +0.000 A 
ATOM     17  C   UNL     1      12.809  20.648  31.323  0.00  0.00    +0.000 A 
ATOM     18  C   UNL     1      14.299  18.840  31.151  0.00  0.00    +0.000 A 
ATOM     19  C   UNL     1      10.729  12.995  31.270  0.00  0.00    +0.000 C 
ATOM     20  C   UNL     1      14.019  21.444  31.615  0.00  0.00    +0.000 A 
ATOM     21  C   UNL     1      14.593  17.402  30.906  0.00  0.00    +0.000 A 
ATOM     22  C   UNL     1      15.500  19.757  31.489  0.00  0.00    +0.000 A 
ENDROOT
BRANCH  15  23
ATOM     23  O   UNL     1      10.145  20.078  30.718  0.00  0.00    +0.000 OA
ATOM     24  C   UNL     1       8.796  20.244  30.364  0.00  0.00    +0.000 C 
ENDBRANCH  15  23
TORSDOF 1
ENDMDL
MODEL 7
REMARK VINA RESULT:      -5.8     17.866     20.269
REMARK  Name = AFLATOXIN.pdbqt.pdb
REMARK  1 active torsions:
REMARK  status: ('A' for Active; 'I' for Inactive)
REMARK    1  A    between atoms: C_15  and  O_23
REMARK                            x       y       z     vdW  Elec       q    Type
REMARK                         _______ _______ _______ _____ _____    ______ ____
ROOT
ATOM      1  O   UNL     1      15.266  -4.461  15.603  0.00  0.00    +0.000 OA
ATOM      2  O   UNL     1      13.214  -4.702  16.960  0.00  0.00    +0.000 OA
ATOM      3  O   UNL     1      17.386  -2.424  19.281  0.00  0.00    +0.000 OA
ATOM      4  O   UNL     1      21.224   0.751  19.046  0.00  0.00    +0.000 OA
ATOM      5  O   UNL     1      18.388  -1.674  21.154  0.00  0.00    +0.000 OA
ATOM      6  O   UNL     1      20.278   0.196  21.010  0.00  0.00    +0.000 OA
ATOM      7  C   UNL     1      15.289  -4.189  17.924  0.00  0.00    +0.000 C 
ATOM      8  C   UNL     1      16.396  -3.439  17.366  0.00  0.00    +0.000 A 
ATOM      9  C   UNL     1      14.604  -4.835  16.777  0.00  0.00    +0.000 C 
ATOM     10  C   UNL     1      16.339  -3.674  15.988  0.00  0.00    +0.000 A 
ATOM     11  C   UNL     1      17.367  -2.612  17.897  0.00  0.00    +0.000 A 
ATOM     12  C   UNL     1      18.310  -2.003  17.070  0.00  0.00    +0.000 A 
ATOM     13  C   UNL     1      14.258  -3.740  18.791  0.00  0.00    +0.000 C 
ATOM     14  C   UNL     1      19.272  -1.100  17.725  0.00  0.00    +0.000 A 
ATOM     15  C   UNL     1      18.255  -2.294  15.677  0.00  0.00    +0.000 A 
ATOM     16  C   UNL     1      17.248  -3.108  15.124  0.00  0.00    +0.000 A 
ATOM     17  C   UNL     1      20.204  -0.339  16.982  0.00  0.00    +0.000 A 
ATOM     18  C   UNL     1      19.314  -0.920  19.078  0.00  0.00    +0.000 A 
ATOM     19  C   UNL     1      13.319  -4.100  18.145  0.00  0.00    +0.000 C 
ATOM     20  C   UNL     1      21.114   0.527  17.758  0.00  0.00    +0.000 A 
ATOM     21  C   UNL     1      18.361  -1.678  19.932  0.00  0.00    +0.000 A 
ATOM     22  C   UNL     1      20.298   0.036  19.795  0.00  0.00    +0.000 A 
ENDROOT
BRANCH  15  23
ATOM     23  O   UNL     1      19.142  -1.713  14.798  0.00  0.00    +0.000 OA
ATOM     24  C   UNL     1      18.458  -1.047  13.767  0.00  0.00    +0.000 C 
ENDBRANCH  15  23
TORSDOF 1
ENDMDL
MODEL 8
REMARK VINA RESULT:      -5.7      2.610      5.539
REMARK  Name = AFLATOXIN.pdbqt.pdb
REMARK  1 active torsions:
REMARK  status: ('A' for Active; 'I' for Inactive)
REMARK    1  A    between atoms: C_15  and  O_23
REMARK                            x       y       z     vdW  Elec       q    Type
REMARK                         _______ _______ _______ _____ _____    ______ ____
ROOT
ATOM      1  O   UNL     1      30.463  19.210  20.023  0.00  0.00    +0.000 OA
ATOM      2  O   UNL     1      29.351  21.383  19.639  0.00  0.00    +0.000 OA
ATOM      3  O   UNL     1      28.817  17.705  15.876  0.00  0.00    +0.000 OA
ATOM      4  O   UNL     1      28.016  12.949  14.606  0.00  0.00    +0.000 OA
ATOM      5  O   UNL     1      28.186  17.153  13.785  0.00  0.00    +0.000 OA
ATOM      6  O   UNL     1      27.539  14.637  13.197  0.00  0.00    +0.000 OA
ATOM      7  C   UNL     1      29.656  19.822  17.917  0.00  0.00    +0.000 C 
ATOM      8  C   UNL     1      29.689  18.376  17.989  0.00  0.00    +0.000 A 
ATOM      9  C   UNL     1      30.167  20.316  19.220  0.00  0.00    +0.000 C 
ATOM     10  C   UNL     1      30.209  18.085  19.255  0.00  0.00    +0.000 A 
ATOM     11  C   UNL     1      29.317  17.357  17.133  0.00  0.00    +0.000 A 
ATOM     12  C   UNL     1      29.460  16.023  17.513  0.00  0.00    +0.000 A 
ATOM     13  C   UNL     1      28.570  20.671  17.578  0.00  0.00    +0.000 C 
ATOM     14  C   UNL     1      28.988  15.012  16.551  0.00  0.00    +0.000 A 
ATOM     15  C   UNL     1      30.032  15.756  18.789  0.00  0.00    +0.000 A 
ATOM     16  C   UNL     1      30.381  16.788  19.682  0.00  0.00    +0.000 A 
ATOM     17  C   UNL     1      28.975  13.634  16.864  0.00  0.00    +0.000 A 
ATOM     18  C   UNL     1      28.514  15.336  15.312  0.00  0.00    +0.000 A 
ATOM     19  C   UNL     1      28.593  21.376  18.542  0.00  0.00    +0.000 C 
ATOM     20  C   UNL     1      28.479  12.724  15.812  0.00  0.00    +0.000 A 
ATOM     21  C   UNL     1      28.486  16.767  14.906  0.00  0.00    +0.000 A 
ATOM     22  C   UNL     1      27.992  14.301  14.286  0.00  0.00    +0.000 A 
ENDROOT
BRANCH  15  23
ATOM     23  O   UNL     1      30.184  14.462  19.239  0.00  0.00    +0.000 OA
ATOM     24  C   UNL     1      29.602  14.305  20.508  0.00  0.00    +0.000 C 
ENDBRANCH  15  23
TORSDOF 1
ENDMDL
MODEL 9
REMARK VINA RESULT:      -5.7     16.136     19.083
REMARK  Name = AFLATOXIN.pdbqt.pdb
REMARK  1 active torsions:
REMARK  status: ('A' for Active; 'I' for Inactive)
REMARK    1  A    between atoms: C_15  and  O_23
REMARK                            x       y       z     vdW  Elec       q    Type
REMARK                         _______ _______ _______ _____ _____    ______ ____
ROOT
ATOM      1  O   UNL     1      24.361  24.310   2.431  0.00  0.00    +0.000 OA
ATOM      2  O   UNL     1      26.146  23.125   3.663  0.00  0.00    +0.000 OA
ATOM      3  O   UNL     1      24.249  27.558   5.839  0.00  0.00    +0.000 OA
ATOM      4  O   UNL     1      20.349  30.444   6.993  0.00  0.00    +0.000 OA
ATOM      5  O   UNL     1      24.425  29.181   7.391  0.00  0.00    +0.000 OA
ATOM      6  O   UNL     1      22.272  30.549   8.154  0.00  0.00    +0.000 OA
ATOM      7  C   UNL     1      25.527  25.326   4.184  0.00  0.00    +0.000 C 
ATOM      8  C   UNL     1      24.230  25.961   4.070  0.00  0.00    +0.000 A 
ATOM      9  C   UNL     1      25.578  24.293   3.119  0.00  0.00    +0.000 C 
ATOM     10  C   UNL     1      23.607  25.330   2.989  0.00  0.00    +0.000 A 
ATOM     11  C   UNL     1      23.574  26.951   4.777  0.00  0.00    +0.000 A 
ATOM     12  C   UNL     1      22.283  27.341   4.421  0.00  0.00    +0.000 A 
ATOM     13  C   UNL     1      26.131  24.739   5.326  0.00  0.00    +0.000 C 
ATOM     14  C   UNL     1      21.650  28.367   5.267  0.00  0.00    +0.000 A 
ATOM     15  C   UNL     1      21.690  26.711   3.290  0.00  0.00    +0.000 A 
ATOM     16  C   UNL     1      22.338  25.678   2.585  0.00  0.00    +0.000 A 
ATOM     17  C   UNL     1      20.307  28.764   5.077  0.00  0.00    +0.000 A 
ATOM     18  C   UNL     1      22.304  28.982   6.296  0.00  0.00    +0.000 A 
ATOM     19  C   UNL     1      26.379  23.666   4.860  0.00  0.00    +0.000 C 
ATOM     20  C   UNL     1      19.792  29.803   5.992  0.00  0.00    +0.000 A 
ATOM     21  C   UNL     1      23.719  28.615   6.569  0.00  0.00    +0.000 A 
ATOM     22  C   UNL     1      21.662  30.048   7.217  0.00  0.00    +0.000 A 
ENDROOT
BRANCH  15  23
ATOM     23  O   UNL     1      20.410  27.031   2.893  0.00  0.00    +0.000 OA
ATOM     24  C   UNL     1      19.858  26.000   2.113  0.00  0.00    +0.000 C 
ENDBRANCH  15  23
TORSDOF 1
ENDMDL
