MODEL 1
REMARK VINA RESULT:      -6.5      0.000      0.000
REMARK  Name = AZD4547.pdbqt.pdb
REMARK  6 active torsions:
REMARK  status: ('A' for Active; 'I' for Inactive)
REMARK    1  A    between atoms: C_3  and  C_23
REMARK    2  A    between atoms: C_8  and  C_11
REMARK    3  A    between atoms: C_12  and  C_13
REMARK    4  A    between atoms: C_15  and  O_19
REMARK    5  A    between atoms: C_17  and  O_21
REMARK    6  A    between atoms: C_26  and  N_29
REMARK                            x       y       z     vdW  Elec       q    Type
REMARK                         _______ _______ _______ _____ _____    ______ ____
ROOT
ATOM      1  O   UNL     1      11.342  29.183  28.848  0.00  0.00    +0.000 OA
ATOM      2  N   UNL     1      10.619  28.915  26.665  0.00  0.00    +0.000 N 
ATOM      3  C   UNL     1      11.290  29.556  27.681  0.00  0.00    +0.000 C 
ATOM      4  H   UNL     1      10.602  29.262  25.718  0.00  0.00    +0.000 HD
ATOM      5  C   UNL     1       9.908  27.748  26.818  0.00  0.00    +0.000 A 
ATOM      6  N   UNL     1       9.296  27.222  25.753  0.00  0.00    +0.000 NA
ATOM      7  N   UNL     1       8.708  26.113  26.239  0.00  0.00    +0.000 N 
ATOM      8  C   UNL     1       8.925  25.916  27.570  0.00  0.00    +0.000 A 
ATOM      9  H   UNL     1       8.171  25.531  25.605  0.00  0.00    +0.000 HD
ATOM     10  C   UNL     1       9.705  26.967  27.982  0.00  0.00    +0.000 A 
ENDROOT
BRANCH   3  11
ATOM     11  C   UNL     1      12.001  30.803  27.304  0.00  0.00    +0.000 A 
ATOM     12  C   UNL     1      13.023  31.264  28.132  0.00  0.00    +0.000 A 
ATOM     13  C   UNL     1      13.712  32.431  27.810  0.00  0.00    +0.000 A 
ATOM     14  C   UNL     1      13.388  33.172  26.666  0.00  0.00    +0.000 A 
ATOM     15  C   UNL     1      12.370  32.684  25.835  0.00  0.00    +0.000 A 
ATOM     16  C   UNL     1      11.677  31.516  26.152  0.00  0.00    +0.000 A 
BRANCH  14  17
ATOM     17  N   UNL     1      14.118  34.332  26.316  0.00  0.00    +0.000 N 
ATOM     18  C   UNL     1      13.378  35.496  25.796  0.00  0.00    +0.000 C 
ATOM     19  C   UNL     1      13.486  36.341  24.653  0.00  0.00    +0.000 C 
ATOM     20  N   UNL     1      14.546  36.051  23.741  0.00  0.00    +0.000 N 
ATOM     21  C   UNL     1      12.536  37.453  24.382  0.00  0.00    +0.000 C 
ATOM     22  C   UNL     1      15.403  34.951  24.043  0.00  0.00    +0.000 C 
ATOM     23  H   UNL     1      14.669  36.593  22.900  0.00  0.00    +0.000 HD
ATOM     24  C   UNL     1      15.121  34.232  25.242  0.00  0.00    +0.000 C 
ATOM     25  C   UNL     1      16.499  34.565  23.116  0.00  0.00    +0.000 C 
ENDBRANCH  14  17
ENDBRANCH   3  11
BRANCH   8  26
ATOM     26  C   UNL     1       8.426  24.830  28.328  0.00  0.00    +0.000 C 
ATOM     27  C   UNL     1       7.881  23.657  29.149  0.00  0.00    +0.000 C 
BRANCH  27  28
ATOM     28  C   UNL     1       7.367  22.570  29.913  0.00  0.00    +0.000 A 
ATOM     29  C   UNL     1       6.139  22.694  30.558  0.00  0.00    +0.000 A 
ATOM     30  C   UNL     1       5.627  21.630  31.304  0.00  0.00    +0.000 A 
ATOM     31  C   UNL     1       6.356  20.442  31.391  0.00  0.00    +0.000 A 
ATOM     32  C   UNL     1       7.590  20.314  30.750  0.00  0.00    +0.000 A 
ATOM     33  C   UNL     1       8.091  21.385  30.008  0.00  0.00    +0.000 A 
BRANCH  30  34
ATOM     34  O   UNL     1       4.428  21.641  31.972  0.00  0.00    +0.000 OA
ATOM     35  C   UNL     1       3.348  22.173  31.258  0.00  0.00    +0.000 C 
ENDBRANCH  30  34
BRANCH  32  36
ATOM     36  O   UNL     1       8.217  19.102  30.905  0.00  0.00    +0.000 OA
ATOM     37  C   UNL     1       9.352  18.906  30.108  0.00  0.00    +0.000 C 
ENDBRANCH  32  36
ENDBRANCH  27  28
ENDBRANCH   8  26
TORSDOF 6
ENDMDL
MODEL 2
REMARK VINA RESULT:      -6.4     17.511     20.316
REMARK  Name = AZD4547.pdbqt.pdb
REMARK  6 active torsions:
REMARK  status: ('A' for Active; 'I' for Inactive)
REMARK    1  A    between atoms: C_3  and  C_23
REMARK    2  A    between atoms: C_8  and  C_11
REMARK    3  A    between atoms: C_12  and  C_13
REMARK    4  A    between atoms: C_15  and  O_19
REMARK    5  A    between atoms: C_17  and  O_21
REMARK    6  A    between atoms: C_26  and  N_29
REMARK                            x       y       z     vdW  Elec       q    Type
REMARK                         _______ _______ _______ _____ _____    ______ ____
ROOT
ATOM      1  O   UNL     1      24.754  14.968  26.466  0.00  0.00    +0.000 OA
ATOM      2  N   UNL     1      22.467  14.664  26.269  0.00  0.00    +0.000 N 
ATOM      3  C   UNL     1      23.620  15.413  26.321  0.00  0.00    +0.000 C 
ATOM      4  H   UNL     1      21.553  15.075  26.152  0.00  0.00    +0.000 HD
ATOM      5  C   UNL     1      22.425  13.293  26.368  0.00  0.00    +0.000 A 
ATOM      6  N   UNL     1      21.240  12.678  26.305  0.00  0.00    +0.000 NA
ATOM      7  N   UNL     1      21.551  11.375  26.431  0.00  0.00    +0.000 N 
ATOM      8  C   UNL     1      22.886  11.140  26.570  0.00  0.00    +0.000 A 
ATOM      9  H   UNL     1      20.800  10.693  26.414  0.00  0.00    +0.000 HD
ATOM     10  C   UNL     1      23.489  12.373  26.534  0.00  0.00    +0.000 A 
ENDROOT
BRANCH   3  11
ATOM     11  C   UNL     1      23.447  16.881  26.191  0.00  0.00    +0.000 A 
ATOM     12  C   UNL     1      22.334  17.361  25.501  0.00  0.00    +0.000 A 
ATOM     13  C   UNL     1      22.139  18.734  25.358  0.00  0.00    +0.000 A 
ATOM     14  C   UNL     1      23.053  19.655  25.886  0.00  0.00    +0.000 A 
ATOM     15  C   UNL     1      24.155  19.155  26.592  0.00  0.00    +0.000 A 
ATOM     16  C   UNL     1      24.357  17.782  26.739  0.00  0.00    +0.000 A 
BRANCH  14  17
ATOM     17  N   UNL     1      22.829  21.048  25.779  0.00  0.00    +0.000 N 
ATOM     18  C   UNL     1      23.583  21.803  24.762  0.00  0.00    +0.000 C 
ATOM     19  C   UNL     1      24.388  22.979  24.758  0.00  0.00    +0.000 C 
ATOM     20  N   UNL     1      24.552  23.645  26.011  0.00  0.00    +0.000 N 
ATOM     21  C   UNL     1      25.061  23.490  23.535  0.00  0.00    +0.000 C 
ATOM     22  C   UNL     1      23.906  23.085  27.154  0.00  0.00    +0.000 C 
ATOM     23  H   UNL     1      25.126  24.470  26.089  0.00  0.00    +0.000 HD
ATOM     24  C   UNL     1      23.144  21.899  26.939  0.00  0.00    +0.000 C 
ATOM     25  C   UNL     1      24.070  23.700  28.497  0.00  0.00    +0.000 C 
ENDBRANCH  14  17
ENDBRANCH   3  11
BRANCH   8  26
ATOM     26  C   UNL     1      23.482   9.865  26.716  0.00  0.00    +0.000 C 
ATOM     27  C   UNL     1      24.124   8.483  26.878  0.00  0.00    +0.000 C 
BRANCH  27  28
ATOM     28  C   UNL     1      24.715   7.196  27.034  0.00  0.00    +0.000 A 
ATOM     29  C   UNL     1      24.807   6.624  28.300  0.00  0.00    +0.000 A 
ATOM     30  C   UNL     1      25.381   5.360  28.458  0.00  0.00    +0.000 A 
ATOM     31  C   UNL     1      25.854   4.677  27.335  0.00  0.00    +0.000 A 
ATOM     32  C   UNL     1      25.767   5.249  26.065  0.00  0.00    +0.000 A 
ATOM     33  C   UNL     1      25.192   6.513  25.920  0.00  0.00    +0.000 A 
BRANCH  30  34
ATOM     34  O   UNL     1      25.516   4.701  29.655  0.00  0.00    +0.000 OA
ATOM     35  C   UNL     1      24.333   4.533  30.385  0.00  0.00    +0.000 C 
ENDBRANCH  30  34
BRANCH  32  36
ATOM     36  O   UNL     1      26.264   4.487  25.036  0.00  0.00    +0.000 OA
ATOM     37  C   UNL     1      25.531   4.537  23.843  0.00  0.00    +0.000 C 
ENDBRANCH  32  36
ENDBRANCH  27  28
ENDBRANCH   8  26
TORSDOF 6
ENDMDL
MODEL 3
REMARK VINA RESULT:      -6.4      8.730     18.295
REMARK  Name = AZD4547.pdbqt.pdb
REMARK  6 active torsions:
REMARK  status: ('A' for Active; 'I' for Inactive)
REMARK    1  A    between atoms: C_3  and  C_23
REMARK    2  A    between atoms: C_8  and  C_11
REMARK    3  A    between atoms: C_12  and  C_13
REMARK    4  A    between atoms: C_15  and  O_19
REMARK    5  A    between atoms: C_17  and  O_21
REMARK    6  A    between atoms: C_26  and  N_29
REMARK                            x       y       z     vdW  Elec       q    Type
REMARK                         _______ _______ _______ _____ _____    ______ ____
ROOT
ATOM      1  O   UNL     1       8.753  14.491  31.641  0.00  0.00    +0.000 OA
ATOM      2  N   UNL     1      10.411  14.705  30.039  0.00  0.00    +0.000 N 
ATOM      3  C   UNL     1       9.625  14.006  30.927  0.00  0.00    +0.000 C 
ATOM      4  H   UNL     1      11.120  14.263  29.474  0.00  0.00    +0.000 HD
ATOM      5  C   UNL     1      10.323  16.059  29.821  0.00  0.00    +0.000 A 
ATOM      6  N   UNL     1      11.146  16.624  28.931  0.00  0.00    +0.000 NA
ATOM      7  N   UNL     1      10.803  17.925  28.961  0.00  0.00    +0.000 N 
ATOM      8  C   UNL     1       9.795  18.206  29.834  0.00  0.00    +0.000 A 
ATOM      9  H   UNL     1      11.299  18.571  28.357  0.00  0.00    +0.000 HD
ATOM     10  C   UNL     1       9.457  17.009  30.415  0.00  0.00    +0.000 A 
ENDROOT
BRANCH   3  11
ATOM     11  C   UNL     1       9.878  12.546  31.009  0.00  0.00    +0.000 A 
ATOM     12  C   UNL     1       8.819  11.672  30.767  0.00  0.00    +0.000 A 
ATOM     13  C   UNL     1       9.020  10.295  30.835  0.00  0.00    +0.000 A 
ATOM     14  C   UNL     1      10.272   9.760  31.161  0.00  0.00    +0.000 A 
ATOM     15  C   UNL     1      11.330  10.653  31.383  0.00  0.00    +0.000 A 
ATOM     16  C   UNL     1      11.136  12.033  31.316  0.00  0.00    +0.000 A 
BRANCH  14  17
ATOM     17  N   UNL     1      10.485   8.362  31.186  0.00  0.00    +0.000 N 
ATOM     18  C   UNL     1       9.547   7.524  31.953  0.00  0.00    +0.000 C 
ATOM     19  C   UNL     1       9.668   6.517  32.955  0.00  0.00    +0.000 C 
ATOM     20  N   UNL     1      10.994   6.185  33.370  0.00  0.00    +0.000 N 
ATOM     21  C   UNL     1       8.492   5.855  33.578  0.00  0.00    +0.000 C 
ATOM     22  C   UNL     1      12.079   6.880  32.756  0.00  0.00    +0.000 C 
ATOM     23  H   UNL     1      11.156   5.498  34.090  0.00  0.00    +0.000 HD
ATOM     24  C   UNL     1      11.738   7.854  31.772  0.00  0.00    +0.000 C 
ATOM     25  C   UNL     1      13.482   6.617  33.171  0.00  0.00    +0.000 C 
ENDBRANCH  14  17
ENDBRANCH   3  11
BRANCH   8  26
ATOM     26  C   UNL     1       9.241  19.489  30.059  0.00  0.00    +0.000 C 
ATOM     27  C   UNL     1       8.639  20.877  30.301  0.00  0.00    +0.000 C 
BRANCH  27  28
ATOM     28  C   UNL     1       8.071  22.165  30.522  0.00  0.00    +0.000 A 
ATOM     29  C   UNL     1       7.725  22.966  29.437  0.00  0.00    +0.000 A 
ATOM     30  C   UNL     1       7.164  24.227  29.647  0.00  0.00    +0.000 A 
ATOM     31  C   UNL     1       6.950  24.673  30.953  0.00  0.00    +0.000 A 
ATOM     32  C   UNL     1       7.300  23.875  32.044  0.00  0.00    +0.000 A 
ATOM     33  C   UNL     1       7.861  22.616  31.821  0.00  0.00    +0.000 A 
BRANCH  30  34
ATOM     34  O   UNL     1       6.779  25.094  28.653  0.00  0.00    +0.000 OA
ATOM     35  C   UNL     1       7.612  25.126  27.529  0.00  0.00    +0.000 C 
ENDBRANCH  30  34
BRANCH  32  36
ATOM     36  O   UNL     1       7.044  24.415  33.280  0.00  0.00    +0.000 OA
ATOM     37  C   UNL     1       7.417  23.621  34.373  0.00  0.00    +0.000 C 
ENDBRANCH  32  36
ENDBRANCH  27  28
ENDBRANCH   8  26
TORSDOF 6
ENDMDL
MODEL 4
REMARK VINA RESULT:      -6.3     14.613     20.266
REMARK  Name = AZD4547.pdbqt.pdb
REMARK  6 active torsions:
REMARK  status: ('A' for Active; 'I' for Inactive)
REMARK    1  A    between atoms: C_3  and  C_23
REMARK    2  A    between atoms: C_8  and  C_11
REMARK    3  A    between atoms: C_12  and  C_13
REMARK    4  A    between atoms: C_15  and  O_19
REMARK    5  A    between atoms: C_17  and  O_21
REMARK    6  A    between atoms: C_26  and  N_29
REMARK                            x       y       z     vdW  Elec       q    Type
REMARK                         _______ _______ _______ _____ _____    ______ ____
ROOT
ATOM      1  O   UNL     1       0.248  28.980  17.269  0.00  0.00    +0.000 OA
ATOM      2  N   UNL     1      -0.442  28.527  15.106  0.00  0.00    +0.000 N 
ATOM      3  C   UNL     1      -0.505  28.423  16.477  0.00  0.00    +0.000 C 
ATOM      4  H   UNL     1      -1.084  28.047  14.493  0.00  0.00    +0.000 HD
ATOM      5  C   UNL     1       0.482  29.282  14.425  0.00  0.00    +0.000 A 
ATOM      6  N   UNL     1       0.441  29.300  13.088  0.00  0.00    +0.000 NA
ATOM      7  N   UNL     1       1.457  30.116  12.750  0.00  0.00    +0.000 N 
ATOM      8  C   UNL     1       2.138  30.616  13.818  0.00  0.00    +0.000 A 
ATOM      9  H   UNL     1       1.631  30.290  11.766  0.00  0.00    +0.000 HD
ATOM     10  C   UNL     1       1.529  30.091  14.931  0.00  0.00    +0.000 A 
ENDROOT
BRANCH   3  11
ATOM     11  C   UNL     1      -1.584  27.557  17.014  0.00  0.00    +0.000 A 
ATOM     12  C   UNL     1      -2.438  28.081  17.983  0.00  0.00    +0.000 A 
ATOM     13  C   UNL     1      -3.462  27.296  18.510  0.00  0.00    +0.000 A 
ATOM     14  C   UNL     1      -3.647  25.971  18.096  0.00  0.00    +0.000 A 
ATOM     15  C   UNL     1      -2.790  25.467  17.108  0.00  0.00    +0.000 A 
ATOM     16  C   UNL     1      -1.763  26.247  16.576  0.00  0.00    +0.000 A 
BRANCH  14  17
ATOM     17  N   UNL     1      -4.714  25.191  18.600  0.00  0.00    +0.000 N 
ATOM     18  C   UNL     1      -5.579  25.774  19.640  0.00  0.00    +0.000 C 
ATOM     19  C   UNL     1      -6.041  25.366  20.925  0.00  0.00    +0.000 C 
ATOM     20  N   UNL     1      -5.598  24.089  21.387  0.00  0.00    +0.000 N 
ATOM     21  C   UNL     1      -6.912  26.219  21.776  0.00  0.00    +0.000 C 
ATOM     22  C   UNL     1      -4.737  23.333  20.536  0.00  0.00    +0.000 C 
ATOM     23  H   UNL     1      -5.866  23.745  22.296  0.00  0.00    +0.000 HD
ATOM     24  C   UNL     1      -4.394  23.927  19.286  0.00  0.00    +0.000 C 
ATOM     25  C   UNL     1      -4.202  22.017  20.972  0.00  0.00    +0.000 C 
ENDBRANCH  14  17
ENDBRANCH   3  11
BRANCH   8  26
ATOM     26  C   UNL     1       3.244  31.496  13.745  0.00  0.00    +0.000 C 
ATOM     27  C   UNL     1       4.444  32.446  13.666  0.00  0.00    +0.000 C 
BRANCH  27  28
ATOM     28  C   UNL     1       5.565  33.322  13.592  0.00  0.00    +0.000 A 
ATOM     29  C   UNL     1       6.423  33.443  14.682  0.00  0.00    +0.000 A 
ATOM     30  C   UNL     1       7.527  34.296  14.614  0.00  0.00    +0.000 A 
ATOM     31  C   UNL     1       7.761  35.021  13.443  0.00  0.00    +0.000 A 
ATOM     32  C   UNL     1       6.900  34.907  12.350  0.00  0.00    +0.000 A 
ATOM     33  C   UNL     1       5.801  34.050  12.430  0.00  0.00    +0.000 A 
BRANCH  30  34
ATOM     34  O   UNL     1       8.440  34.486  15.622  0.00  0.00    +0.000 OA
ATOM     35  C   UNL     1       8.243  35.630  16.403  0.00  0.00    +0.000 C 
ENDBRANCH  30  34
BRANCH  32  36
ATOM     36  O   UNL     1       7.229  35.665  11.254  0.00  0.00    +0.000 OA
ATOM     37  C   UNL     1       7.365  34.957  10.051  0.00  0.00    +0.000 C 
ENDBRANCH  32  36
ENDBRANCH  27  28
ENDBRANCH   8  26
TORSDOF 6
ENDMDL
MODEL 5
REMARK VINA RESULT:      -6.2     22.206     23.830
REMARK  Name = AZD4547.pdbqt.pdb
REMARK  6 active torsions:
REMARK  status: ('A' for Active; 'I' for Inactive)
REMARK    1  A    between atoms: C_3  and  C_23
REMARK    2  A    between atoms: C_8  and  C_11
REMARK    3  A    between atoms: C_12  and  C_13
REMARK    4  A    between atoms: C_15  and  O_19
REMARK    5  A    between atoms: C_17  and  O_21
REMARK    6  A    between atoms: C_26  and  N_29
REMARK                            x       y       z     vdW  Elec       q    Type
REMARK                         _______ _______ _______ _____ _____    ______ ____
ROOT
ATOM      1  O   UNL     1      27.799  11.303  23.987  0.00  0.00    +0.000 OA
ATOM      2  N   UNL     1      25.804  11.663  22.868  0.00  0.00    +0.000 N 
ATOM      3  C   UNL     1      27.142  11.868  23.119  0.00  0.00    +0.000 C 
ATOM      4  H   UNL     1      25.304  12.155  22.143  0.00  0.00    +0.000 HD
ATOM      5  C   UNL     1      25.010  10.780  23.559  0.00  0.00    +0.000 A 
ATOM      6  N   UNL     1      23.721  10.672  23.221  0.00  0.00    +0.000 NA
ATOM      7  N   UNL     1      23.245   9.745  24.074  0.00  0.00    +0.000 N 
ATOM      8  C   UNL     1      24.182   9.261  24.937  0.00  0.00    +0.000 A 
ATOM      9  H   UNL     1      22.266   9.486  24.012  0.00  0.00    +0.000 HD
ATOM     10  C   UNL     1      25.349   9.917  24.630  0.00  0.00    +0.000 A 
ENDROOT
BRANCH   3  11
ATOM     11  C   UNL     1      27.820  12.866  22.254  0.00  0.00    +0.000 A 
ATOM     12  C   UNL     1      28.352  14.010  22.847  0.00  0.00    +0.000 A 
ATOM     13  C   UNL     1      28.994  14.968  22.066  0.00  0.00    +0.000 A 
ATOM     14  C   UNL     1      29.108  14.814  20.678  0.00  0.00    +0.000 A 
ATOM     15  C   UNL     1      28.584  13.649  20.101  0.00  0.00    +0.000 A 
ATOM     16  C   UNL     1      27.939  12.686  20.878  0.00  0.00    +0.000 A 
BRANCH  14  17
ATOM     17  N   UNL     1      29.800  15.766  19.892  0.00  0.00    +0.000 N 
ATOM     18  C   UNL     1      29.313  17.157  19.885  0.00  0.00    +0.000 C 
ATOM     19  C   UNL     1      28.972  18.110  18.881  0.00  0.00    +0.000 C 
ATOM     20  N   UNL     1      29.109  17.685  17.525  0.00  0.00    +0.000 N 
ATOM     21  C   UNL     1      28.464  19.470  19.202  0.00  0.00    +0.000 C 
ATOM     22  C   UNL     1      29.570  16.356  17.285  0.00  0.00    +0.000 C 
ATOM     23  H   UNL     1      28.864  18.298  16.762  0.00  0.00    +0.000 HD
ATOM     24  C   UNL     1      29.857  15.562  18.435  0.00  0.00    +0.000 C 
ATOM     25  C   UNL     1      29.693  15.833  15.899  0.00  0.00    +0.000 C 
ENDBRANCH  14  17
ENDBRANCH   3  11
BRANCH   8  26
ATOM     26  C   UNL     1      23.951   8.281  25.930  0.00  0.00    +0.000 C 
ATOM     27  C   UNL     1      23.698   7.216  27.004  0.00  0.00    +0.000 C 
BRANCH  27  28
ATOM     28  C   UNL     1      23.459   6.222  27.995  0.00  0.00    +0.000 A 
ATOM     29  C   UNL     1      22.232   5.564  28.037  0.00  0.00    +0.000 A 
ATOM     30  C   UNL     1      21.994   4.585  29.003  0.00  0.00    +0.000 A 
ATOM     31  C   UNL     1      22.998   4.270  29.922  0.00  0.00    +0.000 A 
ATOM     32  C   UNL     1      24.227   4.930  29.887  0.00  0.00    +0.000 A 
ATOM     33  C   UNL     1      24.453   5.908  28.916  0.00  0.00    +0.000 A 
BRANCH  30  34
ATOM     34  O   UNL     1      20.828   3.871  29.130  0.00  0.00    +0.000 OA
ATOM     35  C   UNL     1      20.525   3.020  28.061  0.00  0.00    +0.000 C 
ENDBRANCH  30  34
BRANCH  32  36
ATOM     36  O   UNL     1      25.138   4.539  30.837  0.00  0.00    +0.000 OA
ATOM     37  C   UNL     1      26.465   4.919  30.592  0.00  0.00    +0.000 C 
ENDBRANCH  32  36
ENDBRANCH  27  28
ENDBRANCH   8  26
TORSDOF 6
ENDMDL
MODEL 6
REMARK VINA RESULT:      -6.2     18.017     20.922
REMARK  Name = AZD4547.pdbqt.pdb
REMARK  6 active torsions:
REMARK  status: ('A' for Active; 'I' for Inactive)
REMARK    1  A    between atoms: C_3  and  C_23
REMARK    2  A    between atoms: C_8  and  C_11
REMARK    3  A    between atoms: C_12  and  C_13
REMARK    4  A    between atoms: C_15  and  O_19
REMARK    5  A    between atoms: C_17  and  O_21
REMARK    6  A    between atoms: C_26  and  N_29
REMARK                            x       y       z     vdW  Elec       q    Type
REMARK                         _______ _______ _______ _____ _____    ______ ____
ROOT
ATOM      1  O   UNL     1      24.643  14.903  25.355  0.00  0.00    +0.000 OA
ATOM      2  N   UNL     1      22.595  14.310  26.258  0.00  0.00    +0.000 N 
ATOM      3  C   UNL     1      23.567  15.201  25.863  0.00  0.00    +0.000 C 
ATOM      4  H   UNL     1      21.724  14.603  26.675  0.00  0.00    +0.000 HD
ATOM      5  C   UNL     1      22.694  12.946  26.131  0.00  0.00    +0.000 A 
ATOM      6  N   UNL     1      21.680  12.183  26.555  0.00  0.00    +0.000 NA
ATOM      7  N   UNL     1      22.091  10.930  26.289  0.00  0.00    +0.000 N 
ATOM      8  C   UNL     1      23.325  10.868  25.713  0.00  0.00    +0.000 A 
ATOM      9  H   UNL     1      21.478  10.157  26.527  0.00  0.00    +0.000 HD
ATOM     10  C   UNL     1      23.750  12.168  25.595  0.00  0.00    +0.000 A 
ENDROOT
BRANCH   3  11
ATOM     11  C   UNL     1      23.261  16.637  26.085  0.00  0.00    +0.000 A 
ATOM     12  C   UNL     1      23.608  17.552  25.092  0.00  0.00    +0.000 A 
ATOM     13  C   UNL     1      23.336  18.908  25.267  0.00  0.00    +0.000 A 
ATOM     14  C   UNL     1      22.728  19.381  26.436  0.00  0.00    +0.000 A 
ATOM     15  C   UNL     1      22.370  18.444  27.415  0.00  0.00    +0.000 A 
ATOM     16  C   UNL     1      22.639  17.086  27.247  0.00  0.00    +0.000 A 
BRANCH  14  17
ATOM     17  N   UNL     1      22.413  20.752  26.592  0.00  0.00    +0.000 N 
ATOM     18  C   UNL     1      23.052  21.725  25.690  0.00  0.00    +0.000 C 
ATOM     19  C   UNL     1      23.781  22.939  25.855  0.00  0.00    +0.000 C 
ATOM     20  N   UNL     1      23.983  23.385  27.197  0.00  0.00    +0.000 N 
ATOM     21  C   UNL     1      24.342  23.703  24.710  0.00  0.00    +0.000 C 
ATOM     22  C   UNL     1      23.447  22.589  28.252  0.00  0.00    +0.000 C 
ATOM     23  H   UNL     1      24.510  24.223  27.391  0.00  0.00    +0.000 HD
ATOM     24  C   UNL     1      22.748  21.406  27.869  0.00  0.00    +0.000 C 
ATOM     25  C   UNL     1      23.659  22.969  29.674  0.00  0.00    +0.000 C 
ENDBRANCH  14  17
ENDBRANCH   3  11
BRANCH   8  26
ATOM     26  C   UNL     1      23.990   9.679  25.330  0.00  0.00    +0.000 C 
ATOM     27  C   UNL     1      24.708   8.389  24.918  0.00  0.00    +0.000 C 
BRANCH  27  28
ATOM     28  C   UNL     1      25.368   7.185  24.537  0.00  0.00    +0.000 A 
ATOM     29  C   UNL     1      26.101   7.140  23.355  0.00  0.00    +0.000 A 
ATOM     30  C   UNL     1      26.754   5.963  22.979  0.00  0.00    +0.000 A 
ATOM     31  C   UNL     1      26.668   4.839  23.804  0.00  0.00    +0.000 A 
ATOM     32  C   UNL     1      25.930   4.879  24.988  0.00  0.00    +0.000 A 
ATOM     33  C   UNL     1      25.281   6.061  25.352  0.00  0.00    +0.000 A 
BRANCH  30  34
ATOM     34  O   UNL     1      27.508   5.810  21.842  0.00  0.00    +0.000 OA
ATOM     35  C   UNL     1      27.320   6.789  20.860  0.00  0.00    +0.000 C 
ENDBRANCH  30  34
BRANCH  32  36
ATOM     36  O   UNL     1      25.916   3.716  25.718  0.00  0.00    +0.000 OA
ATOM     37  C   UNL     1      24.922   3.636  26.703  0.00  0.00    +0.000 C 
ENDBRANCH  32  36
ENDBRANCH  27  28
ENDBRANCH   8  26
TORSDOF 6
ENDMDL
MODEL 7
REMARK VINA RESULT:      -6.1      2.892      4.784
REMARK  Name = AZD4547.pdbqt.pdb
REMARK  6 active torsions:
REMARK  status: ('A' for Active; 'I' for Inactive)
REMARK    1  A    between atoms: C_3  and  C_23
REMARK    2  A    between atoms: C_8  and  C_11
REMARK    3  A    between atoms: C_12  and  C_13
REMARK    4  A    between atoms: C_15  and  O_19
REMARK    5  A    between atoms: C_17  and  O_21
REMARK    6  A    between atoms: C_26  and  N_29
REMARK                            x       y       z     vdW  Elec       q    Type
REMARK                         _______ _______ _______ _____ _____    ______ ____
ROOT
ATOM      1  O   UNL     1      10.697  26.437  29.466  0.00  0.00    +0.000 OA
ATOM      2  N   UNL     1       8.433  26.710  29.064  0.00  0.00    +0.000 N 
ATOM      3  C   UNL     1       9.735  27.142  29.181  0.00  0.00    +0.000 C 
ATOM      4  H   UNL     1       7.672  27.328  28.829  0.00  0.00    +0.000 HD
ATOM      5  C   UNL     1       8.027  25.410  29.247  0.00  0.00    +0.000 A 
ATOM      6  N   UNL     1       6.730  25.114  29.107  0.00  0.00    +0.000 NA
ATOM      7  N   UNL     1       6.678  23.791  29.348  0.00  0.00    +0.000 N 
ATOM      8  C   UNL     1       7.890  23.237  29.634  0.00  0.00    +0.000 A 
ATOM      9  H   UNL     1       5.779  23.324  29.300  0.00  0.00    +0.000 HD
ATOM     10  C   UNL     1       8.796  24.267  29.578  0.00  0.00    +0.000 A 
ENDROOT
BRANCH   3  11
ATOM     11  C   UNL     1       9.963  28.588  28.938  0.00  0.00    +0.000 A 
ATOM     12  C   UNL     1      11.052  28.969  28.156  0.00  0.00    +0.000 A 
ATOM     13  C   UNL     1      11.297  30.318  27.907  0.00  0.00    +0.000 A 
ATOM     14  C   UNL     1      10.473  31.315  28.444  0.00  0.00    +0.000 A 
ATOM     15  C   UNL     1       9.372  30.914  29.213  0.00  0.00    +0.000 A 
ATOM     16  C   UNL     1       9.121  29.565  29.465  0.00  0.00    +0.000 A 
BRANCH  14  17
ATOM     17  N   UNL     1      10.698  32.682  28.154  0.00  0.00    +0.000 N 
ATOM     18  C   UNL     1       9.529  33.561  27.972  0.00  0.00    +0.000 C 
ATOM     19  C   UNL     1       9.099  34.488  26.978  0.00  0.00    +0.000 C 
ATOM     20  N   UNL     1       9.960  34.662  25.851  0.00  0.00    +0.000 N 
ATOM     21  C   UNL     1       7.811  35.225  27.068  0.00  0.00    +0.000 C 
ATOM     22  C   UNL     1      11.166  33.900  25.810  0.00  0.00    +0.000 C 
ATOM     23  H   UNL     1       9.709  35.284  25.098  0.00  0.00    +0.000 HD
ATOM     24  C   UNL     1      11.408  33.026  26.910  0.00  0.00    +0.000 C 
ATOM     25  C   UNL     1      12.086  33.997  24.646  0.00  0.00    +0.000 C 
ENDBRANCH  14  17
ENDBRANCH   3  11
BRANCH   8  26
ATOM     26  C   UNL     1       8.118  21.870  29.922  0.00  0.00    +0.000 C 
ATOM     27  C   UNL     1       8.361  20.389  30.231  0.00  0.00    +0.000 C 
BRANCH  27  28
ATOM     28  C   UNL     1       8.581  19.010  30.513  0.00  0.00    +0.000 A 
ATOM     29  C   UNL     1       9.697  18.364  29.987  0.00  0.00    +0.000 A 
ATOM     30  C   UNL     1       9.920  17.013  30.264  0.00  0.00    +0.000 A 
ATOM     31  C   UNL     1       9.017  16.321  31.075  0.00  0.00    +0.000 A 
ATOM     32  C   UNL     1       7.894  16.964  31.599  0.00  0.00    +0.000 A 
ATOM     33  C   UNL     1       7.682  18.314  31.315  0.00  0.00    +0.000 A 
BRANCH  30  34
ATOM     34  O   UNL     1      10.988  16.281  29.806  0.00  0.00    +0.000 OA
ATOM     35  C   UNL     1      12.196  16.980  29.704  0.00  0.00    +0.000 C 
ENDBRANCH  30  34
BRANCH  32  36
ATOM     36  O   UNL     1       7.077  16.186  32.382  0.00  0.00    +0.000 OA
ATOM     37  C   UNL     1       7.092  14.815  32.092  0.00  0.00    +0.000 C 
ENDBRANCH  32  36
ENDBRANCH  27  28
ENDBRANCH   8  26
TORSDOF 6
ENDMDL
MODEL 8
REMARK VINA RESULT:      -6.0      3.606      6.051
REMARK  Name = AZD4547.pdbqt.pdb
REMARK  6 active torsions:
REMARK  status: ('A' for Active; 'I' for Inactive)
REMARK    1  A    between atoms: C_3  and  C_23
REMARK    2  A    between atoms: C_8  and  C_11
REMARK    3  A    between atoms: C_12  and  C_13
REMARK    4  A    between atoms: C_15  and  O_19
REMARK    5  A    between atoms: C_17  and  O_21
REMARK    6  A    between atoms: C_26  and  N_29
REMARK                            x       y       z     vdW  Elec       q    Type
REMARK                         _______ _______ _______ _____ _____    ______ ____
ROOT
ATOM      1  O   UNL     1      10.772  24.972  29.599  0.00  0.00    +0.000 OA
ATOM      2  N   UNL     1       8.482  25.101  29.916  0.00  0.00    +0.000 N 
ATOM      3  C   UNL     1       9.735  25.622  29.686  0.00  0.00    +0.000 C 
ATOM      4  H   UNL     1       7.656  25.676  29.983  0.00  0.00    +0.000 HD
ATOM      5  C   UNL     1       8.214  23.763  30.075  0.00  0.00    +0.000 A 
ATOM      6  N   UNL     1       6.951  23.380  30.295  0.00  0.00    +0.000 NA
ATOM      7  N   UNL     1       7.039  22.041  30.402  0.00  0.00    +0.000 N 
ATOM      8  C   UNL     1       8.306  21.561  30.257  0.00  0.00    +0.000 A 
ATOM      9  H   UNL     1       6.191  21.511  30.575  0.00  0.00    +0.000 HD
ATOM     10  C   UNL     1       9.101  22.659  30.043  0.00  0.00    +0.000 A 
ENDROOT
BRANCH   3  11
ATOM     11  C   UNL     1       9.808  27.097  29.539  0.00  0.00    +0.000 A 
ATOM     12  C   UNL     1       8.772  27.870  30.059  0.00  0.00    +0.000 A 
ATOM     13  C   UNL     1       8.806  29.257  29.939  0.00  0.00    +0.000 A 
ATOM     14  C   UNL     1       9.864  29.903  29.286  0.00  0.00    +0.000 A 
ATOM     15  C   UNL     1      10.907  29.111  28.785  0.00  0.00    +0.000 A 
ATOM     16  C   UNL     1      10.878  27.721  28.902  0.00  0.00    +0.000 A 
BRANCH  14  17
ATOM     17  N   UNL     1       9.920  31.314  29.204  0.00  0.00    +0.000 N 
ATOM     18  C   UNL     1       8.661  32.055  29.013  0.00  0.00    +0.000 C 
ATOM     19  C   UNL     1       8.197  33.055  28.109  0.00  0.00    +0.000 C 
ATOM     20  N   UNL     1       9.122  33.497  27.115  0.00  0.00    +0.000 N 
ATOM     21  C   UNL     1       6.815  33.602  28.155  0.00  0.00    +0.000 C 
ATOM     22  C   UNL     1      10.422  32.909  27.106  0.00  0.00    +0.000 C 
ATOM     23  H   UNL     1       8.856  34.185  26.428  0.00  0.00    +0.000 HD
ATOM     24  C   UNL     1      10.684  31.922  28.102  0.00  0.00    +0.000 C 
ATOM     25  C   UNL     1      11.421  33.288  26.072  0.00  0.00    +0.000 C 
ENDBRANCH  14  17
ENDBRANCH   3  11
BRANCH   8  26
ATOM     26  C   UNL     1       8.676  20.196  30.321  0.00  0.00    +0.000 C 
ATOM     27  C   UNL     1       9.079  18.719  30.387  0.00  0.00    +0.000 C 
BRANCH  27  28
ATOM     28  C   UNL     1       9.458  17.347  30.440  0.00  0.00    +0.000 A 
ATOM     29  C   UNL     1       8.514  16.379  30.771  0.00  0.00    +0.000 A 
ATOM     30  C   UNL     1       8.879  15.031  30.819  0.00  0.00    +0.000 A 
ATOM     31  C   UNL     1      10.196  14.667  30.528  0.00  0.00    +0.000 A 
ATOM     32  C   UNL     1      11.147  15.635  30.201  0.00  0.00    +0.000 A 
ATOM     33  C   UNL     1      10.770  16.979  30.156  0.00  0.00    +0.000 A 
BRANCH  30  34
ATOM     34  O   UNL     1       8.030  13.996  31.126  0.00  0.00    +0.000 OA
ATOM     35  C   UNL     1       6.668  14.316  31.123  0.00  0.00    +0.000 C 
ENDBRANCH  30  34
BRANCH  32  36
ATOM     36  O   UNL     1      12.408  15.162  29.934  0.00  0.00    +0.000 OA
ATOM     37  C   UNL     1      13.071  15.785  28.869  0.00  0.00    +0.000 C 
ENDBRANCH  32  36
ENDBRANCH  27  28
ENDBRANCH   8  26
TORSDOF 6
ENDMDL
MODEL 9
REMARK VINA RESULT:      -6.0      8.837     18.630
REMARK  Name = AZD4547.pdbqt.pdb
REMARK  6 active torsions:
REMARK  status: ('A' for Active; 'I' for Inactive)
REMARK    1  A    between atoms: C_3  and  C_23
REMARK    2  A    between atoms: C_8  and  C_11
REMARK    3  A    between atoms: C_12  and  C_13
REMARK    4  A    between atoms: C_15  and  O_19
REMARK    5  A    between atoms: C_17  and  O_21
REMARK    6  A    between atoms: C_26  and  N_29
REMARK                            x       y       z     vdW  Elec       q    Type
REMARK                         _______ _______ _______ _____ _____    ______ ____
ROOT
ATOM      1  O   UNL     1       8.321  14.272  31.426  0.00  0.00    +0.000 OA
ATOM      2  N   UNL     1      10.130  14.390  29.985  0.00  0.00    +0.000 N 
ATOM      3  C   UNL     1       9.218  13.737  30.784  0.00  0.00    +0.000 C 
ATOM      4  H   UNL     1      10.854  13.907  29.477  0.00  0.00    +0.000 HD
ATOM      5  C   UNL     1      10.157  15.751  29.790  0.00  0.00    +0.000 A 
ATOM      6  N   UNL     1      11.096  16.268  28.990  0.00  0.00    +0.000 NA
ATOM      7  N   UNL     1      10.844  17.590  29.018  0.00  0.00    +0.000 N 
ATOM      8  C   UNL     1       9.783  17.930  29.802  0.00  0.00    +0.000 A 
ATOM      9  H   UNL     1      11.438  18.208  28.476  0.00  0.00    +0.000 HD
ATOM     10  C   UNL     1       9.309  16.752  30.324  0.00  0.00    +0.000 A 
ENDROOT
BRANCH   3  11
ATOM     11  C   UNL     1       9.359  12.261  30.856  0.00  0.00    +0.000 A 
ATOM     12  C   UNL     1      10.540  11.730  31.373  0.00  0.00    +0.000 A 
ATOM     13  C   UNL     1      10.707  10.349  31.456  0.00  0.00    +0.000 A 
ATOM     14  C   UNL     1       9.711   9.470  31.013  0.00  0.00    +0.000 A 
ATOM     15  C   UNL     1       8.523  10.022  30.514  0.00  0.00    +0.000 A 
ATOM     16  C   UNL     1       8.349  11.403  30.428  0.00  0.00    +0.000 A 
BRANCH  14  17
ATOM     17  N   UNL     1       9.864   8.069  31.139  0.00  0.00    +0.000 N 
ATOM     18  C   UNL     1       9.242   7.201  30.124  0.00  0.00    +0.000 C 
ATOM     19  C   UNL     1       8.379   6.067  30.146  0.00  0.00    +0.000 C 
ATOM     20  N   UNL     1       7.974   5.598  31.433  0.00  0.00    +0.000 N 
ATOM     21  C   UNL     1       7.884   5.408  28.909  0.00  0.00    +0.000 C 
ATOM     22  C   UNL     1       8.458   6.296  32.580  0.00  0.00    +0.000 C 
ATOM     23  H   UNL     1       7.346   4.815  31.526  0.00  0.00    +0.000 HD
ATOM     24  C   UNL     1       9.315   7.410  32.336  0.00  0.00    +0.000 C 
ATOM     25  C   UNL     1       8.041   5.890  33.948  0.00  0.00    +0.000 C 
ENDBRANCH  14  17
ENDBRANCH   3  11
BRANCH   8  26
ATOM     26  C   UNL     1       9.303  19.246  30.005  0.00  0.00    +0.000 C 
ATOM     27  C   UNL     1       8.788  20.672  30.226  0.00  0.00    +0.000 C 
BRANCH  27  28
ATOM     28  C   UNL     1       8.318  22.001  30.434  0.00  0.00    +0.000 A 
ATOM     29  C   UNL     1       9.226  23.052  30.526  0.00  0.00    +0.000 A 
ATOM     30  C   UNL     1       8.770  24.357  30.725  0.00  0.00    +0.000 A 
ATOM     31  C   UNL     1       7.397  24.595  30.825  0.00  0.00    +0.000 A 
ATOM     32  C   UNL     1       6.484  23.544  30.738  0.00  0.00    +0.000 A 
ATOM     33  C   UNL     1       6.952  22.243  30.540  0.00  0.00    +0.000 A 
BRANCH  30  34
ATOM     34  O   UNL     1       9.574  25.466  30.822  0.00  0.00    +0.000 OA
ATOM     35  C   UNL     1       8.955  26.614  31.330  0.00  0.00    +0.000 C 
ENDBRANCH  30  34
BRANCH  32  36
ATOM     36  O   UNL     1       5.161  23.896  30.850  0.00  0.00    +0.000 OA
ATOM     37  C   UNL     1       4.358  23.577  29.747  0.00  0.00    +0.000 C 
ENDBRANCH  32  36
ENDBRANCH  27  28
ENDBRANCH   8  26
TORSDOF 6
ENDMDL
