MODEL 1
REMARK VINA RESULT:      -6.4      0.000      0.000
REMARK  Name = Belinostat.pdbqt.pdb
REMARK  6 active torsions:
REMARK  status: ('A' for Active; 'I' for Inactive)
REMARK    1  A    between atoms: C_1  and  S_7
REMARK    2  A    between atoms: C_3  and  C_18
REMARK    3  A    between atoms: S_7  and  N_10
REMARK    4  A    between atoms: N_10  and  C_12
REMARK    5  A    between atoms: C_19  and  C_20
REMARK    6  A    between atoms: N_22  and  O_24
REMARK                            x       y       z     vdW  Elec       q    Type
REMARK                         _______ _______ _______ _____ _____    ______ ____
ROOT
ATOM      1  C   UNL     1       8.670  22.005  30.574  0.00  0.00    +0.000 A 
ATOM      2  C   UNL     1       9.423  20.890  30.225  0.00  0.00    +0.000 A 
ATOM      3  C   UNL     1       8.876  19.623  30.406  0.00  0.00    +0.000 A 
ATOM      4  C   UNL     1       7.376  21.883  31.070  0.00  0.00    +0.000 A 
ATOM      5  C   UNL     1       7.586  19.482  30.917  0.00  0.00    +0.000 A 
ATOM      6  C   UNL     1       6.836  20.612  31.247  0.00  0.00    +0.000 A 
ENDROOT
BRANCH   1   7
ATOM      7  S   UNL     1       9.334  23.610  30.312  0.00  0.00    +0.000 S 
ATOM      8  O   UNL     1      10.605  23.439  29.642  0.00  0.00    +0.000 OA
ATOM      9  O   UNL     1       9.236  24.347  31.553  0.00  0.00    +0.000 OA
BRANCH   7  10
ATOM     10  N   UNL     1       8.291  24.283  29.188  0.00  0.00    +0.000 N 
ATOM     11  H   UNL     1       7.306  24.076  29.348  0.00  0.00    +0.000 HD
BRANCH  10  12
ATOM     12  C   UNL     1       8.651  25.367  28.339  0.00  0.00    +0.000 A 
ATOM     13  C   UNL     1       9.453  26.424  28.764  0.00  0.00    +0.000 A 
ATOM     14  C   UNL     1       9.843  27.418  27.869  0.00  0.00    +0.000 A 
ATOM     15  C   UNL     1       9.454  27.343  26.535  0.00  0.00    +0.000 A 
ATOM     16  C   UNL     1       8.683  26.270  26.096  0.00  0.00    +0.000 A 
ATOM     17  C   UNL     1       8.294  25.280  26.993  0.00  0.00    +0.000 A 
ENDBRANCH  10  12
ENDBRANCH   7  10
ENDBRANCH   1   7
BRANCH   3  18
ATOM     18  C   UNL     1       9.639  18.466  30.067  0.00  0.00    +0.000 C 
ATOM     19  C   UNL     1      10.283  17.493  29.784  0.00  0.00    +0.000 C 
BRANCH  19  20
ATOM     20  C   UNL     1      11.057  16.324  29.445  0.00  0.00    +0.000 C 
ATOM     21  O   UNL     1      10.715  15.216  29.842  0.00  0.00    +0.000 OA
ATOM     22  N   UNL     1      12.158  16.542  28.666  0.00  0.00    +0.000 N 
ATOM     23  H   UNL     1      12.422  17.442  28.283  0.00  0.00    +0.000 HD
BRANCH  22  24
ATOM     24  O   UNL     1      12.913  15.414  28.274  0.00  0.00    +0.000 OA
ATOM     25  H   UNL     1      12.348  14.665  28.562  0.00  0.00    +0.000 HD
ENDBRANCH  22  24
ENDBRANCH  19  20
ENDBRANCH   3  18
TORSDOF 6
ENDMDL
MODEL 2
REMARK VINA RESULT:      -6.4      1.987      2.565
REMARK  Name = Belinostat.pdbqt.pdb
REMARK  6 active torsions:
REMARK  status: ('A' for Active; 'I' for Inactive)
REMARK    1  A    between atoms: C_1  and  S_7
REMARK    2  A    between atoms: C_3  and  C_18
REMARK    3  A    between atoms: S_7  and  N_10
REMARK    4  A    between atoms: N_10  and  C_12
REMARK    5  A    between atoms: C_19  and  C_20
REMARK    6  A    between atoms: N_22  and  O_24
REMARK                            x       y       z     vdW  Elec       q    Type
REMARK                         _______ _______ _______ _____ _____    ______ ____
ROOT
ATOM      1  C   UNL     1       7.065  23.125  29.817  0.00  0.00    +0.000 A 
ATOM      2  C   UNL     1       7.954  22.069  29.647  0.00  0.00    +0.000 A 
ATOM      3  C   UNL     1       7.780  20.912  30.399  0.00  0.00    +0.000 A 
ATOM      4  C   UNL     1       5.993  23.037  30.698  0.00  0.00    +0.000 A 
ATOM      5  C   UNL     1       6.718  20.813  31.298  0.00  0.00    +0.000 A 
ATOM      6  C   UNL     1       5.825  21.875  31.445  0.00  0.00    +0.000 A 
ENDROOT
BRANCH   1   7
ATOM      7  S   UNL     1       7.252  24.574  28.843  0.00  0.00    +0.000 S 
ATOM      8  O   UNL     1       5.925  25.103  28.611  0.00  0.00    +0.000 OA
ATOM      9  O   UNL     1       8.139  24.269  27.742  0.00  0.00    +0.000 OA
BRANCH   7  10
ATOM     10  N   UNL     1       8.013  25.645  29.883  0.00  0.00    +0.000 N 
ATOM     11  H   UNL     1       7.567  25.737  30.795  0.00  0.00    +0.000 HD
BRANCH  10  12
ATOM     12  C   UNL     1       9.359  26.076  29.714  0.00  0.00    +0.000 A 
ATOM     13  C   UNL     1      10.453  25.281  30.048  0.00  0.00    +0.000 A 
ATOM     14  C   UNL     1      11.749  25.718  29.785  0.00  0.00    +0.000 A 
ATOM     15  C   UNL     1      11.955  26.945  29.160  0.00  0.00    +0.000 A 
ATOM     16  C   UNL     1      10.865  27.728  28.790  0.00  0.00    +0.000 A 
ATOM     17  C   UNL     1       9.571  27.287  29.055  0.00  0.00    +0.000 A 
ENDBRANCH  10  12
ENDBRANCH   7  10
ENDBRANCH   1   7
BRANCH   3  18
ATOM     18  C   UNL     1       8.690  19.824  30.248  0.00  0.00    +0.000 C 
ATOM     19  C   UNL     1       9.458  18.909  30.124  0.00  0.00    +0.000 C 
BRANCH  19  20
ATOM     20  C   UNL     1      10.379  17.809  29.976  0.00  0.00    +0.000 C 
ATOM     21  O   UNL     1      10.751  17.174  30.956  0.00  0.00    +0.000 OA
ATOM     22  N   UNL     1      10.783  17.536  28.699  0.00  0.00    +0.000 N 
ATOM     23  H   UNL     1      10.440  18.014  27.874  0.00  0.00    +0.000 HD
BRANCH  22  24
ATOM     24  O   UNL     1      11.648  16.435  28.510  0.00  0.00    +0.000 OA
ATOM     25  H   UNL     1      12.521  16.800  28.771  0.00  0.00    +0.000 HD
ENDBRANCH  22  24
ENDBRANCH  19  20
ENDBRANCH   3  18
TORSDOF 6
ENDMDL
MODEL 3
REMARK VINA RESULT:      -6.1     14.328     15.509
REMARK  Name = Belinostat.pdbqt.pdb
REMARK  6 active torsions:
REMARK  status: ('A' for Active; 'I' for Inactive)
REMARK    1  A    between atoms: C_1  and  S_7
REMARK    2  A    between atoms: C_3  and  C_18
REMARK    3  A    between atoms: S_7  and  N_10
REMARK    4  A    between atoms: N_10  and  C_12
REMARK    5  A    between atoms: C_19  and  C_20
REMARK    6  A    between atoms: N_22  and  O_24
REMARK                            x       y       z     vdW  Elec       q    Type
REMARK                         _______ _______ _______ _____ _____    ______ ____
ROOT
ATOM      1  C   UNL     1      22.805  15.787  28.489  0.00  0.00    +0.000 A 
ATOM      2  C   UNL     1      23.069  15.162  27.276  0.00  0.00    +0.000 A 
ATOM      3  C   UNL     1      23.310  13.792  27.262  0.00  0.00    +0.000 A 
ATOM      4  C   UNL     1      22.747  15.070  29.680  0.00  0.00    +0.000 A 
ATOM      5  C   UNL     1      23.271  13.060  28.448  0.00  0.00    +0.000 A 
ATOM      6  C   UNL     1      22.988  13.699  29.656  0.00  0.00    +0.000 A 
ENDROOT
BRANCH   1   7
ATOM      7  S   UNL     1      22.460  17.509  28.515  0.00  0.00    +0.000 S 
ATOM      8  O   UNL     1      22.831  17.997  29.826  0.00  0.00    +0.000 OA
ATOM      9  O   UNL     1      21.126  17.710  27.992  0.00  0.00    +0.000 OA
BRANCH   7  10
ATOM     10  N   UNL     1      23.575  18.145  27.439  0.00  0.00    +0.000 N 
ATOM     11  H   UNL     1      24.504  17.728  27.498  0.00  0.00    +0.000 HD
BRANCH  10  12
ATOM     12  C   UNL     1      23.209  18.880  26.277  0.00  0.00    +0.000 A 
ATOM     13  C   UNL     1      23.359  20.262  26.181  0.00  0.00    +0.000 A 
ATOM     14  C   UNL     1      23.062  20.923  24.991  0.00  0.00    +0.000 A 
ATOM     15  C   UNL     1      22.639  20.198  23.881  0.00  0.00    +0.000 A 
ATOM     16  C   UNL     1      22.523  18.813  23.959  0.00  0.00    +0.000 A 
ATOM     17  C   UNL     1      22.820  18.156  25.150  0.00  0.00    +0.000 A 
ENDBRANCH  10  12
ENDBRANCH   7  10
ENDBRANCH   1   7
BRANCH   3  18
ATOM     18  C   UNL     1      23.597  13.135  26.028  0.00  0.00    +0.000 C 
ATOM     19  C   UNL     1      23.835  12.583  24.988  0.00  0.00    +0.000 C 
BRANCH  19  20
ATOM     20  C   UNL     1      24.121  11.920  23.740  0.00  0.00    +0.000 C 
ATOM     21  O   UNL     1      23.437  10.973  23.368  0.00  0.00    +0.000 OA
ATOM     22  N   UNL     1      25.173  12.420  23.025  0.00  0.00    +0.000 N 
ATOM     23  H   UNL     1      25.711  13.236  23.290  0.00  0.00    +0.000 HD
BRANCH  22  24
ATOM     24  O   UNL     1      25.452  11.826  21.774  0.00  0.00    +0.000 OA
ATOM     25  H   UNL     1      24.949  10.984  21.817  0.00  0.00    +0.000 HD
ENDBRANCH  22  24
ENDBRANCH  19  20
ENDBRANCH   3  18
TORSDOF 6
ENDMDL
MODEL 4
REMARK VINA RESULT:      -6.0      1.857      2.347
REMARK  Name = Belinostat.pdbqt.pdb
REMARK  6 active torsions:
REMARK  status: ('A' for Active; 'I' for Inactive)
REMARK    1  A    between atoms: C_1  and  S_7
REMARK    2  A    between atoms: C_3  and  C_18
REMARK    3  A    between atoms: S_7  and  N_10
REMARK    4  A    between atoms: N_10  and  C_12
REMARK    5  A    between atoms: C_19  and  C_20
REMARK    6  A    between atoms: N_22  and  O_24
REMARK                            x       y       z     vdW  Elec       q    Type
REMARK                         _______ _______ _______ _____ _____    ______ ____
ROOT
ATOM      1  C   UNL     1       7.265  20.084  31.125  0.00  0.00    +0.000 A 
ATOM      2  C   UNL     1       8.459  19.518  30.694  0.00  0.00    +0.000 A 
ATOM      3  C   UNL     1       8.645  18.146  30.832  0.00  0.00    +0.000 A 
ATOM      4  C   UNL     1       6.244  19.306  31.663  0.00  0.00    +0.000 A 
ATOM      5  C   UNL     1       7.638  17.354  31.384  0.00  0.00    +0.000 A 
ATOM      6  C   UNL     1       6.438  17.935  31.797  0.00  0.00    +0.000 A 
ENDROOT
BRANCH   1   7
ATOM      7  S   UNL     1       7.003  21.808  30.918  0.00  0.00    +0.000 S 
ATOM      8  O   UNL     1       7.563  22.465  32.079  0.00  0.00    +0.000 OA
ATOM      9  O   UNL     1       5.623  22.013  30.536  0.00  0.00    +0.000 OA
BRANCH   7  10
ATOM     10  N   UNL     1       7.996  22.199  29.627  0.00  0.00    +0.000 N 
ATOM     11  H   UNL     1       8.165  21.433  28.977  0.00  0.00    +0.000 HD
BRANCH  10  12
ATOM     12  C   UNL     1       8.253  23.537  29.216  0.00  0.00    +0.000 A 
ATOM     13  C   UNL     1       9.381  24.248  29.620  0.00  0.00    +0.000 A 
ATOM     14  C   UNL     1       9.627  25.525  29.123  0.00  0.00    +0.000 A 
ATOM     15  C   UNL     1       8.756  26.088  28.195  0.00  0.00    +0.000 A 
ATOM     16  C   UNL     1       7.646  25.370  27.759  0.00  0.00    +0.000 A 
ATOM     17  C   UNL     1       7.404  24.093  28.259  0.00  0.00    +0.000 A 
ENDBRANCH  10  12
ENDBRANCH   7  10
ENDBRANCH   1   7
BRANCH   3  18
ATOM     18  C   UNL     1       9.869  17.550  30.408  0.00  0.00    +0.000 C 
ATOM     19  C   UNL     1      10.900  17.050  30.048  0.00  0.00    +0.000 C 
BRANCH  19  20
ATOM     20  C   UNL     1      12.137  16.449  29.616  0.00  0.00    +0.000 C 
ATOM     21  O   UNL     1      13.137  16.507  30.323  0.00  0.00    +0.000 OA
ATOM     22  N   UNL     1      12.106  15.824  28.401  0.00  0.00    +0.000 N 
ATOM     23  H   UNL     1      11.274  15.718  27.831  0.00  0.00    +0.000 HD
BRANCH  22  24
ATOM     24  O   UNL     1      13.286  15.183  27.966  0.00  0.00    +0.000 OA
ATOM     25  H   UNL     1      12.971  14.280  27.740  0.00  0.00    +0.000 HD
ENDBRANCH  22  24
ENDBRANCH  19  20
ENDBRANCH   3  18
TORSDOF 6
ENDMDL
MODEL 5
REMARK VINA RESULT:      -5.9      3.539      8.081
REMARK  Name = Belinostat.pdbqt.pdb
REMARK  6 active torsions:
REMARK  status: ('A' for Active; 'I' for Inactive)
REMARK    1  A    between atoms: C_1  and  S_7
REMARK    2  A    between atoms: C_3  and  C_18
REMARK    3  A    between atoms: S_7  and  N_10
REMARK    4  A    between atoms: N_10  and  C_12
REMARK    5  A    between atoms: C_19  and  C_20
REMARK    6  A    between atoms: N_22  and  O_24
REMARK                            x       y       z     vdW  Elec       q    Type
REMARK                         _______ _______ _______ _____ _____    ______ ____
ROOT
ATOM      1  C   UNL     1      12.748  22.325  31.398  0.00  0.00    +0.000 A 
ATOM      2  C   UNL     1      12.064  22.935  30.353  0.00  0.00    +0.000 A 
ATOM      3  C   UNL     1      11.192  23.981  30.637  0.00  0.00    +0.000 A 
ATOM      4  C   UNL     1      12.602  22.756  32.713  0.00  0.00    +0.000 A 
ATOM      5  C   UNL     1      11.021  24.416  31.951  0.00  0.00    +0.000 A 
ATOM      6  C   UNL     1      11.728  23.804  32.988  0.00  0.00    +0.000 A 
ENDROOT
BRANCH   1   7
ATOM      7  S   UNL     1      13.883  21.031  31.048  0.00  0.00    +0.000 S 
ATOM      8  O   UNL     1      13.737  20.044  32.096  0.00  0.00    +0.000 OA
ATOM      9  O   UNL     1      15.169  21.625  30.753  0.00  0.00    +0.000 OA
BRANCH   7  10
ATOM     10  N   UNL     1      13.263  20.338  29.655  0.00  0.00    +0.000 N 
ATOM     11  H   UNL     1      13.556  20.792  28.791  0.00  0.00    +0.000 HD
BRANCH  10  12
ATOM     12  C   UNL     1      12.730  19.019  29.608  0.00  0.00    +0.000 A 
ATOM     13  C   UNL     1      11.364  18.759  29.529  0.00  0.00    +0.000 A 
ATOM     14  C   UNL     1      10.900  17.452  29.403  0.00  0.00    +0.000 A 
ATOM     15  C   UNL     1      11.806  16.398  29.328  0.00  0.00    +0.000 A 
ATOM     16  C   UNL     1      13.173  16.653  29.370  0.00  0.00    +0.000 A 
ATOM     17  C   UNL     1      13.633  17.962  29.497  0.00  0.00    +0.000 A 
ENDBRANCH  10  12
ENDBRANCH   7  10
ENDBRANCH   1   7
BRANCH   3  18
ATOM     18  C   UNL     1      10.471  24.609  29.578  0.00  0.00    +0.000 C 
ATOM     19  C   UNL     1       9.865  25.141  28.688  0.00  0.00    +0.000 C 
BRANCH  19  20
ATOM     20  C   UNL     1       9.139  25.780  27.618  0.00  0.00    +0.000 C 
ATOM     21  O   UNL     1       9.431  26.915  27.260  0.00  0.00    +0.000 OA
ATOM     22  N   UNL     1       8.140  25.041  27.049  0.00  0.00    +0.000 N 
ATOM     23  H   UNL     1       7.925  24.081  27.294  0.00  0.00    +0.000 HD
BRANCH  22  24
ATOM     24  O   UNL     1       7.439  25.615  25.966  0.00  0.00    +0.000 OA
ATOM     25  H   UNL     1       8.070  25.511  25.221  0.00  0.00    +0.000 HD
ENDBRANCH  22  24
ENDBRANCH  19  20
ENDBRANCH   3  18
TORSDOF 6
ENDMDL
MODEL 6
REMARK VINA RESULT:      -5.9     18.029     21.224
REMARK  Name = Belinostat.pdbqt.pdb
REMARK  6 active torsions:
REMARK  status: ('A' for Active; 'I' for Inactive)
REMARK    1  A    between atoms: C_1  and  S_7
REMARK    2  A    between atoms: C_3  and  C_18
REMARK    3  A    between atoms: S_7  and  N_10
REMARK    4  A    between atoms: N_10  and  C_12
REMARK    5  A    between atoms: C_19  and  C_20
REMARK    6  A    between atoms: N_22  and  O_24
REMARK                            x       y       z     vdW  Elec       q    Type
REMARK                         _______ _______ _______ _____ _____    ______ ____
ROOT
ATOM      1  C   UNL     1       0.932  29.592  14.396  0.00  0.00    +0.000 A 
ATOM      2  C   UNL     1       0.737  29.338  13.043  0.00  0.00    +0.000 A 
ATOM      3  C   UNL     1       1.516  30.014  12.110  0.00  0.00    +0.000 A 
ATOM      4  C   UNL     1       1.907  30.482  14.835  0.00  0.00    +0.000 A 
ATOM      5  C   UNL     1       2.487  30.921  12.533  0.00  0.00    +0.000 A 
ATOM      6  C   UNL     1       2.683  31.153  13.895  0.00  0.00    +0.000 A 
ENDROOT
BRANCH   1   7
ATOM      7  S   UNL     1      -0.018  28.714  15.584  0.00  0.00    +0.000 S 
ATOM      8  O   UNL     1      -1.401  28.796  15.166  0.00  0.00    +0.000 OA
ATOM      9  O   UNL     1       0.392  29.149  16.902  0.00  0.00    +0.000 OA
BRANCH   7  10
ATOM     10  N   UNL     1       0.452  27.123  15.358  0.00  0.00    +0.000 N 
ATOM     11  H   UNL     1       1.321  26.868  15.826  0.00  0.00    +0.000 HD
BRANCH  10  12
ATOM     12  C   UNL     1      -0.437  26.099  14.925  0.00  0.00    +0.000 A 
ATOM     13  C   UNL     1      -1.296  25.428  15.794  0.00  0.00    +0.000 A 
ATOM     14  C   UNL     1      -2.204  24.493  15.305  0.00  0.00    +0.000 A 
ATOM     15  C   UNL     1      -2.276  24.243  13.938  0.00  0.00    +0.000 A 
ATOM     16  C   UNL     1      -1.447  24.936  13.061  0.00  0.00    +0.000 A 
ATOM     17  C   UNL     1      -0.539  25.870  13.553  0.00  0.00    +0.000 A 
ENDBRANCH  10  12
ENDBRANCH   7  10
ENDBRANCH   1   7
BRANCH   3  18
ATOM     18  C   UNL     1       1.320  29.777  10.717  0.00  0.00    +0.000 C 
ATOM     19  C   UNL     1       1.154  29.580   9.544  0.00  0.00    +0.000 C 
BRANCH  19  20
ATOM     20  C   UNL     1       0.956  29.345   8.136  0.00  0.00    +0.000 C 
ATOM     21  O   UNL     1       0.272  28.402   7.753  0.00  0.00    +0.000 OA
ATOM     22  N   UNL     1       1.562  30.231   7.290  0.00  0.00    +0.000 N 
ATOM     23  H   UNL     1       2.082  31.047   7.590  0.00  0.00    +0.000 HD
BRANCH  22  24
ATOM     24  O   UNL     1       1.350  30.061   5.904  0.00  0.00    +0.000 OA
ATOM     25  H   UNL     1       0.416  30.342   5.792  0.00  0.00    +0.000 HD
ENDBRANCH  22  24
ENDBRANCH  19  20
ENDBRANCH   3  18
TORSDOF 6
ENDMDL
MODEL 7
REMARK VINA RESULT:      -5.8      2.834      7.866
REMARK  Name = Belinostat.pdbqt.pdb
REMARK  6 active torsions:
REMARK  status: ('A' for Active; 'I' for Inactive)
REMARK    1  A    between atoms: C_1  and  S_7
REMARK    2  A    between atoms: C_3  and  C_18
REMARK    3  A    between atoms: S_7  and  N_10
REMARK    4  A    between atoms: N_10  and  C_12
REMARK    5  A    between atoms: C_19  and  C_20
REMARK    6  A    between atoms: N_22  and  O_24
REMARK                            x       y       z     vdW  Elec       q    Type
REMARK                         _______ _______ _______ _____ _____    ______ ____
ROOT
ATOM      1  C   UNL     1       8.219  18.020  31.199  0.00  0.00    +0.000 A 
ATOM      2  C   UNL     1       8.408  19.214  30.512  0.00  0.00    +0.000 A 
ATOM      3  C   UNL     1       7.589  20.299  30.805  0.00  0.00    +0.000 A 
ATOM      4  C   UNL     1       7.252  17.899  32.192  0.00  0.00    +0.000 A 
ATOM      5  C   UNL     1       6.604  20.189  31.787  0.00  0.00    +0.000 A 
ATOM      6  C   UNL     1       6.437  18.990  32.480  0.00  0.00    +0.000 A 
ENDROOT
BRANCH   1   7
ATOM      7  S   UNL     1       9.274  16.657  30.866  0.00  0.00    +0.000 S 
ATOM      8  O   UNL     1       8.451  15.615  30.290  0.00  0.00    +0.000 OA
ATOM      9  O   UNL     1      10.079  16.409  32.042  0.00  0.00    +0.000 OA
BRANCH   7  10
ATOM     10  N   UNL     1      10.257  17.219  29.632  0.00  0.00    +0.000 N 
ATOM     11  H   UNL     1       9.814  17.898  29.015  0.00  0.00    +0.000 HD
BRANCH  10  12
ATOM     12  C   UNL     1      11.677  17.113  29.655  0.00  0.00    +0.000 A 
ATOM     13  C   UNL     1      12.351  15.941  29.320  0.00  0.00    +0.000 A 
ATOM     14  C   UNL     1      13.743  15.915  29.279  0.00  0.00    +0.000 A 
ATOM     15  C   UNL     1      14.467  17.073  29.546  0.00  0.00    +0.000 A 
ATOM     16  C   UNL     1      13.799  18.257  29.845  0.00  0.00    +0.000 A 
ATOM     17  C   UNL     1      12.408  18.278  29.886  0.00  0.00    +0.000 A 
ENDBRANCH  10  12
ENDBRANCH   7  10
ENDBRANCH   1   7
BRANCH   3  18
ATOM     18  C   UNL     1       7.758  21.527  30.099  0.00  0.00    +0.000 C 
ATOM     19  C   UNL     1       7.900  22.560  29.503  0.00  0.00    +0.000 C 
BRANCH  19  20
ATOM     20  C   UNL     1       8.070  23.799  28.786  0.00  0.00    +0.000 C 
ATOM     21  O   UNL     1       9.108  24.441  28.891  0.00  0.00    +0.000 OA
ATOM     22  N   UNL     1       7.020  24.183  27.999  0.00  0.00    +0.000 N 
ATOM     23  H   UNL     1       6.179  23.636  27.856  0.00  0.00    +0.000 HD
BRANCH  22  24
ATOM     24  O   UNL     1       7.169  25.368  27.244  0.00  0.00    +0.000 OA
ATOM     25  H   UNL     1       6.240  25.653  27.105  0.00  0.00    +0.000 HD
ENDBRANCH  22  24
ENDBRANCH  19  20
ENDBRANCH   3  18
TORSDOF 6
ENDMDL
MODEL 8
REMARK VINA RESULT:      -5.6     13.421     15.002
REMARK  Name = Belinostat.pdbqt.pdb
REMARK  6 active torsions:
REMARK  status: ('A' for Active; 'I' for Inactive)
REMARK    1  A    between atoms: C_1  and  S_7
REMARK    2  A    between atoms: C_3  and  C_18
REMARK    3  A    between atoms: S_7  and  N_10
REMARK    4  A    between atoms: N_10  and  C_12
REMARK    5  A    between atoms: C_19  and  C_20
REMARK    6  A    between atoms: N_22  and  O_24
REMARK                            x       y       z     vdW  Elec       q    Type
REMARK                         _______ _______ _______ _____ _____    ______ ____
ROOT
ATOM      1  C   UNL     1      22.443  16.523  27.605  0.00  0.00    +0.000 A 
ATOM      2  C   UNL     1      22.748  15.698  26.529  0.00  0.00    +0.000 A 
ATOM      3  C   UNL     1      23.251  14.425  26.775  0.00  0.00    +0.000 A 
ATOM      4  C   UNL     1      22.602  16.092  28.919  0.00  0.00    +0.000 A 
ATOM      5  C   UNL     1      23.432  13.983  28.085  0.00  0.00    +0.000 A 
ATOM      6  C   UNL     1      23.105  14.816  29.156  0.00  0.00    +0.000 A 
ENDROOT
BRANCH   1   7
ATOM      7  S   UNL     1      21.769  18.117  27.307  0.00  0.00    +0.000 S 
ATOM      8  O   UNL     1      20.760  18.347  28.319  0.00  0.00    +0.000 OA
ATOM      9  O   UNL     1      21.452  18.217  25.899  0.00  0.00    +0.000 OA
BRANCH   7  10
ATOM     10  N   UNL     1      23.039  19.149  27.661  0.00  0.00    +0.000 N 
ATOM     11  H   UNL     1      23.962  18.768  27.457  0.00  0.00    +0.000 HD
BRANCH  10  12
ATOM     12  C   UNL     1      22.882  20.553  27.831  0.00  0.00    +0.000 A 
ATOM     13  C   UNL     1      22.556  21.408  26.781  0.00  0.00    +0.000 A 
ATOM     14  C   UNL     1      22.332  22.763  27.017  0.00  0.00    +0.000 A 
ATOM     15  C   UNL     1      22.408  23.263  28.313  0.00  0.00    +0.000 A 
ATOM     16  C   UNL     1      22.697  22.408  29.372  0.00  0.00    +0.000 A 
ATOM     17  C   UNL     1      22.921  21.054  29.132  0.00  0.00    +0.000 A 
ENDBRANCH  10  12
ENDBRANCH   7  10
ENDBRANCH   1   7
BRANCH   3  18
ATOM     18  C   UNL     1      23.583  13.570  25.682  0.00  0.00    +0.000 C 
ATOM     19  C   UNL     1      23.861  12.848  24.763  0.00  0.00    +0.000 C 
BRANCH  19  20
ATOM     20  C   UNL     1      24.195  11.981  23.661  0.00  0.00    +0.000 C 
ATOM     21  O   UNL     1      23.606  10.917  23.507  0.00  0.00    +0.000 OA
ATOM     22  N   UNL     1      25.179  12.428  22.825  0.00  0.00    +0.000 N 
ATOM     23  H   UNL     1      25.634  13.330  22.905  0.00  0.00    +0.000 HD
BRANCH  22  24
ATOM     24  O   UNL     1      25.499  11.627  21.706  0.00  0.00    +0.000 OA
ATOM     25  H   UNL     1      24.649  11.174  21.515  0.00  0.00    +0.000 HD
ENDBRANCH  22  24
ENDBRANCH  19  20
ENDBRANCH   3  18
TORSDOF 6
ENDMDL
MODEL 9
REMARK VINA RESULT:      -5.5     14.030     18.452
REMARK  Name = Belinostat.pdbqt.pdb
REMARK  6 active torsions:
REMARK  status: ('A' for Active; 'I' for Inactive)
REMARK    1  A    between atoms: C_1  and  S_7
REMARK    2  A    between atoms: C_3  and  C_18
REMARK    3  A    between atoms: S_7  and  N_10
REMARK    4  A    between atoms: N_10  and  C_12
REMARK    5  A    between atoms: C_19  and  C_20
REMARK    6  A    between atoms: N_22  and  O_24
REMARK                            x       y       z     vdW  Elec       q    Type
REMARK                         _______ _______ _______ _____ _____    ______ ____
ROOT
ATOM      1  C   UNL     1      23.933  13.936  25.609  0.00  0.00    +0.000 A 
ATOM      2  C   UNL     1      23.107  14.754  26.371  0.00  0.00    +0.000 A 
ATOM      3  C   UNL     1      23.298  16.131  26.330  0.00  0.00    +0.000 A 
ATOM      4  C   UNL     1      24.923  14.465  24.787  0.00  0.00    +0.000 A 
ATOM      5  C   UNL     1      24.296  16.678  25.524  0.00  0.00    +0.000 A 
ATOM      6  C   UNL     1      25.106  15.845  24.751  0.00  0.00    +0.000 A 
ENDROOT
BRANCH   1   7
ATOM      7  S   UNL     1      23.675  12.199  25.621  0.00  0.00    +0.000 S 
ATOM      8  O   UNL     1      22.308  11.976  26.041  0.00  0.00    +0.000 OA
ATOM      9  O   UNL     1      24.782  11.582  26.319  0.00  0.00    +0.000 OA
BRANCH   7  10
ATOM     10  N   UNL     1      23.745  11.784  24.000  0.00  0.00    +0.000 N 
ATOM     11  H   UNL     1      23.152  12.349  23.393  0.00  0.00    +0.000 HD
BRANCH  10  12
ATOM     12  C   UNL     1      24.807  11.025  23.433  0.00  0.00    +0.000 A 
ATOM     13  C   UNL     1      25.887  11.612  22.776  0.00  0.00    +0.000 A 
ATOM     14  C   UNL     1      26.941  10.828  22.312  0.00  0.00    +0.000 A 
ATOM     15  C   UNL     1      26.931   9.453  22.527  0.00  0.00    +0.000 A 
ATOM     16  C   UNL     1      25.873   8.865  23.214  0.00  0.00    +0.000 A 
ATOM     17  C   UNL     1      24.821   9.652  23.676  0.00  0.00    +0.000 A 
ENDBRANCH  10  12
ENDBRANCH   7  10
ENDBRANCH   1   7
BRANCH   3  18
ATOM     18  C   UNL     1      22.469  16.986  27.117  0.00  0.00    +0.000 C 
ATOM     19  C   UNL     1      21.774  17.707  27.779  0.00  0.00    +0.000 C 
BRANCH  19  20
ATOM     20  C   UNL     1      20.940  18.573  28.575  0.00  0.00    +0.000 C 
ATOM     21  O   UNL     1      20.110  18.102  29.344  0.00  0.00    +0.000 OA
ATOM     22  N   UNL     1      21.147  19.915  28.415  0.00  0.00    +0.000 N 
ATOM     23  H   UNL     1      21.867  20.318  27.827  0.00  0.00    +0.000 HD
BRANCH  22  24
ATOM     24  O   UNL     1      20.382  20.793  29.213  0.00  0.00    +0.000 OA
ATOM     25  H   UNL     1      19.660  21.064  28.605  0.00  0.00    +0.000 HD
ENDBRANCH  22  24
ENDBRANCH  19  20
ENDBRANCH   3  18
TORSDOF 6
ENDMDL
