MODEL 1
REMARK VINA RESULT:      -6.9      0.000      0.000
REMARK  Name = Benzo[a]pyrene.pdbqt.pdb
REMARK  0 active torsions:
REMARK  status: ('A' for Active; 'I' for Inactive)
REMARK                            x       y       z     vdW  Elec       q    Type
REMARK                         _______ _______ _______ _____ _____    ______ ____
ROOT
ATOM      1  C   UNL     1      -1.879  25.674  15.651  0.00  0.00    +0.000 A 
ATOM      2  C   UNL     1      -1.018  26.794  15.655  0.00  0.00    +0.000 A 
ATOM      3  C   UNL     1      -1.828  24.737  14.595  0.00  0.00    +0.000 A 
ATOM      4  C   UNL     1      -2.790  25.505  16.715  0.00  0.00    +0.000 A 
ATOM      5  C   UNL     1      -2.704  23.623  14.617  0.00  0.00    +0.000 A 
ATOM      6  C   UNL     1      -0.100  26.982  14.602  0.00  0.00    +0.000 A 
ATOM      7  C   UNL     1      -1.073  27.727  16.712  0.00  0.00    +0.000 A 
ATOM      8  C   UNL     1      -3.609  23.472  15.692  0.00  0.00    +0.000 A 
ATOM      9  C   UNL     1      -3.644  24.407  16.723  0.00  0.00    +0.000 A 
ATOM     10  C   UNL     1      -0.901  24.956  13.562  0.00  0.00    +0.000 A 
ATOM     11  C   UNL     1      -2.833  26.435  17.753  0.00  0.00    +0.000 A 
ATOM     12  C   UNL     1      -0.049  26.059  13.561  0.00  0.00    +0.000 A 
ATOM     13  C   UNL     1      -1.982  27.539  17.752  0.00  0.00    +0.000 A 
ATOM     14  C   UNL     1       0.746  28.091  14.614  0.00  0.00    +0.000 A 
ATOM     15  C   UNL     1      -0.218  28.829  16.705  0.00  0.00    +0.000 A 
ATOM     16  C   UNL     1      -2.714  22.648  13.606  0.00  0.00    +0.000 A 
ATOM     17  C   UNL     1      -4.480  22.383  15.735  0.00  0.00    +0.000 A 
ATOM     18  C   UNL     1       0.687  29.010  15.661  0.00  0.00    +0.000 A 
ATOM     19  C   UNL     1      -3.587  21.563  13.654  0.00  0.00    +0.000 A 
ATOM     20  C   UNL     1      -4.470  21.430  14.719  0.00  0.00    +0.000 A 
ENDROOT
TORSDOF 0
ENDMDL
MODEL 2
REMARK VINA RESULT:      -6.8      0.604      2.976
REMARK  Name = Benzo[a]pyrene.pdbqt.pdb
REMARK  0 active torsions:
REMARK  status: ('A' for Active; 'I' for Inactive)
REMARK                            x       y       z     vdW  Elec       q    Type
REMARK                         _______ _______ _______ _____ _____    ______ ____
ROOT
ATOM      1  C   UNL     1      -1.767  25.645  15.468  0.00  0.00    +0.000 A 
ATOM      2  C   UNL     1      -0.994  26.819  15.605  0.00  0.00    +0.000 A 
ATOM      3  C   UNL     1      -2.711  25.292  16.459  0.00  0.00    +0.000 A 
ATOM      4  C   UNL     1      -1.585  24.830  14.331  0.00  0.00    +0.000 A 
ATOM      5  C   UNL     1      -3.473  24.108  16.297  0.00  0.00    +0.000 A 
ATOM      6  C   UNL     1      -1.160  27.647  16.732  0.00  0.00    +0.000 A 
ATOM      7  C   UNL     1      -0.053  27.166  14.613  0.00  0.00    +0.000 A 
ATOM      8  C   UNL     1      -3.275  23.306  15.150  0.00  0.00    +0.000 A 
ATOM      9  C   UNL     1      -2.340  23.671  14.186  0.00  0.00    +0.000 A 
ATOM     10  C   UNL     1      -2.851  26.141  17.571  0.00  0.00    +0.000 A 
ATOM     11  C   UNL     1      -0.651  25.186  13.359  0.00  0.00    +0.000 A 
ATOM     12  C   UNL     1      -2.090  27.301  17.709  0.00  0.00    +0.000 A 
ATOM     13  C   UNL     1       0.110  26.346  13.497  0.00  0.00    +0.000 A 
ATOM     14  C   UNL     1      -0.392  28.804  16.858  0.00  0.00    +0.000 A 
ATOM     15  C   UNL     1       0.706  28.328  14.757  0.00  0.00    +0.000 A 
ATOM     16  C   UNL     1      -4.431  23.689  17.236  0.00  0.00    +0.000 A 
ATOM     17  C   UNL     1      -4.014  22.137  14.970  0.00  0.00    +0.000 A 
ATOM     18  C   UNL     1       0.537  29.143  15.875  0.00  0.00    +0.000 A 
ATOM     19  C   UNL     1      -5.166  22.521  17.050  0.00  0.00    +0.000 A 
ATOM     20  C   UNL     1      -4.958  21.744  15.917  0.00  0.00    +0.000 A 
ENDROOT
TORSDOF 0
ENDMDL
MODEL 3
REMARK VINA RESULT:      -6.6     23.889     26.905
REMARK  Name = Benzo[a]pyrene.pdbqt.pdb
REMARK  0 active torsions:
REMARK  status: ('A' for Active; 'I' for Inactive)
REMARK                            x       y       z     vdW  Elec       q    Type
REMARK                         _______ _______ _______ _____ _____    ______ ____
ROOT
ATOM      1  C   UNL     1      22.293  27.734   4.832  0.00  0.00    +0.000 A 
ATOM      2  C   UNL     1      23.290  26.808   4.451  0.00  0.00    +0.000 A 
ATOM      3  C   UNL     1      22.504  28.602   5.926  0.00  0.00    +0.000 A 
ATOM      4  C   UNL     1      21.085  27.779   4.104  0.00  0.00    +0.000 A 
ATOM      5  C   UNL     1      21.487  29.521   6.286  0.00  0.00    +0.000 A 
ATOM      6  C   UNL     1      24.504  26.746   5.164  0.00  0.00    +0.000 A 
ATOM      7  C   UNL     1      23.074  25.943   3.358  0.00  0.00    +0.000 A 
ATOM      8  C   UNL     1      20.284  29.550   5.544  0.00  0.00    +0.000 A 
ATOM      9  C   UNL     1      20.095  28.686   4.469  0.00  0.00    +0.000 A 
ATOM     10  C   UNL     1      23.726  28.513   6.614  0.00  0.00    +0.000 A 
ATOM     11  C   UNL     1      20.886  26.919   3.026  0.00  0.00    +0.000 A 
ATOM     12  C   UNL     1      24.713  27.601   6.243  0.00  0.00    +0.000 A 
ATOM     13  C   UNL     1      21.873  26.007   2.654  0.00  0.00    +0.000 A 
ATOM     14  C   UNL     1      25.483  25.829   4.782  0.00  0.00    +0.000 A 
ATOM     15  C   UNL     1      24.065  25.033   2.991  0.00  0.00    +0.000 A 
ATOM     16  C   UNL     1      21.620  30.416   7.360  0.00  0.00    +0.000 A 
ATOM     17  C   UNL     1      19.269  30.446   5.880  0.00  0.00    +0.000 A 
ATOM     18  C   UNL     1      25.265  24.977   3.700  0.00  0.00    +0.000 A 
ATOM     19  C   UNL     1      20.603  31.309   7.691  0.00  0.00    +0.000 A 
ATOM     20  C   UNL     1      19.427  31.323   6.950  0.00  0.00    +0.000 A 
ENDROOT
TORSDOF 0
ENDMDL
MODEL 4
REMARK VINA RESULT:      -6.5      4.068      6.781
REMARK  Name = Benzo[a]pyrene.pdbqt.pdb
REMARK  0 active torsions:
REMARK  status: ('A' for Active; 'I' for Inactive)
REMARK                            x       y       z     vdW  Elec       q    Type
REMARK                         _______ _______ _______ _____ _____    ______ ____
ROOT
ATOM      1  C   UNL     1       1.734  30.396  12.741  0.00  0.00    +0.000 A 
ATOM      2  C   UNL     1       2.258  31.400  11.897  0.00  0.00    +0.000 A 
ATOM      3  C   UNL     1       0.891  29.390  12.217  0.00  0.00    +0.000 A 
ATOM      4  C   UNL     1       2.063  30.411  14.113  0.00  0.00    +0.000 A 
ATOM      5  C   UNL     1       0.380  28.395  13.087  0.00  0.00    +0.000 A 
ATOM      6  C   UNL     1       1.942  31.404  10.524  0.00  0.00    +0.000 A 
ATOM      7  C   UNL     1       3.099  32.402  12.425  0.00  0.00    +0.000 A 
ATOM      8  C   UNL     1       0.722  28.428  14.458  0.00  0.00    +0.000 A 
ATOM      9  C   UNL     1       1.554  29.427  14.955  0.00  0.00    +0.000 A 
ATOM     10  C   UNL     1       0.596  29.424  10.843  0.00  0.00    +0.000 A 
ATOM     11  C   UNL     1       2.896  31.407  14.621  0.00  0.00    +0.000 A 
ATOM     12  C   UNL     1       1.111  30.414  10.007  0.00  0.00    +0.000 A 
ATOM     13  C   UNL     1       3.411  32.396  13.784  0.00  0.00    +0.000 A 
ATOM     14  C   UNL     1       2.463  32.399   9.698  0.00  0.00    +0.000 A 
ATOM     15  C   UNL     1       3.611  33.389  11.583  0.00  0.00    +0.000 A 
ATOM     16  C   UNL     1      -0.464  27.362  12.644  0.00  0.00    +0.000 A 
ATOM     17  C   UNL     1       0.230  27.458  15.332  0.00  0.00    +0.000 A 
ATOM     18  C   UNL     1       3.294  33.387  10.225  0.00  0.00    +0.000 A 
ATOM     19  C   UNL     1      -0.952  26.397  13.521  0.00  0.00    +0.000 A 
ATOM     20  C   UNL     1      -0.604  26.445  14.866  0.00  0.00    +0.000 A 
ENDROOT
TORSDOF 0
ENDMDL
MODEL 5
REMARK VINA RESULT:      -6.5     20.594     21.418
REMARK  Name = Benzo[a]pyrene.pdbqt.pdb
REMARK  0 active torsions:
REMARK  status: ('A' for Active; 'I' for Inactive)
REMARK                            x       y       z     vdW  Elec       q    Type
REMARK                         _______ _______ _______ _____ _____    ______ ____
ROOT
ATOM      1  C   UNL     1      10.313  16.887  30.512  0.00  0.00    +0.000 A 
ATOM      2  C   UNL     1      11.560  16.302  30.197  0.00  0.00    +0.000 A 
ATOM      3  C   UNL     1      10.096  18.267  30.298  0.00  0.00    +0.000 A 
ATOM      4  C   UNL     1       9.288  16.075  31.042  0.00  0.00    +0.000 A 
ATOM      5  C   UNL     1       8.836  18.827  30.623  0.00  0.00    +0.000 A 
ATOM      6  C   UNL     1      12.598  17.095  29.666  0.00  0.00    +0.000 A 
ATOM      7  C   UNL     1      11.771  14.924  30.412  0.00  0.00    +0.000 A 
ATOM      8  C   UNL     1       7.822  17.996  31.153  0.00  0.00    +0.000 A 
ATOM      9  C   UNL     1       8.056  16.639  31.356  0.00  0.00    +0.000 A 
ATOM     10  C   UNL     1      11.153  19.027  29.767  0.00  0.00    +0.000 A 
ATOM     11  C   UNL     1       9.511  14.715  31.249  0.00  0.00    +0.000 A 
ATOM     12  C   UNL     1      12.385  18.454  29.455  0.00  0.00    +0.000 A 
ATOM     13  C   UNL     1      10.744  14.142  30.937  0.00  0.00    +0.000 A 
ATOM     14  C   UNL     1      13.825  16.509  29.359  0.00  0.00    +0.000 A 
ATOM     15  C   UNL     1      13.006  14.357  30.098  0.00  0.00    +0.000 A 
ATOM     16  C   UNL     1       8.542  20.188  30.440  0.00  0.00    +0.000 A 
ATOM     17  C   UNL     1       6.574  18.526  31.479  0.00  0.00    +0.000 A 
ATOM     18  C   UNL     1      14.029  15.147  29.574  0.00  0.00    +0.000 A 
ATOM     19  C   UNL     1       7.294  20.712  30.768  0.00  0.00    +0.000 A 
ATOM     20  C   UNL     1       6.309  19.880  31.288  0.00  0.00    +0.000 A 
ENDROOT
TORSDOF 0
ENDMDL
MODEL 6
REMARK VINA RESULT:      -6.5     23.855     26.736
REMARK  Name = Benzo[a]pyrene.pdbqt.pdb
REMARK  0 active torsions:
REMARK  status: ('A' for Active; 'I' for Inactive)
REMARK                            x       y       z     vdW  Elec       q    Type
REMARK                         _______ _______ _______ _____ _____    ______ ____
ROOT
ATOM      1  C   UNL     1      21.647  27.793   4.555  0.00  0.00    +0.000 A 
ATOM      2  C   UNL     1      20.437  27.867   3.830  0.00  0.00    +0.000 A 
ATOM      3  C   UNL     1      22.667  26.901   4.155  0.00  0.00    +0.000 A 
ATOM      4  C   UNL     1      21.823  28.622   5.684  0.00  0.00    +0.000 A 
ATOM      5  C   UNL     1      23.870  26.847   4.901  0.00  0.00    +0.000 A 
ATOM      6  C   UNL     1      20.240  27.049   2.700  0.00  0.00    +0.000 A 
ATOM      7  C   UNL     1      19.422  28.760   4.234  0.00  0.00    +0.000 A 
ATOM      8  C   UNL     1      24.027  27.686   6.028  0.00  0.00    +0.000 A 
ATOM      9  C   UNL     1      23.010  28.558   6.406  0.00  0.00    +0.000 A 
ATOM     10  C   UNL     1      22.436  26.099   3.023  0.00  0.00    +0.000 A 
ATOM     11  C   UNL     1      20.811  29.499   6.071  0.00  0.00    +0.000 A 
ATOM     12  C   UNL     1      21.243  26.169   2.305  0.00  0.00    +0.000 A 
ATOM     13  C   UNL     1      19.619  29.569   5.352  0.00  0.00    +0.000 A 
ATOM     14  C   UNL     1      19.042  27.129   1.990  0.00  0.00    +0.000 A 
ATOM     15  C   UNL     1      18.231  28.825   3.511  0.00  0.00    +0.000 A 
ATOM     16  C   UNL     1      24.930  25.988   4.568  0.00  0.00    +0.000 A 
ATOM     17  C   UNL     1      25.203  27.650   6.776  0.00  0.00    +0.000 A 
ATOM     18  C   UNL     1      18.042  28.013   2.394  0.00  0.00    +0.000 A 
ATOM     19  C   UNL     1      26.102  25.956   5.319  0.00  0.00    +0.000 A 
ATOM     20  C   UNL     1      26.239  26.788   6.424  0.00  0.00    +0.000 A 
ENDROOT
TORSDOF 0
ENDMDL
MODEL 7
REMARK VINA RESULT:      -6.4     24.012     26.691
REMARK  Name = Benzo[a]pyrene.pdbqt.pdb
REMARK  0 active torsions:
REMARK  status: ('A' for Active; 'I' for Inactive)
REMARK                            x       y       z     vdW  Elec       q    Type
REMARK                         _______ _______ _______ _____ _____    ______ ____
ROOT
ATOM      1  C   UNL     1      21.692  27.734   4.441  0.00  0.00    +0.000 A 
ATOM      2  C   UNL     1      21.077  28.791   5.149  0.00  0.00    +0.000 A 
ATOM      3  C   UNL     1      22.994  27.306   4.784  0.00  0.00    +0.000 A 
ATOM      4  C   UNL     1      20.989  27.112   3.387  0.00  0.00    +0.000 A 
ATOM      5  C   UNL     1      23.586  26.244   4.057  0.00  0.00    +0.000 A 
ATOM      6  C   UNL     1      21.762  29.426   6.204  0.00  0.00    +0.000 A 
ATOM      7  C   UNL     1      19.777  29.214   4.801  0.00  0.00    +0.000 A 
ATOM      8  C   UNL     1      22.865  25.634   3.005  0.00  0.00    +0.000 A 
ATOM      9  C   UNL     1      21.583  26.071   2.682  0.00  0.00    +0.000 A 
ATOM     10  C   UNL     1      23.648  27.961   5.842  0.00  0.00    +0.000 A 
ATOM     11  C   UNL     1      19.705  27.542   3.056  0.00  0.00    +0.000 A 
ATOM     12  C   UNL     1      23.045  29.005   6.543  0.00  0.00    +0.000 A 
ATOM     13  C   UNL     1      19.102  28.585   3.757  0.00  0.00    +0.000 A 
ATOM     14  C   UNL     1      21.147  30.468   6.897  0.00  0.00    +0.000 A 
ATOM     15  C   UNL     1      19.180  30.259   5.507  0.00  0.00    +0.000 A 
ATOM     16  C   UNL     1      24.876  25.761   4.337  0.00  0.00    +0.000 A 
ATOM     17  C   UNL     1      23.429  24.587   2.277  0.00  0.00    +0.000 A 
ATOM     18  C   UNL     1      19.862  30.883   6.551  0.00  0.00    +0.000 A 
ATOM     19  C   UNL     1      25.433  24.714   3.605  0.00  0.00    +0.000 A 
ATOM     20  C   UNL     1      24.709  24.127   2.575  0.00  0.00    +0.000 A 
ENDROOT
TORSDOF 0
ENDMDL
MODEL 8
REMARK VINA RESULT:      -6.3     32.523     33.623
REMARK  Name = Benzo[a]pyrene.pdbqt.pdb
REMARK  0 active torsions:
REMARK  status: ('A' for Active; 'I' for Inactive)
REMARK                            x       y       z     vdW  Elec       q    Type
REMARK                         _______ _______ _______ _____ _____    ______ ____
ROOT
ATOM      1  C   UNL     1      12.790  -2.975  25.763  0.00  0.00    +0.000 A 
ATOM      2  C   UNL     1      13.005  -2.350  27.011  0.00  0.00    +0.000 A 
ATOM      3  C   UNL     1      13.334  -2.420  24.582  0.00  0.00    +0.000 A 
ATOM      4  C   UNL     1      12.026  -4.160  25.710  0.00  0.00    +0.000 A 
ATOM      5  C   UNL     1      13.102  -3.068  23.344  0.00  0.00    +0.000 A 
ATOM      6  C   UNL     1      13.766  -1.166  27.086  0.00  0.00    +0.000 A 
ATOM      7  C   UNL     1      12.460  -2.908  28.186  0.00  0.00    +0.000 A 
ATOM      8  C   UNL     1      12.333  -4.254  23.313  0.00  0.00    +0.000 A 
ATOM      9  C   UNL     1      11.806  -4.785  24.487  0.00  0.00    +0.000 A 
ATOM     10  C   UNL     1      14.087  -1.238  24.693  0.00  0.00    +0.000 A 
ATOM     11  C   UNL     1      11.493  -4.700  26.880  0.00  0.00    +0.000 A 
ATOM     12  C   UNL     1      14.302  -0.618  25.923  0.00  0.00    +0.000 A 
ATOM     13  C   UNL     1      11.708  -4.079  28.110  0.00  0.00    +0.000 A 
ATOM     14  C   UNL     1      13.973  -0.555  28.322  0.00  0.00    +0.000 A 
ATOM     15  C   UNL     1      12.679  -2.282  29.413  0.00  0.00    +0.000 A 
ATOM     16  C   UNL     1      13.607  -2.580  22.127  0.00  0.00    +0.000 A 
ATOM     17  C   UNL     1      12.093  -4.909  22.105  0.00  0.00    +0.000 A 
ATOM     18  C   UNL     1      13.432  -1.111  29.481  0.00  0.00    +0.000 A 
ATOM     19  C   UNL     1      13.363  -3.238  20.924  0.00  0.00    +0.000 A 
ATOM     20  C   UNL     1      12.606  -4.403  20.913  0.00  0.00    +0.000 A 
ENDROOT
TORSDOF 0
ENDMDL
MODEL 9
REMARK VINA RESULT:      -6.3     23.933     26.987
REMARK  Name = Benzo[a]pyrene.pdbqt.pdb
REMARK  0 active torsions:
REMARK  status: ('A' for Active; 'I' for Inactive)
REMARK                            x       y       z     vdW  Elec       q    Type
REMARK                         _______ _______ _______ _____ _____    ______ ____
ROOT
ATOM      1  C   UNL     1      21.649  27.151   3.753  0.00  0.00    +0.000 A 
ATOM      2  C   UNL     1      20.419  27.841   3.676  0.00  0.00    +0.000 A 
ATOM      3  C   UNL     1      22.613  27.513   4.720  0.00  0.00    +0.000 A 
ATOM      4  C   UNL     1      21.902  26.095   2.851  0.00  0.00    +0.000 A 
ATOM      5  C   UNL     1      23.838  26.803   4.775  0.00  0.00    +0.000 A 
ATOM      6  C   UNL     1      20.146  28.899   4.566  0.00  0.00    +0.000 A 
ATOM      7  C   UNL     1      19.460  27.475   2.708  0.00  0.00    +0.000 A 
ATOM      8  C   UNL     1      24.072  25.749   3.863  0.00  0.00    +0.000 A 
ATOM      9  C   UNL     1      23.109  25.407   2.917  0.00  0.00    +0.000 A 
ATOM     10  C   UNL     1      22.308  28.572   5.592  0.00  0.00    +0.000 A 
ATOM     11  C   UNL     1      20.945  25.745   1.900  0.00  0.00    +0.000 A 
ATOM     12  C   UNL     1      21.095  29.257   5.520  0.00  0.00    +0.000 A 
ATOM     13  C   UNL     1      19.732  26.429   1.828  0.00  0.00    +0.000 A 
ATOM     14  C   UNL     1      18.930  29.575   4.483  0.00  0.00    +0.000 A 
ATOM     15  C   UNL     1      18.250  28.164   2.641  0.00  0.00    +0.000 A 
ATOM     16  C   UNL     1      24.846  27.103   5.707  0.00  0.00    +0.000 A 
ATOM     17  C   UNL     1      25.270  25.037   3.899  0.00  0.00    +0.000 A 
ATOM     18  C   UNL     1      17.985  29.209   3.525  0.00  0.00    +0.000 A 
ATOM     19  C   UNL     1      26.041  26.388   5.738  0.00  0.00    +0.000 A 
ATOM     20  C   UNL     1      26.253  25.354   4.833  0.00  0.00    +0.000 A 
ENDROOT
TORSDOF 0
ENDMDL
