MODEL 1
REMARK VINA RESULT:      -6.4      0.000      0.000
REMARK  Name = Bicalutamide.pdbqt.pdb
REMARK  8 active torsions:
REMARK  status: ('A' for Active; 'I' for Inactive)
REMARK    1  A    between atoms: C_2  and  N_13
REMARK    2  A    between atoms: C_5  and  C_9
REMARK    3  A    between atoms: C_6  and  C_8
REMARK    4  A    between atoms: C_14  and  C_17
REMARK    5  A    between atoms: C_17  and  O_19
REMARK    6  A    between atoms: C_17  and  C_21
REMARK    7  A    between atoms: C_21  and  S_22
REMARK    8  A    between atoms: S_22  and  C_25
REMARK                            x       y       z     vdW  Elec       q    Type
REMARK                         _______ _______ _______ _____ _____    ______ ____
ROOT
ATOM      1  N   UNL     1      29.665  17.899  17.029  0.00  0.00    +0.000 N 
ATOM      2  C   UNL     1      28.993  18.686  17.961  0.00  0.00    +0.000 C 
ATOM      3  O   UNL     1      28.000  18.323  18.601  0.00  0.00    +0.000 OA
ATOM      4  H   UNL     1      30.530  18.284  16.647  0.00  0.00    +0.000 HD
ENDROOT
BRANCH   1   5
ATOM      5  C   UNL     1      29.307  16.599  16.635  0.00  0.00    +0.000 A 
ATOM      6  C   UNL     1      28.698  16.442  15.391  0.00  0.00    +0.000 A 
ATOM      7  C   UNL     1      29.523  15.480  17.433  0.00  0.00    +0.000 A 
ATOM      8  C   UNL     1      28.303  15.181  14.929  0.00  0.00    +0.000 A 
ATOM      9  C   UNL     1      28.528  14.061  15.743  0.00  0.00    +0.000 A 
ATOM     10  C   UNL     1      29.136  14.217  16.990  0.00  0.00    +0.000 A 
BRANCH   8  11
ATOM     11  C   UNL     1      27.652  15.069  13.582  0.00  0.00    +0.000 C 
ATOM     12  F   UNL     1      26.461  14.408  13.613  0.00  0.00    +0.000 F 
ATOM     13  F   UNL     1      27.386  16.283  13.032  0.00  0.00    +0.000 F 
ATOM     14  F   UNL     1      28.424  14.399  12.686  0.00  0.00    +0.000 F 
ENDBRANCH   8  11
BRANCH   9  16
ATOM     15  N   UNL     1      27.838  11.673  15.012  0.00  0.00    +0.000 NA
ATOM     16  C   UNL     1      28.154  12.738  15.342  0.00  0.00    +0.000 C 
ENDBRANCH   9  16
ENDBRANCH   1   5
BRANCH   2  17
ATOM     17  C   UNL     1      29.560  20.152  18.140  0.00  0.00    +0.000 C 
ATOM     18  C   UNL     1      30.999  20.134  18.728  0.00  0.00    +0.000 C 
BRANCH  17  19
ATOM     19  O   UNL     1      28.749  20.886  19.043  0.00  0.00    +0.000 OA
ATOM     20  H   UNL     1      29.348  21.125  19.775  0.00  0.00    +0.000 HD
ENDBRANCH  17  19
BRANCH  17  21
ATOM     21  C   UNL     1      29.535  20.797  16.864  0.00  0.00    +0.000 C 
BRANCH  21  22
ATOM     22  S   UNL     1      29.282  21.548  15.331  0.00  0.00    +0.000 S 
ATOM     23  O   UNL     1      28.077  20.848  14.964  0.00  0.00    +0.000 OA
ATOM     24  O   UNL     1      30.599  21.291  14.801  0.00  0.00    +0.000 OA
BRANCH  22  25
ATOM     25  C   UNL     1      29.000  23.240  15.565  0.00  0.00    +0.000 A 
ATOM     26  C   UNL     1      28.642  23.676  16.837  0.00  0.00    +0.000 A 
ATOM     27  C   UNL     1      28.387  25.028  17.045  0.00  0.00    +0.000 A 
ATOM     28  C   UNL     1      28.491  25.916  15.977  0.00  0.00    +0.000 A 
ATOM     29  F   UNL     1      28.246  27.218  16.177  0.00  0.00    +0.000 F 
ATOM     30  C   UNL     1      28.843  25.474  14.704  0.00  0.00    +0.000 A 
ATOM     31  C   UNL     1      29.097  24.123  14.494  0.00  0.00    +0.000 A 
ENDBRANCH  22  25
ENDBRANCH  21  22
ENDBRANCH  17  21
ENDBRANCH   2  17
TORSDOF 8
ENDMDL
MODEL 2
REMARK VINA RESULT:      -6.3     26.943     28.887
REMARK  Name = Bicalutamide.pdbqt.pdb
REMARK  8 active torsions:
REMARK  status: ('A' for Active; 'I' for Inactive)
REMARK    1  A    between atoms: C_2  and  N_13
REMARK    2  A    between atoms: C_5  and  C_9
REMARK    3  A    between atoms: C_6  and  C_8
REMARK    4  A    between atoms: C_14  and  C_17
REMARK    5  A    between atoms: C_17  and  O_19
REMARK    6  A    between atoms: C_17  and  C_21
REMARK    7  A    between atoms: C_21  and  S_22
REMARK    8  A    between atoms: S_22  and  C_25
REMARK                            x       y       z     vdW  Elec       q    Type
REMARK                         _______ _______ _______ _____ _____    ______ ____
ROOT
ATOM      1  N   UNL     1       1.560  15.304   7.209  0.00  0.00    +0.000 N 
ATOM      2  C   UNL     1       1.714  15.882   8.467  0.00  0.00    +0.000 C 
ATOM      3  O   UNL     1       2.770  16.357   8.897  0.00  0.00    +0.000 OA
ATOM      4  H   UNL     1       0.610  15.043   6.942  0.00  0.00    +0.000 HD
ENDROOT
BRANCH   1   5
ATOM      5  C   UNL     1       2.573  15.129   6.252  0.00  0.00    +0.000 A 
ATOM      6  C   UNL     1       2.427  15.775   5.026  0.00  0.00    +0.000 A 
ATOM      7  C   UNL     1       3.694  14.335   6.474  0.00  0.00    +0.000 A 
ATOM      8  C   UNL     1       3.388  15.643   4.016  0.00  0.00    +0.000 A 
ATOM      9  C   UNL     1       4.515  14.842   4.253  0.00  0.00    +0.000 A 
ATOM     10  C   UNL     1       4.660  14.192   5.480  0.00  0.00    +0.000 A 
BRANCH   8  11
ATOM     11  C   UNL     1       3.182  16.361   2.714  0.00  0.00    +0.000 C 
ATOM     12  F   UNL     1       2.923  15.523   1.673  0.00  0.00    +0.000 F 
ATOM     13  F   UNL     1       2.136  17.228   2.762  0.00  0.00    +0.000 F 
ATOM     14  F   UNL     1       4.270  17.087   2.344  0.00  0.00    +0.000 F 
ENDBRANCH   8  11
BRANCH   9  16
ATOM     15  N   UNL     1       6.362  14.509   2.468  0.00  0.00    +0.000 NA
ATOM     16  C   UNL     1       5.541  14.656   3.273  0.00  0.00    +0.000 C 
ENDBRANCH   9  16
ENDBRANCH   1   5
BRANCH   2  17
ATOM     17  C   UNL     1       0.423  15.862   9.381  0.00  0.00    +0.000 C 
ATOM     18  C   UNL     1      -0.763  16.605   8.702  0.00  0.00    +0.000 C 
BRANCH  17  19
ATOM     19  O   UNL     1       0.680  16.521  10.611  0.00  0.00    +0.000 OA
ATOM     20  H   UNL     1      -0.006  17.213  10.668  0.00  0.00    +0.000 HD
ENDBRANCH  17  19
BRANCH  17  21
ATOM     21  C   UNL     1       0.088  14.497   9.647  0.00  0.00    +0.000 C 
BRANCH  21  22
ATOM     22  S   UNL     1      -0.096  12.818   9.996  0.00  0.00    +0.000 S 
ATOM     23  O   UNL     1      -0.713  12.424   8.754  0.00  0.00    +0.000 OA
ATOM     24  O   UNL     1      -0.777  12.983  11.257  0.00  0.00    +0.000 OA
BRANCH  22  25
ATOM     25  C   UNL     1       1.468  12.102  10.195  0.00  0.00    +0.000 A 
ATOM     26  C   UNL     1       1.760  11.496  11.413  0.00  0.00    +0.000 A 
ATOM     27  C   UNL     1       3.019  10.933  11.606  0.00  0.00    +0.000 A 
ATOM     28  C   UNL     1       3.959  10.993  10.581  0.00  0.00    +0.000 A 
ATOM     29  F   UNL     1       5.171  10.451  10.767  0.00  0.00    +0.000 F 
ATOM     30  C   UNL     1       3.664  11.607   9.366  0.00  0.00    +0.000 A 
ATOM     31  C   UNL     1       2.407  12.170   9.172  0.00  0.00    +0.000 A 
ENDBRANCH  22  25
ENDBRANCH  21  22
ENDBRANCH  17  21
ENDBRANCH   2  17
TORSDOF 8
ENDMDL
MODEL 3
REMARK VINA RESULT:      -6.2     24.631     25.676
REMARK  Name = Bicalutamide.pdbqt.pdb
REMARK  8 active torsions:
REMARK  status: ('A' for Active; 'I' for Inactive)
REMARK    1  A    between atoms: C_2  and  N_13
REMARK    2  A    between atoms: C_5  and  C_9
REMARK    3  A    between atoms: C_6  and  C_8
REMARK    4  A    between atoms: C_14  and  C_17
REMARK    5  A    between atoms: C_17  and  O_19
REMARK    6  A    between atoms: C_17  and  C_21
REMARK    7  A    between atoms: C_21  and  S_22
REMARK    8  A    between atoms: S_22  and  C_25
REMARK                            x       y       z     vdW  Elec       q    Type
REMARK                         _______ _______ _______ _____ _____    ______ ____
ROOT
ATOM      1  N   UNL     1       6.418  22.749  31.115  0.00  0.00    +0.000 N 
ATOM      2  C   UNL     1       5.459  23.336  30.294  0.00  0.00    +0.000 C 
ATOM      3  O   UNL     1       4.726  22.716  29.517  0.00  0.00    +0.000 OA
ATOM      4  H   UNL     1       6.885  23.366  31.782  0.00  0.00    +0.000 HD
ENDROOT
BRANCH   1   5
ATOM      5  C   UNL     1       6.738  21.383  31.166  0.00  0.00    +0.000 A 
ATOM      6  C   UNL     1       8.038  21.007  30.832  0.00  0.00    +0.000 A 
ATOM      7  C   UNL     1       5.816  20.402  31.518  0.00  0.00    +0.000 A 
ATOM      8  C   UNL     1       8.434  19.664  30.849  0.00  0.00    +0.000 A 
ATOM      9  C   UNL     1       7.495  18.686  31.209  0.00  0.00    +0.000 A 
ATOM     10  C   UNL     1       6.191  19.061  31.540  0.00  0.00    +0.000 A 
BRANCH   8  11
ATOM     11  C   UNL     1       9.846  19.315  30.482  0.00  0.00    +0.000 C 
ATOM     12  F   UNL     1      10.635  20.407  30.279  0.00  0.00    +0.000 F 
ATOM     13  F   UNL     1      10.466  18.584  31.446  0.00  0.00    +0.000 F 
ATOM     14  F   UNL     1       9.920  18.587  29.336  0.00  0.00    +0.000 F 
ENDBRANCH   8  11
BRANCH   9  16
ATOM     15  N   UNL     1       8.099  16.168  31.284  0.00  0.00    +0.000 NA
ATOM     16  C   UNL     1       7.820  17.293  31.250  0.00  0.00    +0.000 C 
ENDBRANCH   9  16
ENDBRANCH   1   5
BRANCH   2  17
ATOM     17  C   UNL     1       5.377  24.914  30.372  0.00  0.00    +0.000 C 
ATOM     18  C   UNL     1       4.580  25.377  31.625  0.00  0.00    +0.000 C 
BRANCH  17  19
ATOM     19  O   UNL     1       4.704  25.429  29.234  0.00  0.00    +0.000 OA
ATOM     20  H   UNL     1       4.864  24.769  28.533  0.00  0.00    +0.000 HD
ENDBRANCH  17  19
BRANCH  17  21
ATOM     21  C   UNL     1       6.712  25.428  30.394  0.00  0.00    +0.000 C 
BRANCH  21  22
ATOM     22  S   UNL     1       8.349  25.943  30.225  0.00  0.00    +0.000 S 
ATOM     23  O   UNL     1       8.985  24.745  30.711  0.00  0.00    +0.000 OA
ATOM     24  O   UNL     1       8.212  27.178  30.958  0.00  0.00    +0.000 OA
BRANCH  22  25
ATOM     25  C   UNL     1       8.689  26.222  28.550  0.00  0.00    +0.000 A 
ATOM     26  C   UNL     1       9.540  27.271  28.220  0.00  0.00    +0.000 A 
ATOM     27  C   UNL     1       9.811  27.529  26.879  0.00  0.00    +0.000 A 
ATOM     28  C   UNL     1       9.221  26.737  25.897  0.00  0.00    +0.000 A 
ATOM     29  F   UNL     1       9.482  26.986  24.607  0.00  0.00    +0.000 F 
ATOM     30  C   UNL     1       8.364  25.692  26.233  0.00  0.00    +0.000 A 
ATOM     31  C   UNL     1       8.092  25.433  27.572  0.00  0.00    +0.000 A 
ENDBRANCH  22  25
ENDBRANCH  21  22
ENDBRANCH  17  21
ENDBRANCH   2  17
TORSDOF 8
ENDMDL
MODEL 4
REMARK VINA RESULT:      -6.1      1.947      2.441
REMARK  Name = Bicalutamide.pdbqt.pdb
REMARK  8 active torsions:
REMARK  status: ('A' for Active; 'I' for Inactive)
REMARK    1  A    between atoms: C_2  and  N_13
REMARK    2  A    between atoms: C_5  and  C_9
REMARK    3  A    between atoms: C_6  and  C_8
REMARK    4  A    between atoms: C_14  and  C_17
REMARK    5  A    between atoms: C_17  and  O_19
REMARK    6  A    between atoms: C_17  and  C_21
REMARK    7  A    between atoms: C_21  and  S_22
REMARK    8  A    between atoms: S_22  and  C_25
REMARK                            x       y       z     vdW  Elec       q    Type
REMARK                         _______ _______ _______ _____ _____    ______ ____
ROOT
ATOM      1  N   UNL     1      29.398  17.889  16.704  0.00  0.00    +0.000 N 
ATOM      2  C   UNL     1      28.949  18.575  17.830  0.00  0.00    +0.000 C 
ATOM      3  O   UNL     1      28.222  18.091  18.704  0.00  0.00    +0.000 OA
ATOM      4  H   UNL     1      30.074  18.376  16.115  0.00  0.00    +0.000 HD
ENDROOT
BRANCH   1   5
ATOM      5  C   UNL     1      29.070  16.569  16.357  0.00  0.00    +0.000 A 
ATOM      6  C   UNL     1      29.522  15.547  17.191  0.00  0.00    +0.000 A 
ATOM      7  C   UNL     1      28.333  16.245  15.223  0.00  0.00    +0.000 A 
ATOM      8  C   UNL     1      29.246  14.203  16.909  0.00  0.00    +0.000 A 
ATOM      9  C   UNL     1      28.499  13.891  15.763  0.00  0.00    +0.000 A 
ATOM     10  C   UNL     1      28.048  14.914  14.927  0.00  0.00    +0.000 A 
BRANCH   8  11
ATOM     11  C   UNL     1      29.756  13.143  17.840  0.00  0.00    +0.000 C 
ATOM     12  F   UNL     1      30.605  12.263  17.239  0.00  0.00    +0.000 F 
ATOM     13  F   UNL     1      30.444  13.664  18.890  0.00  0.00    +0.000 F 
ATOM     14  F   UNL     1      28.755  12.390  18.368  0.00  0.00    +0.000 F 
ENDBRANCH   8  11
BRANCH   9  16
ATOM     15  N   UNL     1      27.909  11.456  15.104  0.00  0.00    +0.000 NA
ATOM     16  C   UNL     1      28.175  12.544  15.406  0.00  0.00    +0.000 C 
ENDBRANCH   9  16
ENDBRANCH   1   5
BRANCH   2  17
ATOM     17  C   UNL     1      29.398  20.090  17.922  0.00  0.00    +0.000 C 
ATOM     18  C   UNL     1      30.850  20.218  18.464  0.00  0.00    +0.000 C 
BRANCH  17  19
ATOM     19  O   UNL     1      28.554  20.800  18.814  0.00  0.00    +0.000 OA
ATOM     20  H   UNL     1      29.160  21.367  19.328  0.00  0.00    +0.000 HD
ENDBRANCH  17  19
BRANCH  17  21
ATOM     21  C   UNL     1      29.284  20.666  16.617  0.00  0.00    +0.000 C 
BRANCH  21  22
ATOM     22  S   UNL     1      29.206  21.554  15.140  0.00  0.00    +0.000 S 
ATOM     23  O   UNL     1      28.007  20.954  14.611  0.00  0.00    +0.000 OA
ATOM     24  O   UNL     1      30.551  21.270  14.704  0.00  0.00    +0.000 OA
BRANCH  22  25
ATOM     25  C   UNL     1      28.984  23.234  15.496  0.00  0.00    +0.000 A 
ATOM     26  C   UNL     1      28.628  23.588  16.793  0.00  0.00    +0.000 A 
ATOM     27  C   UNL     1      28.422  24.931  17.098  0.00  0.00    +0.000 A 
ATOM     28  C   UNL     1      28.570  25.889  16.099  0.00  0.00    +0.000 A 
ATOM     29  F   UNL     1      28.371  27.181  16.393  0.00  0.00    +0.000 F 
ATOM     30  C   UNL     1      28.919  25.529  14.800  0.00  0.00    +0.000 A 
ATOM     31  C   UNL     1      29.126  24.189  14.494  0.00  0.00    +0.000 A 
ENDBRANCH  22  25
ENDBRANCH  21  22
ENDBRANCH  17  21
ENDBRANCH   2  17
TORSDOF 8
ENDMDL
MODEL 5
REMARK VINA RESULT:      -5.8     22.778     24.844
REMARK  Name = Bicalutamide.pdbqt.pdb
REMARK  8 active torsions:
REMARK  status: ('A' for Active; 'I' for Inactive)
REMARK    1  A    between atoms: C_2  and  N_13
REMARK    2  A    between atoms: C_5  and  C_9
REMARK    3  A    between atoms: C_6  and  C_8
REMARK    4  A    between atoms: C_14  and  C_17
REMARK    5  A    between atoms: C_17  and  O_19
REMARK    6  A    between atoms: C_17  and  C_21
REMARK    7  A    between atoms: C_21  and  S_22
REMARK    8  A    between atoms: S_22  and  C_25
REMARK                            x       y       z     vdW  Elec       q    Type
REMARK                         _______ _______ _______ _____ _____    ______ ____
ROOT
ATOM      1  N   UNL     1       9.717  20.736  31.106  0.00  0.00    +0.000 N 
ATOM      2  C   UNL     1      10.565  20.866  32.203  0.00  0.00    +0.000 C 
ATOM      3  O   UNL     1      10.535  21.804  33.007  0.00  0.00    +0.000 OA
ATOM      4  H   UNL     1       9.781  19.862  30.582  0.00  0.00    +0.000 HD
ENDROOT
BRANCH   1   5
ATOM      5  C   UNL     1       8.733  21.656  30.710  0.00  0.00    +0.000 A 
ATOM      6  C   UNL     1       9.146  22.787  30.007  0.00  0.00    +0.000 A 
ATOM      7  C   UNL     1       7.382  21.491  30.999  0.00  0.00    +0.000 A 
ATOM      8  C   UNL     1       8.228  23.756  29.585  0.00  0.00    +0.000 A 
ATOM      9  C   UNL     1       6.869  23.576  29.882  0.00  0.00    +0.000 A 
ATOM     10  C   UNL     1       6.455  22.445  30.587  0.00  0.00    +0.000 A 
BRANCH   8  11
ATOM     11  C   UNL     1       8.727  24.954  28.832  0.00  0.00    +0.000 C 
ATOM     12  F   UNL     1       8.375  26.137  29.409  0.00  0.00    +0.000 F 
ATOM     13  F   UNL     1      10.083  24.978  28.736  0.00  0.00    +0.000 F 
ATOM     14  F   UNL     1       8.248  25.005  27.561  0.00  0.00    +0.000 F 
ENDBRANCH   8  11
BRANCH   9  16
ATOM     15  N   UNL     1       5.050  25.279  29.173  0.00  0.00    +0.000 NA
ATOM     16  C   UNL     1       5.869  24.521  29.485  0.00  0.00    +0.000 C 
ENDBRANCH   9  16
ENDBRANCH   1   5
BRANCH   2  17
ATOM     17  C   UNL     1      11.649  19.723  32.358  0.00  0.00    +0.000 C 
ATOM     18  C   UNL     1      11.231  18.690  33.442  0.00  0.00    +0.000 C 
BRANCH  17  19
ATOM     19  O   UNL     1      12.891  20.275  32.763  0.00  0.00    +0.000 OA
ATOM     20  H   UNL     1      13.509  20.046  32.043  0.00  0.00    +0.000 HD
ENDBRANCH  17  19
BRANCH  17  21
ATOM     21  C   UNL     1      11.814  19.093  31.084  0.00  0.00    +0.000 C 
BRANCH  21  22
ATOM     22  S   UNL     1      12.226  18.398  29.560  0.00  0.00    +0.000 S 
ATOM     23  O   UNL     1      13.425  19.158  29.314  0.00  0.00    +0.000 OA
ATOM     24  O   UNL     1      10.948  18.615  28.927  0.00  0.00    +0.000 OA
BRANCH  22  25
ATOM     25  C   UNL     1      12.562  16.713  29.774  0.00  0.00    +0.000 A 
ATOM     26  C   UNL     1      13.716  16.196  29.193  0.00  0.00    +0.000 A 
ATOM     27  C   UNL     1      13.996  14.840  29.332  0.00  0.00    +0.000 A 
ATOM     28  C   UNL     1      13.116  14.028  30.042  0.00  0.00    +0.000 A 
ATOM     29  F   UNL     1      13.386  12.722  30.174  0.00  0.00    +0.000 F 
ATOM     30  C   UNL     1      11.958  14.549  30.615  0.00  0.00    +0.000 A 
ATOM     31  C   UNL     1      11.676  15.904  30.478  0.00  0.00    +0.000 A 
ENDBRANCH  22  25
ENDBRANCH  21  22
ENDBRANCH  17  21
ENDBRANCH   2  17
TORSDOF 8
ENDMDL
MODEL 6
REMARK VINA RESULT:      -5.8     24.756     25.818
REMARK  Name = Bicalutamide.pdbqt.pdb
REMARK  8 active torsions:
REMARK  status: ('A' for Active; 'I' for Inactive)
REMARK    1  A    between atoms: C_2  and  N_13
REMARK    2  A    between atoms: C_5  and  C_9
REMARK    3  A    between atoms: C_6  and  C_8
REMARK    4  A    between atoms: C_14  and  C_17
REMARK    5  A    between atoms: C_17  and  O_19
REMARK    6  A    between atoms: C_17  and  C_21
REMARK    7  A    between atoms: C_21  and  S_22
REMARK    8  A    between atoms: S_22  and  C_25
REMARK                            x       y       z     vdW  Elec       q    Type
REMARK                         _______ _______ _______ _____ _____    ______ ____
ROOT
ATOM      1  N   UNL     1       6.969  22.907  31.137  0.00  0.00    +0.000 N 
ATOM      2  C   UNL     1       6.400  23.671  30.121  0.00  0.00    +0.000 C 
ATOM      3  O   UNL     1       6.190  23.268  28.972  0.00  0.00    +0.000 OA
ATOM      4  H   UNL     1       6.992  23.330  32.066  0.00  0.00    +0.000 HD
ENDROOT
BRANCH   1   5
ATOM      5  C   UNL     1       7.433  21.587  31.015  0.00  0.00    +0.000 A 
ATOM      6  C   UNL     1       6.630  20.567  31.523  0.00  0.00    +0.000 A 
ATOM      7  C   UNL     1       8.652  21.264  30.428  0.00  0.00    +0.000 A 
ATOM      8  C   UNL     1       7.026  19.226  31.449  0.00  0.00    +0.000 A 
ATOM      9  C   UNL     1       8.256  18.914  30.852  0.00  0.00    +0.000 A 
ATOM     10  C   UNL     1       9.062  19.936  30.346  0.00  0.00    +0.000 A 
BRANCH   8  11
ATOM     11  C   UNL     1       6.123  18.167  32.011  0.00  0.00    +0.000 C 
ATOM     12  F   UNL     1       4.909  18.646  32.399  0.00  0.00    +0.000 F 
ATOM     13  F   UNL     1       5.862  17.180  31.114  0.00  0.00    +0.000 F 
ATOM     14  F   UNL     1       6.651  17.563  33.108  0.00  0.00    +0.000 F 
ENDBRANCH   8  11
BRANCH   9  16
ATOM     15  N   UNL     1       9.125  16.483  30.635  0.00  0.00    +0.000 NA
ATOM     16  C   UNL     1       8.732  17.569  30.739  0.00  0.00    +0.000 C 
ENDBRANCH   9  16
ENDBRANCH   1   5
BRANCH   2  17
ATOM     17  C   UNL     1       6.056  25.165  30.512  0.00  0.00    +0.000 C 
ATOM     18  C   UNL     1       5.445  25.250  31.940  0.00  0.00    +0.000 C 
BRANCH  17  19
ATOM     19  O   UNL     1       5.096  25.700  29.615  0.00  0.00    +0.000 OA
ATOM     20  H   UNL     1       5.321  26.648  29.550  0.00  0.00    +0.000 HD
ENDBRANCH  17  19
BRANCH  17  21
ATOM     21  C   UNL     1       7.257  25.936  30.421  0.00  0.00    +0.000 C 
BRANCH  21  22
ATOM     22  S   UNL     1       8.721  26.790  30.101  0.00  0.00    +0.000 S 
ATOM     23  O   UNL     1       9.621  25.912  30.803  0.00  0.00    +0.000 OA
ATOM     24  O   UNL     1       8.268  28.078  30.567  0.00  0.00    +0.000 OA
BRANCH  22  25
ATOM     25  C   UNL     1       9.020  26.791  28.395  0.00  0.00    +0.000 A 
ATOM     26  C   UNL     1       9.846  27.782  27.875  0.00  0.00    +0.000 A 
ATOM     27  C   UNL     1      10.083  27.817  26.503  0.00  0.00    +0.000 A 
ATOM     28  C   UNL     1       9.485  26.865  25.681  0.00  0.00    +0.000 A 
ATOM     29  F   UNL     1       9.713  26.900  24.361  0.00  0.00    +0.000 F 
ATOM     30  C   UNL     1       8.653  25.880  26.206  0.00  0.00    +0.000 A 
ATOM     31  C   UNL     1       8.415  25.843  27.576  0.00  0.00    +0.000 A 
ENDBRANCH  22  25
ENDBRANCH  21  22
ENDBRANCH  17  21
ENDBRANCH   2  17
TORSDOF 8
ENDMDL
MODEL 7
REMARK VINA RESULT:      -5.7     27.045     29.347
REMARK  Name = Bicalutamide.pdbqt.pdb
REMARK  8 active torsions:
REMARK  status: ('A' for Active; 'I' for Inactive)
REMARK    1  A    between atoms: C_2  and  N_13
REMARK    2  A    between atoms: C_5  and  C_9
REMARK    3  A    between atoms: C_6  and  C_8
REMARK    4  A    between atoms: C_14  and  C_17
REMARK    5  A    between atoms: C_17  and  O_19
REMARK    6  A    between atoms: C_17  and  C_21
REMARK    7  A    between atoms: C_21  and  S_22
REMARK    8  A    between atoms: S_22  and  C_25
REMARK                            x       y       z     vdW  Elec       q    Type
REMARK                         _______ _______ _______ _____ _____    ______ ____
ROOT
ATOM      1  N   UNL     1       1.469  15.583   7.758  0.00  0.00    +0.000 N 
ATOM      2  C   UNL     1       1.609  16.337   8.920  0.00  0.00    +0.000 C 
ATOM      3  O   UNL     1       2.675  16.515   9.518  0.00  0.00    +0.000 OA
ATOM      4  H   UNL     1       0.551  15.602   7.311  0.00  0.00    +0.000 HD
ENDROOT
BRANCH   1   5
ATOM      5  C   UNL     1       2.491  14.875   7.106  0.00  0.00    +0.000 A 
ATOM      6  C   UNL     1       2.889  15.320   5.846  0.00  0.00    +0.000 A 
ATOM      7  C   UNL     1       3.105  13.754   7.656  0.00  0.00    +0.000 A 
ATOM      8  C   UNL     1       3.895  14.663   5.127  0.00  0.00    +0.000 A 
ATOM      9  C   UNL     1       4.506  13.535   5.694  0.00  0.00    +0.000 A 
ATOM     10  C   UNL     1       4.107  13.087   6.955  0.00  0.00    +0.000 A 
BRANCH   8  11
ATOM     11  C   UNL     1       4.284  15.184   3.775  0.00  0.00    +0.000 C 
ATOM     12  F   UNL     1       3.628  16.327   3.430  0.00  0.00    +0.000 F 
ATOM     13  F   UNL     1       5.609  15.479   3.697  0.00  0.00    +0.000 F 
ATOM     14  F   UNL     1       4.027  14.294   2.781  0.00  0.00    +0.000 F 
ENDBRANCH   8  11
BRANCH   9  16
ATOM     15  N   UNL     1       6.390  12.231   4.483  0.00  0.00    +0.000 NA
ATOM     16  C   UNL     1       5.542  12.809   5.023  0.00  0.00    +0.000 C 
ENDBRANCH   9  16
ENDBRANCH   1   5
BRANCH   2  17
ATOM     17  C   UNL     1       0.267  16.950   9.492  0.00  0.00    +0.000 C 
ATOM     18  C   UNL     1      -0.188  18.186   8.666  0.00  0.00    +0.000 C 
BRANCH  17  19
ATOM     19  O   UNL     1       0.455  17.386  10.829  0.00  0.00    +0.000 OA
ATOM     20  H   UNL     1       0.192  18.326  10.821  0.00  0.00    +0.000 HD
ENDBRANCH  17  19
BRANCH  17  21
ATOM     21  C   UNL     1      -0.732  15.926   9.475  0.00  0.00    +0.000 C 
BRANCH  21  22
ATOM     22  S   UNL     1      -1.771  14.550   9.509  0.00  0.00    +0.000 S 
ATOM     23  O   UNL     1      -2.454  14.786   8.262  0.00  0.00    +0.000 OA
ATOM     24  O   UNL     1      -2.317  14.785  10.823  0.00  0.00    +0.000 OA
BRANCH  22  25
ATOM     25  C   UNL     1      -0.812  13.109   9.457  0.00  0.00    +0.000 A 
ATOM     26  C   UNL     1      -0.361  12.579  10.661  0.00  0.00    +0.000 A 
ATOM     27  C   UNL     1       0.431  11.434  10.645  0.00  0.00    +0.000 A 
ATOM     28  C   UNL     1       0.759  10.847   9.426  0.00  0.00    +0.000 A 
ATOM     29  F   UNL     1       1.521   9.745   9.410  0.00  0.00    +0.000 F 
ATOM     30  C   UNL     1       0.310  11.385   8.222  0.00  0.00    +0.000 A 
ATOM     31  C   UNL     1      -0.481  12.529   8.237  0.00  0.00    +0.000 A 
ENDBRANCH  22  25
ENDBRANCH  21  22
ENDBRANCH  17  21
ENDBRANCH   2  17
TORSDOF 8
ENDMDL
MODEL 8
REMARK VINA RESULT:      -5.7     16.602     19.313
REMARK  Name = Bicalutamide.pdbqt.pdb
REMARK  8 active torsions:
REMARK  status: ('A' for Active; 'I' for Inactive)
REMARK    1  A    between atoms: C_2  and  N_13
REMARK    2  A    between atoms: C_5  and  C_9
REMARK    3  A    between atoms: C_6  and  C_8
REMARK    4  A    between atoms: C_14  and  C_17
REMARK    5  A    between atoms: C_17  and  O_19
REMARK    6  A    between atoms: C_17  and  C_21
REMARK    7  A    between atoms: C_21  and  S_22
REMARK    8  A    between atoms: S_22  and  C_25
REMARK                            x       y       z     vdW  Elec       q    Type
REMARK                         _______ _______ _______ _____ _____    ______ ____
ROOT
ATOM      1  N   UNL     1      18.712  18.434   2.050  0.00  0.00    +0.000 N 
ATOM      2  C   UNL     1      19.570  18.310   0.960  0.00  0.00    +0.000 C 
ATOM      3  O   UNL     1      19.286  18.633  -0.198  0.00  0.00    +0.000 OA
ATOM      4  H   UNL     1      19.107  18.224   2.967  0.00  0.00    +0.000 HD
ENDROOT
BRANCH   1   5
ATOM      5  C   UNL     1      17.387  18.898   2.008  0.00  0.00    +0.000 A 
ATOM      6  C   UNL     1      16.373  17.956   1.843  0.00  0.00    +0.000 A 
ATOM      7  C   UNL     1      17.054  20.245   2.112  0.00  0.00    +0.000 A 
ATOM      8  C   UNL     1      15.028  18.339   1.782  0.00  0.00    +0.000 A 
ATOM      9  C   UNL     1      14.705  19.700   1.890  0.00  0.00    +0.000 A 
ATOM     10  C   UNL     1      15.721  20.645   2.054  0.00  0.00    +0.000 A 
BRANCH   8  11
ATOM     11  C   UNL     1      13.976  17.284   1.604  0.00  0.00    +0.000 C 
ATOM     12  F   UNL     1      13.210  17.471   0.493  0.00  0.00    +0.000 F 
ATOM     13  F   UNL     1      14.508  16.039   1.481  0.00  0.00    +0.000 F 
ATOM     14  F   UNL     1      13.108  17.233   2.648  0.00  0.00    +0.000 F 
ENDBRANCH   8  11
BRANCH   9  16
ATOM     15  N   UNL     1      12.265  20.565   1.805  0.00  0.00    +0.000 NA
ATOM     16  C   UNL     1      13.355  20.172   1.838  0.00  0.00    +0.000 C 
ENDBRANCH   9  16
ENDBRANCH   1   5
BRANCH   2  17
ATOM     17  C   UNL     1      20.979  17.664   1.281  0.00  0.00    +0.000 C 
ATOM     18  C   UNL     1      21.834  18.594   2.187  0.00  0.00    +0.000 C 
BRANCH  17  19
ATOM     19  O   UNL     1      21.710  17.459   0.083  0.00  0.00    +0.000 OA
ATOM     20  H   UNL     1      22.311  18.226   0.026  0.00  0.00    +0.000 HD
ENDBRANCH  17  19
BRANCH  17  21
ATOM     21  C   UNL     1      20.754  16.399   1.910  0.00  0.00    +0.000 C 
BRANCH  21  22
ATOM     22  S   UNL     1      20.555  14.970   2.856  0.00  0.00    +0.000 S 
ATOM     23  O   UNL     1      21.232  15.424   4.044  0.00  0.00    +0.000 OA
ATOM     24  O   UNL     1      21.091  14.050   1.883  0.00  0.00    +0.000 OA
BRANCH  22  25
ATOM     25  C   UNL     1      18.868  14.702   3.136  0.00  0.00    +0.000 A 
ATOM     26  C   UNL     1      18.216  15.524   4.050  0.00  0.00    +0.000 A 
ATOM     27  C   UNL     1      16.865  15.313   4.310  0.00  0.00    +0.000 A 
ATOM     28  C   UNL     1      16.195  14.283   3.655  0.00  0.00    +0.000 A 
ATOM     29  F   UNL     1      14.895  14.081   3.905  0.00  0.00    +0.000 F 
ATOM     30  C   UNL     1      16.853  13.459   2.746  0.00  0.00    +0.000 A 
ATOM     31  C   UNL     1      18.203  13.668   2.485  0.00  0.00    +0.000 A 
ENDBRANCH  22  25
ENDBRANCH  21  22
ENDBRANCH  17  21
ENDBRANCH   2  17
TORSDOF 8
ENDMDL
MODEL 9
REMARK VINA RESULT:      -5.5     28.496     29.655
REMARK  Name = Bicalutamide.pdbqt.pdb
REMARK  8 active torsions:
REMARK  status: ('A' for Active; 'I' for Inactive)
REMARK    1  A    between atoms: C_2  and  N_13
REMARK    2  A    between atoms: C_5  and  C_9
REMARK    3  A    between atoms: C_6  and  C_8
REMARK    4  A    between atoms: C_14  and  C_17
REMARK    5  A    between atoms: C_17  and  O_19
REMARK    6  A    between atoms: C_17  and  C_21
REMARK    7  A    between atoms: C_21  and  S_22
REMARK    8  A    between atoms: S_22  and  C_25
REMARK                            x       y       z     vdW  Elec       q    Type
REMARK                         _______ _______ _______ _____ _____    ______ ____
ROOT
ATOM      1  N   UNL     1       2.876  31.704  13.925  0.00  0.00    +0.000 N 
ATOM      2  C   UNL     1       2.514  33.041  14.065  0.00  0.00    +0.000 C 
ATOM      3  O   UNL     1       1.369  33.479  13.910  0.00  0.00    +0.000 OA
ATOM      4  H   UNL     1       3.835  31.463  14.180  0.00  0.00    +0.000 HD
ENDROOT
BRANCH   1   5
ATOM      5  C   UNL     1       2.025  30.654  13.546  0.00  0.00    +0.000 A 
ATOM      6  C   UNL     1       1.538  29.818  14.551  0.00  0.00    +0.000 A 
ATOM      7  C   UNL     1       1.663  30.410  12.225  0.00  0.00    +0.000 A 
ATOM      8  C   UNL     1       0.691  28.743  14.256  0.00  0.00    +0.000 A 
ATOM      9  C   UNL     1       0.333  28.511  12.919  0.00  0.00    +0.000 A 
ATOM     10  C   UNL     1       0.822  29.345  11.913  0.00  0.00    +0.000 A 
BRANCH   8  11
ATOM     11  C   UNL     1       0.195  27.876  15.375  0.00  0.00    +0.000 C 
ATOM     12  F   UNL     1       0.589  28.308  16.605  0.00  0.00    +0.000 F 
ATOM     13  F   UNL     1      -1.162  27.816  15.421  0.00  0.00    +0.000 F 
ATOM     14  F   UNL     1       0.636  26.594  15.274  0.00  0.00    +0.000 F 
ENDBRANCH   8  11
BRANCH   9  16
ATOM     15  N   UNL     1      -1.221  26.553  12.236  0.00  0.00    +0.000 NA
ATOM     16  C   UNL     1      -0.528  27.433  12.536  0.00  0.00    +0.000 C 
ENDBRANCH   9  16
ENDBRANCH   1   5
BRANCH   2  17
ATOM     17  C   UNL     1       3.702  34.030  14.407  0.00  0.00    +0.000 C 
ATOM     18  C   UNL     1       4.650  33.425  15.480  0.00  0.00    +0.000 C 
BRANCH  17  19
ATOM     19  O   UNL     1       3.194  35.245  14.934  0.00  0.00    +0.000 OA
ATOM     20  H   UNL     1       2.226  35.120  14.953  0.00  0.00    +0.000 HD
ENDBRANCH  17  19
BRANCH  17  21
ATOM     21  C   UNL     1       4.409  34.309  13.195  0.00  0.00    +0.000 C 
BRANCH  21  22
ATOM     22  S   UNL     1       5.199  34.858  11.763  0.00  0.00    +0.000 S 
ATOM     23  O   UNL     1       6.514  34.346  12.054  0.00  0.00    +0.000 OA
ATOM     24  O   UNL     1       4.792  36.238  11.868  0.00  0.00    +0.000 OA
BRANCH  22  25
ATOM     25  C   UNL     1       4.492  34.080  10.388  0.00  0.00    +0.000 A 
ATOM     26  C   UNL     1       5.099  34.259   9.149  0.00  0.00    +0.000 A 
ATOM     27  C   UNL     1       4.536  33.661   8.025  0.00  0.00    +0.000 A 
ATOM     28  C   UNL     1       3.377  32.903   8.161  0.00  0.00    +0.000 A 
ATOM     29  F   UNL     1       2.835  32.329   7.078  0.00  0.00    +0.000 F 
ATOM     30  C   UNL     1       2.768  32.732   9.402  0.00  0.00    +0.000 A 
ATOM     31  C   UNL     1       3.329  33.328  10.527  0.00  0.00    +0.000 A 
ENDBRANCH  22  25
ENDBRANCH  21  22
ENDBRANCH  17  21
ENDBRANCH   2  17
TORSDOF 8
ENDMDL
