MODEL 1
REMARK VINA RESULT:      -5.3      0.000      0.000
REMARK  Name = Bisphenol_A.pdbqt.pdb
REMARK  4 active torsions:
REMARK  status: ('A' for Active; 'I' for Inactive)
REMARK    1  A    between atoms: C_1  and  C_4
REMARK    2  A    between atoms: C_1  and  C_12
REMARK    3  A    between atoms: C_7  and  O_10
REMARK    4  A    between atoms: C_15  and  O_18
REMARK                            x       y       z     vdW  Elec       q    Type
REMARK                         _______ _______ _______ _____ _____    ______ ____
ROOT
ATOM      1  C   UNL     1      10.083  24.163  30.816  0.00  0.00    +0.000 C 
ATOM      2  C   UNL     1      10.818  25.439  31.361  0.00  0.00    +0.000 C 
ATOM      3  C   UNL     1       9.065  23.682  31.911  0.00  0.00    +0.000 C 
ENDROOT
BRANCH   1   4
ATOM      4  C   UNL     1       9.370  24.580  29.521  0.00  0.00    +0.000 A 
ATOM      5  C   UNL     1       8.166  23.955  29.150  0.00  0.00    +0.000 A 
ATOM      6  C   UNL     1       7.502  24.295  27.973  0.00  0.00    +0.000 A 
ATOM      7  C   UNL     1       8.045  25.270  27.145  0.00  0.00    +0.000 A 
ATOM      8  C   UNL     1       9.236  25.903  27.476  0.00  0.00    +0.000 A 
ATOM      9  C   UNL     1       9.892  25.552  28.654  0.00  0.00    +0.000 A 
BRANCH   7  10
ATOM     10  O   UNL     1       7.419  25.631  25.988  0.00  0.00    +0.000 OA
ATOM     11  H   UNL     1       8.096  25.852  25.325  0.00  0.00    +0.000 HD
ENDBRANCH   7  10
ENDBRANCH   1   4
BRANCH   1  12
ATOM     12  C   UNL     1      11.058  23.002  30.575  0.00  0.00    +0.000 A 
ATOM     13  C   UNL     1      10.675  21.685  30.888  0.00  0.00    +0.000 A 
ATOM     14  C   UNL     1      11.540  20.612  30.699  0.00  0.00    +0.000 A 
ATOM     15  C   UNL     1      12.813  20.846  30.193  0.00  0.00    +0.000 A 
ATOM     16  C   UNL     1      13.228  22.134  29.878  0.00  0.00    +0.000 A 
ATOM     17  C   UNL     1      12.354  23.201  30.075  0.00  0.00    +0.000 A 
BRANCH  15  18
ATOM     18  O   UNL     1      13.684  19.817  29.989  0.00  0.00    +0.000 OA
ATOM     19  H   UNL     1      14.464  19.954  30.556  0.00  0.00    +0.000 HD
ENDBRANCH  15  18
ENDBRANCH   1  12
TORSDOF 4
ENDMDL
MODEL 2
REMARK VINA RESULT:      -5.3      2.057      5.688
REMARK  Name = Bisphenol_A.pdbqt.pdb
REMARK  4 active torsions:
REMARK  status: ('A' for Active; 'I' for Inactive)
REMARK    1  A    between atoms: C_1  and  C_4
REMARK    2  A    between atoms: C_1  and  C_12
REMARK    3  A    between atoms: C_7  and  O_10
REMARK    4  A    between atoms: C_15  and  O_18
REMARK                            x       y       z     vdW  Elec       q    Type
REMARK                         _______ _______ _______ _____ _____    ______ ____
ROOT
ATOM      1  C   UNL     1       7.597  25.037  29.429  0.00  0.00    +0.000 C 
ATOM      2  C   UNL     1       6.218  24.545  28.862  0.00  0.00    +0.000 C 
ATOM      3  C   UNL     1       7.313  25.962  30.665  0.00  0.00    +0.000 C 
ENDROOT
BRANCH   1   4
ATOM      4  C   UNL     1       8.388  23.782  29.827  0.00  0.00    +0.000 A 
ATOM      5  C   UNL     1       7.728  22.546  29.947  0.00  0.00    +0.000 A 
ATOM      6  C   UNL     1       8.411  21.391  30.324  0.00  0.00    +0.000 A 
ATOM      7  C   UNL     1       9.772  21.464  30.592  0.00  0.00    +0.000 A 
ATOM      8  C   UNL     1      10.454  22.670  30.491  0.00  0.00    +0.000 A 
ATOM      9  C   UNL     1       9.759  23.818  30.116  0.00  0.00    +0.000 A 
BRANCH   7  10
ATOM     10  O   UNL     1      10.472  20.353  30.959  0.00  0.00    +0.000 OA
ATOM     11  H   UNL     1      10.114  19.587  30.476  0.00  0.00    +0.000 HD
ENDBRANCH   7  10
ENDBRANCH   1   4
BRANCH   1  12
ATOM     12  C   UNL     1       8.364  25.887  28.406  0.00  0.00    +0.000 A 
ATOM     13  C   UNL     1       9.087  27.017  28.831  0.00  0.00    +0.000 A 
ATOM     14  C   UNL     1       9.779  27.819  27.928  0.00  0.00    +0.000 A 
ATOM     15  C   UNL     1       9.752  27.500  26.575  0.00  0.00    +0.000 A 
ATOM     16  C   UNL     1       9.043  26.395  26.119  0.00  0.00    +0.000 A 
ATOM     17  C   UNL     1       8.352  25.602  27.032  0.00  0.00    +0.000 A 
BRANCH  15  18
ATOM     18  O   UNL     1      10.424  28.260  25.664  0.00  0.00    +0.000 OA
ATOM     19  H   UNL     1      10.597  27.717  24.875  0.00  0.00    +0.000 HD
ENDBRANCH  15  18
ENDBRANCH   1  12
TORSDOF 4
ENDMDL
MODEL 3
REMARK VINA RESULT:      -5.0     22.679     24.405
REMARK  Name = Bisphenol_A.pdbqt.pdb
REMARK  4 active torsions:
REMARK  status: ('A' for Active; 'I' for Inactive)
REMARK    1  A    between atoms: C_1  and  C_4
REMARK    2  A    between atoms: C_1  and  C_12
REMARK    3  A    between atoms: C_7  and  O_10
REMARK    4  A    between atoms: C_15  and  O_18
REMARK                            x       y       z     vdW  Elec       q    Type
REMARK                         _______ _______ _______ _____ _____    ______ ____
ROOT
ATOM      1  C   UNL     1      30.158  13.092  17.603  0.00  0.00    +0.000 C 
ATOM      2  C   UNL     1      30.888  11.972  16.781  0.00  0.00    +0.000 C 
ATOM      3  C   UNL     1      31.249  13.934  18.355  0.00  0.00    +0.000 C 
ENDROOT
BRANCH   1   4
ATOM      4  C   UNL     1      29.375  13.946  16.595  0.00  0.00    +0.000 A 
ATOM      5  C   UNL     1      29.397  15.348  16.696  0.00  0.00    +0.000 A 
ATOM      6  C   UNL     1      28.684  16.153  15.809  0.00  0.00    +0.000 A 
ATOM      7  C   UNL     1      27.931  15.555  14.806  0.00  0.00    +0.000 A 
ATOM      8  C   UNL     1      27.879  14.173  14.682  0.00  0.00    +0.000 A 
ATOM      9  C   UNL     1      28.595  13.379  15.576  0.00  0.00    +0.000 A 
BRANCH   7  10
ATOM     10  O   UNL     1      27.225  16.312  13.919  0.00  0.00    +0.000 OA
ATOM     11  H   UNL     1      26.520  15.763  13.534  0.00  0.00    +0.000 HD
ENDBRANCH   7  10
ENDBRANCH   1   4
BRANCH   1  12
ATOM     12  C   UNL     1      29.235  12.500  18.678  0.00  0.00    +0.000 A 
ATOM     13  C   UNL     1      28.777  11.175  18.560  0.00  0.00    +0.000 A 
ATOM     14  C   UNL     1      27.926  10.613  19.508  0.00  0.00    +0.000 A 
ATOM     15  C   UNL     1      27.515  11.379  20.592  0.00  0.00    +0.000 A 
ATOM     16  C   UNL     1      27.942  12.694  20.737  0.00  0.00    +0.000 A 
ATOM     17  C   UNL     1      28.791  13.246  19.781  0.00  0.00    +0.000 A 
BRANCH  15  18
ATOM     18  O   UNL     1      26.686  10.859  21.541  0.00  0.00    +0.000 OA
ATOM     19  H   UNL     1      26.029  10.291  21.101  0.00  0.00    +0.000 HD
ENDBRANCH  15  18
ENDBRANCH   1  12
TORSDOF 4
ENDMDL
MODEL 4
REMARK VINA RESULT:      -4.9     13.395     15.618
REMARK  Name = Bisphenol_A.pdbqt.pdb
REMARK  4 active torsions:
REMARK  status: ('A' for Active; 'I' for Inactive)
REMARK    1  A    between atoms: C_1  and  C_4
REMARK    2  A    between atoms: C_1  and  C_12
REMARK    3  A    between atoms: C_7  and  O_10
REMARK    4  A    between atoms: C_15  and  O_18
REMARK                            x       y       z     vdW  Elec       q    Type
REMARK                         _______ _______ _______ _____ _____    ______ ____
ROOT
ATOM      1  C   UNL     1      23.837  16.142  27.206  0.00  0.00    +0.000 C 
ATOM      2  C   UNL     1      25.301  16.477  27.662  0.00  0.00    +0.000 C 
ATOM      3  C   UNL     1      23.009  15.745  28.479  0.00  0.00    +0.000 C 
ENDROOT
BRANCH   1   4
ATOM      4  C   UNL     1      23.279  17.407  26.536  0.00  0.00    +0.000 A 
ATOM      5  C   UNL     1      23.958  18.632  26.673  0.00  0.00    +0.000 A 
ATOM      6  C   UNL     1      23.471  19.802  26.094  0.00  0.00    +0.000 A 
ATOM      7  C   UNL     1      22.286  19.759  25.370  0.00  0.00    +0.000 A 
ATOM      8  C   UNL     1      21.585  18.569  25.221  0.00  0.00    +0.000 A 
ATOM      9  C   UNL     1      22.081  17.406  25.807  0.00  0.00    +0.000 A 
BRANCH   7  10
ATOM     10  O   UNL     1      21.783  20.884  24.787  0.00  0.00    +0.000 OA
ATOM     11  H   UNL     1      22.373  21.630  24.993  0.00  0.00    +0.000 HD
ENDBRANCH   7  10
ENDBRANCH   1   4
BRANCH   1  12
ATOM     12  C   UNL     1      23.797  14.936  26.256  0.00  0.00    +0.000 A 
ATOM     13  C   UNL     1      22.802  13.953  26.410  0.00  0.00    +0.000 A 
ATOM     14  C   UNL     1      22.747  12.838  25.578  0.00  0.00    +0.000 A 
ATOM     15  C   UNL     1      23.699  12.691  24.576  0.00  0.00    +0.000 A 
ATOM     16  C   UNL     1      24.699  13.638  24.399  0.00  0.00    +0.000 A 
ATOM     17  C   UNL     1      24.746  14.748  25.240  0.00  0.00    +0.000 A 
BRANCH  15  18
ATOM     18  O   UNL     1      23.671  11.614  23.740  0.00  0.00    +0.000 OA
ATOM     19  H   UNL     1      23.685  11.935  22.821  0.00  0.00    +0.000 HD
ENDBRANCH  15  18
ENDBRANCH   1  12
TORSDOF 4
ENDMDL
MODEL 5
REMARK VINA RESULT:      -4.8     22.364     24.738
REMARK  Name = Bisphenol_A.pdbqt.pdb
REMARK  4 active torsions:
REMARK  status: ('A' for Active; 'I' for Inactive)
REMARK    1  A    between atoms: C_1  and  C_4
REMARK    2  A    between atoms: C_1  and  C_12
REMARK    3  A    between atoms: C_7  and  O_10
REMARK    4  A    between atoms: C_15  and  O_18
REMARK                            x       y       z     vdW  Elec       q    Type
REMARK                         _______ _______ _______ _____ _____    ______ ____
ROOT
ATOM      1  C   UNL     1      30.031  12.915  18.647  0.00  0.00    +0.000 C 
ATOM      2  C   UNL     1      30.461  14.235  19.379  0.00  0.00    +0.000 C 
ATOM      3  C   UNL     1      31.329  12.095  18.317  0.00  0.00    +0.000 C 
ENDROOT
BRANCH   1   4
ATOM      4  C   UNL     1      29.106  12.153  19.610  0.00  0.00    +0.000 A 
ATOM      5  C   UNL     1      29.162  10.749  19.672  0.00  0.00    +0.000 A 
ATOM      6  C   UNL     1      28.325  10.026  20.520  0.00  0.00    +0.000 A 
ATOM      7  C   UNL     1      27.413  10.707  21.317  0.00  0.00    +0.000 A 
ATOM      8  C   UNL     1      27.326  12.093  21.275  0.00  0.00    +0.000 A 
ATOM      9  C   UNL     1      28.166  12.804  20.421  0.00  0.00    +0.000 A 
BRANCH   7  10
ATOM     10  O   UNL     1      26.583  10.030  22.162  0.00  0.00    +0.000 OA
ATOM     11  H   UNL     1      26.333   9.189  21.742  0.00  0.00    +0.000 HD
ENDBRANCH   7  10
ENDBRANCH   1   4
BRANCH   1  12
ATOM     12  C   UNL     1      29.336  13.205  17.309  0.00  0.00    +0.000 A 
ATOM     13  C   UNL     1      29.261  14.525  16.827  0.00  0.00    +0.000 A 
ATOM     14  C   UNL     1      28.624  14.825  15.626  0.00  0.00    +0.000 A 
ATOM     15  C   UNL     1      28.045  13.799  14.889  0.00  0.00    +0.000 A 
ATOM     16  C   UNL     1      28.094  12.485  15.337  0.00  0.00    +0.000 A 
ATOM     17  C   UNL     1      28.732  12.197  16.542  0.00  0.00    +0.000 A 
BRANCH  15  18
ATOM     18  O   UNL     1      27.418  14.057  13.706  0.00  0.00    +0.000 OA
ATOM     19  H   UNL     1      26.705  14.699  13.867  0.00  0.00    +0.000 HD
ENDBRANCH  15  18
ENDBRANCH   1  12
TORSDOF 4
ENDMDL
MODEL 6
REMARK VINA RESULT:      -4.7      3.476      5.330
REMARK  Name = Bisphenol_A.pdbqt.pdb
REMARK  4 active torsions:
REMARK  status: ('A' for Active; 'I' for Inactive)
REMARK    1  A    between atoms: C_1  and  C_4
REMARK    2  A    between atoms: C_1  and  C_12
REMARK    3  A    between atoms: C_7  and  O_10
REMARK    4  A    between atoms: C_15  and  O_18
REMARK                            x       y       z     vdW  Elec       q    Type
REMARK                         _______ _______ _______ _____ _____    ______ ____
ROOT
ATOM      1  C   UNL     1       8.093  24.818  30.032  0.00  0.00    +0.000 C 
ATOM      2  C   UNL     1       9.121  23.640  30.173  0.00  0.00    +0.000 C 
ATOM      3  C   UNL     1       8.257  25.760  31.278  0.00  0.00    +0.000 C 
ENDROOT
BRANCH   1   4
ATOM      4  C   UNL     1       8.428  25.546  28.721  0.00  0.00    +0.000 A 
ATOM      5  C   UNL     1       7.977  25.025  27.495  0.00  0.00    +0.000 A 
ATOM      6  C   UNL     1       8.277  25.650  26.286  0.00  0.00    +0.000 A 
ATOM      7  C   UNL     1       9.044  26.808  26.292  0.00  0.00    +0.000 A 
ATOM      8  C   UNL     1       9.513  27.346  27.484  0.00  0.00    +0.000 A 
ATOM      9  C   UNL     1       9.208  26.711  28.686  0.00  0.00    +0.000 A 
BRANCH   7  10
ATOM     10  O   UNL     1       9.353  27.447  25.128  0.00  0.00    +0.000 OA
ATOM     11  H   UNL     1      10.106  28.041  25.290  0.00  0.00    +0.000 HD
ENDBRANCH   7  10
ENDBRANCH   1   4
BRANCH   1  12
ATOM     12  C   UNL     1       6.642  24.315  30.044  0.00  0.00    +0.000 A 
ATOM     13  C   UNL     1       6.366  22.975  30.371  0.00  0.00    +0.000 A 
ATOM     14  C   UNL     1       5.064  22.481  30.375  0.00  0.00    +0.000 A 
ATOM     15  C   UNL     1       4.015  23.330  30.043  0.00  0.00    +0.000 A 
ATOM     16  C   UNL     1       4.251  24.657  29.708  0.00  0.00    +0.000 A 
ATOM     17  C   UNL     1       5.559  25.139  29.705  0.00  0.00    +0.000 A 
BRANCH  15  18
ATOM     18  O   UNL     1       2.727  22.881  30.042  0.00  0.00    +0.000 OA
ATOM     19  H   UNL     1       2.737  21.912  29.948  0.00  0.00    +0.000 HD
ENDBRANCH  15  18
ENDBRANCH   1  12
TORSDOF 4
ENDMDL
MODEL 7
REMARK VINA RESULT:      -4.6     25.542     27.517
REMARK  Name = Bisphenol_A.pdbqt.pdb
REMARK  4 active torsions:
REMARK  status: ('A' for Active; 'I' for Inactive)
REMARK    1  A    between atoms: C_1  and  C_4
REMARK    2  A    between atoms: C_1  and  C_12
REMARK    3  A    between atoms: C_7  and  O_10
REMARK    4  A    between atoms: C_15  and  O_18
REMARK                            x       y       z     vdW  Elec       q    Type
REMARK                         _______ _______ _______ _____ _____    ______ ____
ROOT
ATOM      1  C   UNL     1      20.507  28.863   4.400  0.00  0.00    +0.000 C 
ATOM      2  C   UNL     1      20.767  30.048   3.404  0.00  0.00    +0.000 C 
ATOM      3  C   UNL     1      19.052  28.327   4.149  0.00  0.00    +0.000 C 
ENDROOT
BRANCH   1   4
ATOM      4  C   UNL     1      21.567  27.792   4.104  0.00  0.00    +0.000 A 
ATOM      5  C   UNL     1      21.326  26.820   3.115  0.00  0.00    +0.000 A 
ATOM      6  C   UNL     1      22.258  25.823   2.834  0.00  0.00    +0.000 A 
ATOM      7  C   UNL     1      23.449  25.785   3.549  0.00  0.00    +0.000 A 
ATOM      8  C   UNL     1      23.716  26.724   4.538  0.00  0.00    +0.000 A 
ATOM      9  C   UNL     1      22.775  27.714   4.812  0.00  0.00    +0.000 A 
BRANCH   7  10
ATOM     10  O   UNL     1      24.384  24.826   3.296  0.00  0.00    +0.000 OA
ATOM     11  H   UNL     1      24.508  24.759   2.333  0.00  0.00    +0.000 HD
ENDBRANCH   7  10
ENDBRANCH   1   4
BRANCH   1  12
ATOM     12  C   UNL     1      20.563  29.325   5.863  0.00  0.00    +0.000 A 
ATOM     13  C   UNL     1      21.172  30.550   6.190  0.00  0.00    +0.000 A 
ATOM     14  C   UNL     1      21.256  30.991   7.509  0.00  0.00    +0.000 A 
ATOM     15  C   UNL     1      20.732  30.200   8.524  0.00  0.00    +0.000 A 
ATOM     16  C   UNL     1      20.129  28.981   8.238  0.00  0.00    +0.000 A 
ATOM     17  C   UNL     1      20.054  28.550   6.915  0.00  0.00    +0.000 A 
BRANCH  15  18
ATOM     18  O   UNL     1      20.792  30.604   9.825  0.00  0.00    +0.000 OA
ATOM     19  H   UNL     1      21.576  30.202  10.238  0.00  0.00    +0.000 HD
ENDBRANCH  15  18
ENDBRANCH   1  12
TORSDOF 4
ENDMDL
MODEL 8
REMARK VINA RESULT:      -4.5      9.849     12.655
REMARK  Name = Bisphenol_A.pdbqt.pdb
REMARK  4 active torsions:
REMARK  status: ('A' for Active; 'I' for Inactive)
REMARK    1  A    between atoms: C_1  and  C_4
REMARK    2  A    between atoms: C_1  and  C_12
REMARK    3  A    between atoms: C_7  and  O_10
REMARK    4  A    between atoms: C_15  and  O_18
REMARK                            x       y       z     vdW  Elec       q    Type
REMARK                         _______ _______ _______ _____ _____    ______ ____
ROOT
ATOM      1  C   UNL     1      11.971  32.766  23.734  0.00  0.00    +0.000 C 
ATOM      2  C   UNL     1      11.021  31.519  23.802  0.00  0.00    +0.000 C 
ATOM      3  C   UNL     1      11.108  34.051  23.997  0.00  0.00    +0.000 C 
ENDROOT
BRANCH   1   4
ATOM      4  C   UNL     1      13.042  32.569  24.817  0.00  0.00    +0.000 A 
ATOM      5  C   UNL     1      14.380  32.916  24.552  0.00  0.00    +0.000 A 
ATOM      6  C   UNL     1      15.380  32.733  25.505  0.00  0.00    +0.000 A 
ATOM      7  C   UNL     1      15.050  32.192  26.741  0.00  0.00    +0.000 A 
ATOM      8  C   UNL     1      13.740  31.830  27.034  0.00  0.00    +0.000 A 
ATOM      9  C   UNL     1      12.750  32.015  26.071  0.00  0.00    +0.000 A 
BRANCH   7  10
ATOM     10  O   UNL     1      16.003  32.004  27.698  0.00  0.00    +0.000 OA
ATOM     11  H   UNL     1      16.757  31.537  27.297  0.00  0.00    +0.000 HD
ENDBRANCH   7  10
ENDBRANCH   1   4
BRANCH   1  12
ATOM     12  C   UNL     1      12.598  32.930  22.342  0.00  0.00    +0.000 A 
ATOM     13  C   UNL     1      12.255  34.035  21.542  0.00  0.00    +0.000 A 
ATOM     14  C   UNL     1      12.792  34.205  20.268  0.00  0.00    +0.000 A 
ATOM     15  C   UNL     1      13.683  33.260  19.775  0.00  0.00    +0.000 A 
ATOM     16  C   UNL     1      14.040  32.153  20.535  0.00  0.00    +0.000 A 
ATOM     17  C   UNL     1      13.494  31.992  21.806  0.00  0.00    +0.000 A 
BRANCH  15  18
ATOM     18  O   UNL     1      14.232  33.398  18.534  0.00  0.00    +0.000 OA
ATOM     19  H   UNL     1      14.999  32.803  18.467  0.00  0.00    +0.000 HD
ENDBRANCH  15  18
ENDBRANCH   1  12
TORSDOF 4
ENDMDL
MODEL 9
REMARK VINA RESULT:      -4.3      3.357      5.727
REMARK  Name = Bisphenol_A.pdbqt.pdb
REMARK  4 active torsions:
REMARK  status: ('A' for Active; 'I' for Inactive)
REMARK    1  A    between atoms: C_1  and  C_4
REMARK    2  A    between atoms: C_1  and  C_12
REMARK    3  A    between atoms: C_7  and  O_10
REMARK    4  A    between atoms: C_15  and  O_18
REMARK                            x       y       z     vdW  Elec       q    Type
REMARK                         _______ _______ _______ _____ _____    ______ ____
ROOT
ATOM      1  C   UNL     1       8.889  24.681  29.527  0.00  0.00    +0.000 C 
ATOM      2  C   UNL     1      10.025  23.677  29.936  0.00  0.00    +0.000 C 
ATOM      3  C   UNL     1       7.824  23.893  28.684  0.00  0.00    +0.000 C 
ENDROOT
BRANCH   1   4
ATOM      4  C   UNL     1       8.290  25.231  30.830  0.00  0.00    +0.000 A 
ATOM      5  C   UNL     1       7.101  25.981  30.794  0.00  0.00    +0.000 A 
ATOM      6  C   UNL     1       6.540  26.510  31.954  0.00  0.00    +0.000 A 
ATOM      7  C   UNL     1       7.173  26.298  33.173  0.00  0.00    +0.000 A 
ATOM      8  C   UNL     1       8.354  25.569  33.244  0.00  0.00    +0.000 A 
ATOM      9  C   UNL     1       8.906  25.047  32.076  0.00  0.00    +0.000 A 
BRANCH   7  10
ATOM     10  O   UNL     1       6.649  26.798  34.328  0.00  0.00    +0.000 OA
ATOM     11  H   UNL     1       7.371  27.183  34.855  0.00  0.00    +0.000 HD
ENDBRANCH   7  10
ENDBRANCH   1   4
BRANCH   1  12
ATOM     12  C   UNL     1       9.419  25.808  28.629  0.00  0.00    +0.000 A 
ATOM     13  C   UNL     1      10.456  26.642  29.086  0.00  0.00    +0.000 A 
ATOM     14  C   UNL     1      10.948  27.684  28.305  0.00  0.00    +0.000 A 
ATOM     15  C   UNL     1      10.401  27.908  27.047  0.00  0.00    +0.000 A 
ATOM     16  C   UNL     1       9.372  27.107  26.566  0.00  0.00    +0.000 A 
ATOM     17  C   UNL     1       8.886  26.070  27.358  0.00  0.00    +0.000 A 
BRANCH  15  18
ATOM     18  O   UNL     1      10.863  28.916  26.253  0.00  0.00    +0.000 OA
ATOM     19  H   UNL     1      11.740  29.187  26.577  0.00  0.00    +0.000 HD
ENDBRANCH  15  18
ENDBRANCH   1  12
TORSDOF 4
ENDMDL
