MODEL 1
REMARK VINA RESULT:      -5.2      0.000      0.000
REMARK  Name = BX795.pdbqt.pdb
REMARK  7 active torsions:
REMARK  status: ('A' for Active; 'I' for Inactive)
REMARK    1  A    between atoms: C_4  and  N_25
REMARK    2  A    between atoms: N_8  and  C_10
REMARK    3  A    between atoms: C_12  and  N_16
REMARK    4  A    between atoms: N_25  and  C_27
REMARK    5  A    between atoms: C_27  and  C_28
REMARK    6  A    between atoms: C_29  and  N_30
REMARK    7  A    between atoms: C_31  and  C_34
REMARK                            x       y       z     vdW  Elec       q    Type
REMARK                         _______ _______ _______ _____ _____    ______ ____
ROOT
ATOM      1  I   UNL     1      21.919  30.615  29.771  0.00  0.00    +0.000 I 
ATOM      2  N   UNL     1      23.617  27.423  27.399  0.00  0.00    +0.000 NA
ATOM      3  N   UNL     1      23.266  29.242  25.948  0.00  0.00    +0.000 NA
ATOM      4  C   UNL     1      23.100  28.110  28.440  0.00  0.00    +0.000 A 
ATOM      5  C   UNL     1      23.684  27.997  26.189  0.00  0.00    +0.000 A 
ATOM      6  C   UNL     1      22.692  29.419  28.281  0.00  0.00    +0.000 A 
ATOM      7  C   UNL     1      22.796  29.925  27.009  0.00  0.00    +0.000 A 
ATOM      8  N   UNL     1      24.165  27.282  25.098  0.00  0.00    +0.000 N 
ATOM      9  H   UNL     1      24.087  27.815  24.244  0.00  0.00    +0.000 HD
ENDROOT
BRANCH   8  10
ATOM     10  C   UNL     1      24.880  26.080  25.050  0.00  0.00    +0.000 A 
ATOM     11  C   UNL     1      24.260  24.833  25.178  0.00  0.00    +0.000 A 
ATOM     12  C   UNL     1      24.965  23.639  25.031  0.00  0.00    +0.000 A 
ATOM     13  C   UNL     1      26.320  23.686  24.722  0.00  0.00    +0.000 A 
ATOM     14  C   UNL     1      26.960  24.914  24.578  0.00  0.00    +0.000 A 
ATOM     15  C   UNL     1      26.242  26.099  24.739  0.00  0.00    +0.000 A 
BRANCH  12  16
ATOM     16  N   UNL     1      24.264  22.440  25.252  0.00  0.00    +0.000 N 
ATOM     17  C   UNL     1      23.621  21.683  24.288  0.00  0.00    +0.000 C 
ATOM     18  O   UNL     1      23.462  22.040  23.122  0.00  0.00    +0.000 OA
ATOM     19  N   UNL     1      23.132  20.468  24.767  0.00  0.00    +0.000 N 
ATOM     20  C   UNL     1      23.163  19.885  25.999  0.00  0.00    +0.000 A 
ATOM     21  C   UNL     1      22.450  19.501  24.093  0.00  0.00    +0.000 A 
ATOM     22  C   UNL     1      22.505  18.520  26.228  0.00  0.00    +0.000 A 
ATOM     23  C   UNL     1      21.976  18.234  24.815  0.00  0.00    +0.000 A 
ATOM     24  H   UNL     1      24.162  22.147  26.216  0.00  0.00    +0.000 HD
ENDBRANCH  12  16
ENDBRANCH   8  10
BRANCH   4  25
ATOM     25  N   UNL     1      23.050  27.483  29.712  0.00  0.00    +0.000 N 
ATOM     26  H   UNL     1      22.547  28.077  30.367  0.00  0.00    +0.000 HD
BRANCH  25  27
ATOM     27  C   UNL     1      22.627  26.085  29.718  0.00  0.00    +0.000 C 
BRANCH  27  28
ATOM     28  C   UNL     1      22.161  24.629  29.619  0.00  0.00    +0.000 C 
ATOM     29  C   UNL     1      21.698  23.170  29.614  0.00  0.00    +0.000 C 
BRANCH  29  30
ATOM     30  N   UNL     1      21.265  21.889  29.660  0.00  0.00    +0.000 N 
ATOM     31  C   UNL     1      21.122  21.057  30.761  0.00  0.00    +0.000 C 
ATOM     32  O   UNL     1      21.375  21.458  31.897  0.00  0.00    +0.000 OA
ATOM     33  H   UNL     1      21.085  21.491  28.745  0.00  0.00    +0.000 HD
BRANCH  31  34
ATOM     34  C   UNL     1      20.682  19.707  30.455  0.00  0.00    +0.000 A 
ATOM     35  S   UNL     1      19.158  19.149  31.028  0.00  0.00    +0.000 S 
ATOM     36  C   UNL     1      19.391  17.624  30.326  0.00  0.00    +0.000 A 
ATOM     37  C   UNL     1      20.583  17.512  29.665  0.00  0.00    +0.000 A 
ATOM     38  C   UNL     1      21.322  18.714  29.742  0.00  0.00    +0.000 A 
ENDBRANCH  31  34
ENDBRANCH  29  30
ENDBRANCH  27  28
ENDBRANCH  25  27
ENDBRANCH   4  25
TORSDOF 7
ENDMDL
MODEL 2
REMARK VINA RESULT:      -4.7     27.405     30.395
REMARK  Name = BX795.pdbqt.pdb
REMARK  7 active torsions:
REMARK  status: ('A' for Active; 'I' for Inactive)
REMARK    1  A    between atoms: C_4  and  N_25
REMARK    2  A    between atoms: N_8  and  C_10
REMARK    3  A    between atoms: C_12  and  N_16
REMARK    4  A    between atoms: N_25  and  C_27
REMARK    5  A    between atoms: C_27  and  C_28
REMARK    6  A    between atoms: C_29  and  N_30
REMARK    7  A    between atoms: C_31  and  C_34
REMARK                            x       y       z     vdW  Elec       q    Type
REMARK                         _______ _______ _______ _____ _____    ______ ____
ROOT
ATOM      1  I   UNL     1       9.002  26.565  -3.008  0.00  0.00    +0.000 I 
ATOM      2  N   UNL     1       7.962  22.926  -0.915  0.00  0.00    +0.000 NA
ATOM      3  N   UNL     1       6.617  24.638  -0.022  0.00  0.00    +0.000 NA
ATOM      4  C   UNL     1       8.577  23.796  -1.744  0.00  0.00    +0.000 A 
ATOM      5  C   UNL     1       7.009  23.363  -0.079  0.00  0.00    +0.000 A 
ATOM      6  C   UNL     1       8.193  25.122  -1.778  0.00  0.00    +0.000 A 
ATOM      7  C   UNL     1       7.211  25.480  -0.887  0.00  0.00    +0.000 A 
ATOM      8  N   UNL     1       6.405  22.487   0.817  0.00  0.00    +0.000 N 
ATOM      9  H   UNL     1       5.764  22.970   1.429  0.00  0.00    +0.000 HD
ENDROOT
BRANCH   8  10
ATOM     10  C   UNL     1       6.411  21.088   0.855  0.00  0.00    +0.000 A 
ATOM     11  C   UNL     1       7.545  20.353   1.210  0.00  0.00    +0.000 A 
ATOM     12  C   UNL     1       7.515  18.965   1.341  0.00  0.00    +0.000 A 
ATOM     13  C   UNL     1       6.316  18.291   1.139  0.00  0.00    +0.000 A 
ATOM     14  C   UNL     1       5.168  19.000   0.795  0.00  0.00    +0.000 A 
ATOM     15  C   UNL     1       5.218  20.388   0.658  0.00  0.00    +0.000 A 
BRANCH  12  16
ATOM     16  N   UNL     1       8.728  18.314   1.630  0.00  0.00    +0.000 N 
ATOM     17  C   UNL     1       9.729  18.017   0.722  0.00  0.00    +0.000 C 
ATOM     18  O   UNL     1       9.625  18.164  -0.495  0.00  0.00    +0.000 OA
ATOM     19  N   UNL     1      10.882  17.498   1.312  0.00  0.00    +0.000 N 
ATOM     20  C   UNL     1      11.211  17.226   2.607  0.00  0.00    +0.000 A 
ATOM     21  C   UNL     1      12.038  17.098   0.713  0.00  0.00    +0.000 A 
ATOM     22  C   UNL     1      12.578  16.626   2.951  0.00  0.00    +0.000 A 
ATOM     23  C   UNL     1      13.193  16.531   1.547  0.00  0.00    +0.000 A 
ATOM     24  H   UNL     1       8.841  17.969   2.575  0.00  0.00    +0.000 HD
ENDBRANCH  12  16
ENDBRANCH   8  10
BRANCH   4  25
ATOM     25  N   UNL     1       9.575  23.306  -2.626  0.00  0.00    +0.000 N 
ATOM     26  H   UNL     1       9.646  23.918  -3.436  0.00  0.00    +0.000 HD
BRANCH  25  27
ATOM     27  C   UNL     1      10.856  22.964  -2.014  0.00  0.00    +0.000 C 
BRANCH  27  28
ATOM     28  C   UNL     1      12.146  22.537  -1.306  0.00  0.00    +0.000 C 
ATOM     29  C   UNL     1      13.382  22.070  -0.533  0.00  0.00    +0.000 C 
BRANCH  29  30
ATOM     30  N   UNL     1      14.444  21.614   0.170  0.00  0.00    +0.000 N 
ATOM     31  C   UNL     1      15.464  22.337   0.773  0.00  0.00    +0.000 C 
ATOM     32  O   UNL     1      15.476  23.567   0.741  0.00  0.00    +0.000 OA
ATOM     33  H   UNL     1      14.510  20.604   0.191  0.00  0.00    +0.000 HD
BRANCH  31  34
ATOM     34  C   UNL     1      16.493  21.530   1.407  0.00  0.00    +0.000 A 
ATOM     35  S   UNL     1      17.859  22.291   2.126  0.00  0.00    +0.000 S 
ATOM     36  C   UNL     1      18.522  20.797   2.575  0.00  0.00    +0.000 A 
ATOM     37  C   UNL     1      17.749  19.732   2.206  0.00  0.00    +0.000 A 
ATOM     38  C   UNL     1      16.582  20.159   1.534  0.00  0.00    +0.000 A 
ENDBRANCH  31  34
ENDBRANCH  29  30
ENDBRANCH  27  28
ENDBRANCH  25  27
ENDBRANCH   4  25
TORSDOF 7
ENDMDL
MODEL 3
REMARK VINA RESULT:      -4.5     27.655     30.587
REMARK  Name = BX795.pdbqt.pdb
REMARK  7 active torsions:
REMARK  status: ('A' for Active; 'I' for Inactive)
REMARK    1  A    between atoms: C_4  and  N_25
REMARK    2  A    between atoms: N_8  and  C_10
REMARK    3  A    between atoms: C_12  and  N_16
REMARK    4  A    between atoms: N_25  and  C_27
REMARK    5  A    between atoms: C_27  and  C_28
REMARK    6  A    between atoms: C_29  and  N_30
REMARK    7  A    between atoms: C_31  and  C_34
REMARK                            x       y       z     vdW  Elec       q    Type
REMARK                         _______ _______ _______ _____ _____    ______ ____
ROOT
ATOM      1  I   UNL     1       7.129  27.097  -3.397  0.00  0.00    +0.000 I 
ATOM      2  N   UNL     1       7.647  23.501  -1.051  0.00  0.00    +0.000 NA
ATOM      3  N   UNL     1       5.762  24.616  -0.189  0.00  0.00    +0.000 NA
ATOM      4  C   UNL     1       7.852  24.479  -1.959  0.00  0.00    +0.000 A 
ATOM      5  C   UNL     1       6.620  23.593  -0.194  0.00  0.00    +0.000 A 
ATOM      6  C   UNL     1       6.980  25.545  -2.048  0.00  0.00    +0.000 A 
ATOM      7  C   UNL     1       5.958  25.558  -1.130  0.00  0.00    +0.000 A 
ATOM      8  N   UNL     1       6.429  22.619   0.780  0.00  0.00    +0.000 N 
ATOM      9  H   UNL     1       5.666  22.857   1.396  0.00  0.00    +0.000 HD
ENDROOT
BRANCH   8  10
ATOM     10  C   UNL     1       6.982  21.338   0.897  0.00  0.00    +0.000 A 
ATOM     11  C   UNL     1       8.345  21.128   1.125  0.00  0.00    +0.000 A 
ATOM     12  C   UNL     1       8.872  19.855   1.338  0.00  0.00    +0.000 A 
ATOM     13  C   UNL     1       8.014  18.760   1.352  0.00  0.00    +0.000 A 
ATOM     14  C   UNL     1       6.650  18.942   1.138  0.00  0.00    +0.000 A 
ATOM     15  C   UNL     1       6.141  20.222   0.915  0.00  0.00    +0.000 A 
BRANCH  12  16
ATOM     16  N   UNL     1      10.266  19.745   1.485  0.00  0.00    +0.000 N 
ATOM     17  C   UNL     1      11.166  19.408   0.489  0.00  0.00    +0.000 C 
ATOM     18  O   UNL     1      10.841  19.021  -0.633  0.00  0.00    +0.000 OA
ATOM     19  N   UNL     1      12.500  19.517   0.881  0.00  0.00    +0.000 N 
ATOM     20  C   UNL     1      13.087  19.888   2.054  0.00  0.00    +0.000 A 
ATOM     21  C   UNL     1      13.624  19.256   0.157  0.00  0.00    +0.000 A 
ATOM     22  C   UNL     1      14.613  19.889   2.192  0.00  0.00    +0.000 A 
ATOM     23  C   UNL     1      15.012  19.420   0.786  0.00  0.00    +0.000 A 
ATOM     24  H   UNL     1      10.632  19.854   2.423  0.00  0.00    +0.000 HD
ENDBRANCH  12  16
ENDBRANCH   8  10
BRANCH   4  25
ATOM     25  N   UNL     1       8.939  24.353  -2.861  0.00  0.00    +0.000 N 
ATOM     26  H   UNL     1       8.813  24.994  -3.642  0.00  0.00    +0.000 HD
BRANCH  25  27
ATOM     27  C   UNL     1      10.272  24.385  -2.264  0.00  0.00    +0.000 C 
BRANCH  27  28
ATOM     28  C   UNL     1      11.654  24.317  -1.607  0.00  0.00    +0.000 C 
ATOM     29  C   UNL     1      13.006  24.313  -0.888  0.00  0.00    +0.000 C 
BRANCH  29  30
ATOM     30  N   UNL     1      14.174  24.325  -0.206  0.00  0.00    +0.000 N 
ATOM     31  C   UNL     1      15.207  23.399  -0.234  0.00  0.00    +0.000 C 
ATOM     32  O   UNL     1      15.157  22.413  -0.968  0.00  0.00    +0.000 OA
ATOM     33  H   UNL     1      14.250  25.093   0.450  0.00  0.00    +0.000 HD
BRANCH  31  34
ATOM     34  C   UNL     1      16.307  23.683   0.672  0.00  0.00    +0.000 A 
ATOM     35  S   UNL     1      17.314  25.053   0.398  0.00  0.00    +0.000 S 
ATOM     36  C   UNL     1      18.267  24.690   1.751  0.00  0.00    +0.000 A 
ATOM     37  C   UNL     1      17.856  23.568   2.415  0.00  0.00    +0.000 A 
ATOM     38  C   UNL     1      16.727  22.992   1.790  0.00  0.00    +0.000 A 
ENDBRANCH  31  34
ENDBRANCH  29  30
ENDBRANCH  27  28
ENDBRANCH  25  27
ENDBRANCH   4  25
TORSDOF 7
ENDMDL
MODEL 4
REMARK VINA RESULT:      -4.5     29.950     31.883
REMARK  Name = BX795.pdbqt.pdb
REMARK  7 active torsions:
REMARK  status: ('A' for Active; 'I' for Inactive)
REMARK    1  A    between atoms: C_4  and  N_25
REMARK    2  A    between atoms: N_8  and  C_10
REMARK    3  A    between atoms: C_12  and  N_16
REMARK    4  A    between atoms: N_25  and  C_27
REMARK    5  A    between atoms: C_27  and  C_28
REMARK    6  A    between atoms: C_29  and  N_30
REMARK    7  A    between atoms: C_31  and  C_34
REMARK                            x       y       z     vdW  Elec       q    Type
REMARK                         _______ _______ _______ _____ _____    ______ ____
ROOT
ATOM      1  I   UNL     1      -3.377  20.018   5.936  0.00  0.00    +0.000 I 
ATOM      2  N   UNL     1      -0.397  17.110   7.104  0.00  0.00    +0.000 NA
ATOM      3  N   UNL     1      -1.184  18.116   9.080  0.00  0.00    +0.000 NA
ATOM      4  C   UNL     1      -1.198  17.891   6.348  0.00  0.00    +0.000 A 
ATOM      5  C   UNL     1      -0.406  17.241   8.438  0.00  0.00    +0.000 A 
ATOM      6  C   UNL     1      -2.067  18.785   6.941  0.00  0.00    +0.000 A 
ATOM      7  C   UNL     1      -2.007  18.853   8.311  0.00  0.00    +0.000 A 
ATOM      8  N   UNL     1       0.453  16.481   9.225  0.00  0.00    +0.000 N 
ATOM      9  H   UNL     1       0.387  16.739  10.198  0.00  0.00    +0.000 HD
ENDROOT
BRANCH   8  10
ATOM     10  C   UNL     1       1.200  15.342   8.903  0.00  0.00    +0.000 A 
ATOM     11  C   UNL     1       0.730  14.046   9.139  0.00  0.00    +0.000 A 
ATOM     12  C   UNL     1       1.438  12.918   8.726  0.00  0.00    +0.000 A 
ATOM     13  C   UNL     1       2.633  13.082   8.035  0.00  0.00    +0.000 A 
ATOM     14  C   UNL     1       3.118  14.361   7.778  0.00  0.00    +0.000 A 
ATOM     15  C   UNL     1       2.404  15.480   8.207  0.00  0.00    +0.000 A 
BRANCH  12  16
ATOM     16  N   UNL     1       0.915  11.660   9.077  0.00  0.00    +0.000 N 
ATOM     17  C   UNL     1       0.440  10.702   8.200  0.00  0.00    +0.000 C 
ATOM     18  O   UNL     1       0.284  10.886   6.993  0.00  0.00    +0.000 OA
ATOM     19  N   UNL     1       0.117   9.492   8.815  0.00  0.00    +0.000 N 
ATOM     20  C   UNL     1       0.177   9.074  10.110  0.00  0.00    +0.000 A 
ATOM     21  C   UNL     1      -0.379   8.356   8.250  0.00  0.00    +0.000 A 
ATOM     22  C   UNL     1      -0.277   7.661  10.492  0.00  0.00    +0.000 A 
ATOM     23  C   UNL     1      -0.691   7.128   9.113  0.00  0.00    +0.000 A 
ATOM     24  H   UNL     1       0.814  11.473  10.067  0.00  0.00    +0.000 HD
ENDBRANCH  12  16
ENDBRANCH   8  10
BRANCH   4  25
ATOM     25  N   UNL     1      -1.178  17.724   4.939  0.00  0.00    +0.000 N 
ATOM     26  H   UNL     1      -1.514  18.573   4.489  0.00  0.00    +0.000 HD
BRANCH  25  27
ATOM     27  C   UNL     1       0.062  17.195   4.377  0.00  0.00    +0.000 C 
BRANCH  27  28
ATOM     28  C   UNL     1       1.416  16.705   3.854  0.00  0.00    +0.000 C 
ATOM     29  C   UNL     1       2.796  16.305   3.323  0.00  0.00    +0.000 C 
BRANCH  29  30
ATOM     30  N   UNL     1       4.035  16.000   2.875  0.00  0.00    +0.000 N 
ATOM     31  C   UNL     1       4.910  15.025   3.332  0.00  0.00    +0.000 C 
ATOM     32  O   UNL     1       4.595  14.268   4.250  0.00  0.00    +0.000 OA
ATOM     33  H   UNL     1       4.365  16.622   2.148  0.00  0.00    +0.000 HD
BRANCH  31  34
ATOM     34  C   UNL     1       6.199  14.997   2.662  0.00  0.00    +0.000 A 
ATOM     35  S   UNL     1       7.103  13.534   2.599  0.00  0.00    +0.000 S 
ATOM     36  C   UNL     1       8.362  14.285   1.749  0.00  0.00    +0.000 A 
ATOM     37  C   UNL     1       8.130  15.609   1.502  0.00  0.00    +0.000 A 
ATOM     38  C   UNL     1       6.883  16.015   2.030  0.00  0.00    +0.000 A 
ENDBRANCH  31  34
ENDBRANCH  29  30
ENDBRANCH  27  28
ENDBRANCH  25  27
ENDBRANCH   4  25
TORSDOF 7
ENDMDL
MODEL 5
REMARK VINA RESULT:      -4.4     12.304     16.264
REMARK  Name = BX795.pdbqt.pdb
REMARK  7 active torsions:
REMARK  status: ('A' for Active; 'I' for Inactive)
REMARK    1  A    between atoms: C_4  and  N_25
REMARK    2  A    between atoms: N_8  and  C_10
REMARK    3  A    between atoms: C_12  and  N_16
REMARK    4  A    between atoms: N_25  and  C_27
REMARK    5  A    between atoms: C_27  and  C_28
REMARK    6  A    between atoms: C_29  and  N_30
REMARK    7  A    between atoms: C_31  and  C_34
REMARK                            x       y       z     vdW  Elec       q    Type
REMARK                         _______ _______ _______ _____ _____    ______ ____
ROOT
ATOM      1  I   UNL     1      29.411  14.221  25.624  0.00  0.00    +0.000 I 
ATOM      2  N   UNL     1      29.754  13.544  21.366  0.00  0.00    +0.000 NA
ATOM      3  N   UNL     1      28.011  12.166  22.141  0.00  0.00    +0.000 NA
ATOM      4  C   UNL     1      29.992  14.002  22.614  0.00  0.00    +0.000 A 
ATOM      5  C   UNL     1      28.782  12.644  21.161  0.00  0.00    +0.000 A 
ATOM      6  C   UNL     1      29.205  13.592  23.672  0.00  0.00    +0.000 A 
ATOM      7  C   UNL     1      28.235  12.668  23.369  0.00  0.00    +0.000 A 
ATOM      8  N   UNL     1      28.562  12.125  19.890  0.00  0.00    +0.000 N 
ATOM      9  H   UNL     1      27.852  11.408  19.902  0.00  0.00    +0.000 HD
ENDROOT
BRANCH   8  10
ATOM     10  C   UNL     1      29.015  12.570  18.642  0.00  0.00    +0.000 A 
ATOM     11  C   UNL     1      29.266  11.696  17.581  0.00  0.00    +0.000 A 
ATOM     12  C   UNL     1      29.622  12.156  16.313  0.00  0.00    +0.000 A 
ATOM     13  C   UNL     1      29.704  13.525  16.087  0.00  0.00    +0.000 A 
ATOM     14  C   UNL     1      29.448  14.418  17.124  0.00  0.00    +0.000 A 
ATOM     15  C   UNL     1      29.104  13.942  18.389  0.00  0.00    +0.000 A 
BRANCH  12  16
ATOM     16  N   UNL     1      29.925  11.192  15.335  0.00  0.00    +0.000 N 
ATOM     17  C   UNL     1      29.009  10.491  14.571  0.00  0.00    +0.000 C 
ATOM     18  O   UNL     1      27.792  10.522  14.750  0.00  0.00    +0.000 OA
ATOM     19  N   UNL     1      29.595   9.705  13.578  0.00  0.00    +0.000 N 
ATOM     20  C   UNL     1      30.892   9.494  13.217  0.00  0.00    +0.000 A 
ATOM     21  C   UNL     1      28.989   8.894  12.667  0.00  0.00    +0.000 A 
ATOM     22  C   UNL     1      31.233   8.536  12.071  0.00  0.00    +0.000 A 
ATOM     23  C   UNL     1      29.822   8.090  11.662  0.00  0.00    +0.000 A 
ATOM     24  H   UNL     1      30.901  10.940  15.236  0.00  0.00    +0.000 HD
ENDBRANCH  12  16
ENDBRANCH   8  10
BRANCH   4  25
ATOM     25  N   UNL     1      31.019  14.962  22.802  0.00  0.00    +0.000 N 
ATOM     26  H   UNL     1      31.924  14.495  22.830  0.00  0.00    +0.000 HD
BRANCH  25  27
ATOM     27  C   UNL     1      30.970  16.130  21.927  0.00  0.00    +0.000 C 
BRANCH  27  28
ATOM     28  C   UNL     1      30.825  17.316  20.968  0.00  0.00    +0.000 C 
ATOM     29  C   UNL     1      30.588  18.483  20.006  0.00  0.00    +0.000 C 
BRANCH  29  30
ATOM     30  N   UNL     1      30.327  19.519  19.176  0.00  0.00    +0.000 N 
ATOM     31  C   UNL     1      29.143  19.835  18.525  0.00  0.00    +0.000 C 
ATOM     32  O   UNL     1      28.130  19.154  18.682  0.00  0.00    +0.000 OA
ATOM     33  H   UNL     1      31.140  20.089  18.975  0.00  0.00    +0.000 HD
BRANCH  31  34
ATOM     34  C   UNL     1      29.216  20.995  17.653  0.00  0.00    +0.000 A 
ATOM     35  S   UNL     1      30.584  21.218  16.633  0.00  0.00    +0.000 S 
ATOM     36  C   UNL     1      29.958  22.669  16.020  0.00  0.00    +0.000 A 
ATOM     37  C   UNL     1      28.744  22.999  16.554  0.00  0.00    +0.000 A 
ATOM     38  C   UNL     1      28.320  22.032  17.493  0.00  0.00    +0.000 A 
ENDBRANCH  31  34
ENDBRANCH  29  30
ENDBRANCH  27  28
ENDBRANCH  25  27
ENDBRANCH   4  25
TORSDOF 7
ENDMDL
MODEL 6
REMARK VINA RESULT:      -4.4     11.418     16.745
REMARK  Name = BX795.pdbqt.pdb
REMARK  7 active torsions:
REMARK  status: ('A' for Active; 'I' for Inactive)
REMARK    1  A    between atoms: C_4  and  N_25
REMARK    2  A    between atoms: N_8  and  C_10
REMARK    3  A    between atoms: C_12  and  N_16
REMARK    4  A    between atoms: N_25  and  C_27
REMARK    5  A    between atoms: C_27  and  C_28
REMARK    6  A    between atoms: C_29  and  N_30
REMARK    7  A    between atoms: C_31  and  C_34
REMARK                            x       y       z     vdW  Elec       q    Type
REMARK                         _______ _______ _______ _____ _____    ______ ____
ROOT
ATOM      1  I   UNL     1      28.399   4.197  25.425  0.00  0.00    +0.000 I 
ATOM      2  N   UNL     1      26.288   7.883  24.611  0.00  0.00    +0.000 NA
ATOM      3  N   UNL     1      24.796   6.480  25.771  0.00  0.00    +0.000 NA
ATOM      4  C   UNL     1      27.247   6.933  24.630  0.00  0.00    +0.000 A 
ATOM      5  C   UNL     1      25.095   7.635  25.173  0.00  0.00    +0.000 A 
ATOM      6  C   UNL     1      27.030   5.731  25.273  0.00  0.00    +0.000 A 
ATOM      7  C   UNL     1      25.781   5.564  25.818  0.00  0.00    +0.000 A 
ATOM      8  N   UNL     1      24.080   8.585  25.113  0.00  0.00    +0.000 N 
ATOM      9  H   UNL     1      23.222   8.233  25.510  0.00  0.00    +0.000 HD
ENDROOT
BRANCH   8  10
ATOM     10  C   UNL     1      24.134   9.944  24.782  0.00  0.00    +0.000 A 
ATOM     11  C   UNL     1      23.942  10.953  25.730  0.00  0.00    +0.000 A 
ATOM     12  C   UNL     1      24.094  12.303  25.413  0.00  0.00    +0.000 A 
ATOM     13  C   UNL     1      24.475  12.657  24.123  0.00  0.00    +0.000 A 
ATOM     14  C   UNL     1      24.684  11.671  23.163  0.00  0.00    +0.000 A 
ATOM     15  C   UNL     1      24.517  10.326  23.494  0.00  0.00    +0.000 A 
BRANCH  12  16
ATOM     16  N   UNL     1      23.805  13.242  26.419  0.00  0.00    +0.000 N 
ATOM     17  C   UNL     1      23.914  14.617  26.305  0.00  0.00    +0.000 C 
ATOM     18  O   UNL     1      24.414  15.193  25.340  0.00  0.00    +0.000 OA
ATOM     19  N   UNL     1      23.423  15.310  27.412  0.00  0.00    +0.000 N 
ATOM     20  C   UNL     1      22.861  14.895  28.582  0.00  0.00    +0.000 A 
ATOM     21  C   UNL     1      23.385  16.654  27.626  0.00  0.00    +0.000 A 
ATOM     22  C   UNL     1      22.430  15.914  29.641  0.00  0.00    +0.000 A 
ATOM     23  C   UNL     1      22.819  17.221  28.932  0.00  0.00    +0.000 A 
ATOM     24  H   UNL     1      23.567  12.870  27.330  0.00  0.00    +0.000 HD
ENDBRANCH  12  16
ENDBRANCH   8  10
BRANCH   4  25
ATOM     25  N   UNL     1      28.504   7.224  24.038  0.00  0.00    +0.000 N 
ATOM     26  H   UNL     1      29.056   6.372  23.970  0.00  0.00    +0.000 HD
BRANCH  25  27
ATOM     27  C   UNL     1      28.464   8.016  22.812  0.00  0.00    +0.000 C 
BRANCH  27  28
ATOM     28  C   UNL     1      28.531   8.844  21.525  0.00  0.00    +0.000 C 
ATOM     29  C   UNL     1      28.689   9.687  20.256  0.00  0.00    +0.000 C 
BRANCH  29  30
ATOM     30  N   UNL     1      28.883  10.416  19.134  0.00  0.00    +0.000 N 
ATOM     31  C   UNL     1      28.789  11.789  18.960  0.00  0.00    +0.000 C 
ATOM     32  O   UNL     1      28.524  12.532  19.905  0.00  0.00    +0.000 OA
ATOM     33  H   UNL     1      29.059   9.850  18.311  0.00  0.00    +0.000 HD
BRANCH  31  34
ATOM     34  C   UNL     1      29.004  12.250  17.599  0.00  0.00    +0.000 A 
ATOM     35  S   UNL     1      29.770  13.766  17.316  0.00  0.00    +0.000 S 
ATOM     36  C   UNL     1      29.631  13.583  15.637  0.00  0.00    +0.000 A 
ATOM     37  C   UNL     1      29.027  12.413  15.271  0.00  0.00    +0.000 A 
ATOM     38  C   UNL     1      28.668  11.649  16.404  0.00  0.00    +0.000 A 
ENDBRANCH  31  34
ENDBRANCH  29  30
ENDBRANCH  27  28
ENDBRANCH  25  27
ENDBRANCH   4  25
TORSDOF 7
ENDMDL
MODEL 7
REMARK VINA RESULT:      -4.3     26.943     28.963
REMARK  Name = BX795.pdbqt.pdb
REMARK  7 active torsions:
REMARK  status: ('A' for Active; 'I' for Inactive)
REMARK    1  A    between atoms: C_4  and  N_25
REMARK    2  A    between atoms: N_8  and  C_10
REMARK    3  A    between atoms: C_12  and  N_16
REMARK    4  A    between atoms: N_25  and  C_27
REMARK    5  A    between atoms: C_27  and  C_28
REMARK    6  A    between atoms: C_29  and  N_30
REMARK    7  A    between atoms: C_31  and  C_34
REMARK                            x       y       z     vdW  Elec       q    Type
REMARK                         _______ _______ _______ _____ _____    ______ ____
ROOT
ATOM      1  I   UNL     1      -6.914  25.814  15.656  0.00  0.00    +0.000 I 
ATOM      2  N   UNL     1      -5.515  23.579  19.084  0.00  0.00    +0.000 NA
ATOM      3  N   UNL     1      -4.449  25.676  19.151  0.00  0.00    +0.000 NA
ATOM      4  C   UNL     1      -6.148  23.901  17.936  0.00  0.00    +0.000 A 
ATOM      5  C   UNL     1      -4.686  24.463  19.657  0.00  0.00    +0.000 A 
ATOM      6  C   UNL     1      -5.993  25.154  17.377  0.00  0.00    +0.000 A 
ATOM      7  C   UNL     1      -5.124  25.993  18.031  0.00  0.00    +0.000 A 
ATOM      8  N   UNL     1      -3.986  24.125  20.811  0.00  0.00    +0.000 N 
ATOM      9  H   UNL     1      -3.348  24.858  21.084  0.00  0.00    +0.000 HD
ENDROOT
BRANCH   8  10
ATOM     10  C   UNL     1      -4.176  23.063  21.702  0.00  0.00    +0.000 A 
ATOM     11  C   UNL     1      -3.719  21.769  21.434  0.00  0.00    +0.000 A 
ATOM     12  C   UNL     1      -3.824  20.740  22.369  0.00  0.00    +0.000 A 
ATOM     13  C   UNL     1      -4.375  21.011  23.617  0.00  0.00    +0.000 A 
ATOM     14  C   UNL     1      -4.827  22.293  23.914  0.00  0.00    +0.000 A 
ATOM     15  C   UNL     1      -4.725  23.309  22.963  0.00  0.00    +0.000 A 
BRANCH  12  16
ATOM     16  N   UNL     1      -3.402  19.457  21.973  0.00  0.00    +0.000 N 
ATOM     17  C   UNL     1      -2.129  18.937  22.124  0.00  0.00    +0.000 C 
ATOM     18  O   UNL     1      -1.157  19.587  22.504  0.00  0.00    +0.000 OA
ATOM     19  N   UNL     1      -2.032  17.590  21.774  0.00  0.00    +0.000 N 
ATOM     20  C   UNL     1      -2.946  16.691  21.312  0.00  0.00    +0.000 A 
ATOM     21  C   UNL     1      -0.935  16.782  21.796  0.00  0.00    +0.000 A 
ATOM     22  C   UNL     1      -2.527  15.253  20.989  0.00  0.00    +0.000 A 
ATOM     23  C   UNL     1      -1.035  15.320  21.348  0.00  0.00    +0.000 A 
ATOM     24  H   UNL     1      -4.077  18.896  21.467  0.00  0.00    +0.000 HD
ENDBRANCH  12  16
ENDBRANCH   8  10
BRANCH   4  25
ATOM     25  N   UNL     1      -7.028  22.951  17.355  0.00  0.00    +0.000 N 
ATOM     26  H   UNL     1      -7.349  23.290  16.451  0.00  0.00    +0.000 HD
BRANCH  25  27
ATOM     27  C   UNL     1      -6.561  21.568  17.350  0.00  0.00    +0.000 C 
BRANCH  27  28
ATOM     28  C   UNL     1      -6.142  20.096  17.264  0.00  0.00    +0.000 C 
ATOM     29  C   UNL     1      -5.723  18.635  17.085  0.00  0.00    +0.000 C 
BRANCH  29  30
ATOM     30  N   UNL     1      -5.328  17.358  16.878  0.00  0.00    +0.000 N 
ATOM     31  C   UNL     1      -4.152  16.736  17.274  0.00  0.00    +0.000 C 
ATOM     32  O   UNL     1      -3.303  17.339  17.929  0.00  0.00    +0.000 OA
ATOM     33  H   UNL     1      -5.970  16.825  16.303  0.00  0.00    +0.000 HD
BRANCH  31  34
ATOM     34  C   UNL     1      -4.013  15.357  16.837  0.00  0.00    +0.000 A 
ATOM     35  S   UNL     1      -4.425  14.920  15.224  0.00  0.00    +0.000 S 
ATOM     36  C   UNL     1      -4.036  13.295  15.507  0.00  0.00    +0.000 A 
ATOM     37  C   UNL     1      -3.599  13.060  16.780  0.00  0.00    +0.000 A 
ATOM     38  C   UNL     1      -3.587  14.250  17.542  0.00  0.00    +0.000 A 
ENDBRANCH  31  34
ENDBRANCH  29  30
ENDBRANCH  27  28
ENDBRANCH  25  27
ENDBRANCH   4  25
TORSDOF 7
ENDMDL
MODEL 8
REMARK VINA RESULT:      -4.3     28.260     30.238
REMARK  Name = BX795.pdbqt.pdb
REMARK  7 active torsions:
REMARK  status: ('A' for Active; 'I' for Inactive)
REMARK    1  A    between atoms: C_4  and  N_25
REMARK    2  A    between atoms: N_8  and  C_10
REMARK    3  A    between atoms: C_12  and  N_16
REMARK    4  A    between atoms: N_25  and  C_27
REMARK    5  A    between atoms: C_27  and  C_28
REMARK    6  A    between atoms: C_29  and  N_30
REMARK    7  A    between atoms: C_31  and  C_34
REMARK                            x       y       z     vdW  Elec       q    Type
REMARK                         _______ _______ _______ _____ _____    ______ ____
ROOT
ATOM      1  I   UNL     1      -3.094  22.980  13.882  0.00  0.00    +0.000 I 
ATOM      2  N   UNL     1      -1.166  26.844  13.639  0.00  0.00    +0.000 NA
ATOM      3  N   UNL     1      -1.572  26.423  15.919  0.00  0.00    +0.000 NA
ATOM      4  C   UNL     1      -1.747  25.678  13.286  0.00  0.00    +0.000 A 
ATOM      5  C   UNL     1      -1.096  27.188  14.934  0.00  0.00    +0.000 A 
ATOM      6  C   UNL     1      -2.218  24.810  14.251  0.00  0.00    +0.000 A 
ATOM      7  C   UNL     1      -2.107  25.245  15.549  0.00  0.00    +0.000 A 
ATOM      8  N   UNL     1      -0.549  28.411  15.307  0.00  0.00    +0.000 N 
ATOM      9  H   UNL     1      -0.631  28.564  16.301  0.00  0.00    +0.000 HD
ENDROOT
BRANCH   8  10
ATOM     10  C   UNL     1       0.230  29.313  14.573  0.00  0.00    +0.000 A 
ATOM     11  C   UNL     1      -0.319  30.168  13.612  0.00  0.00    +0.000 A 
ATOM     12  C   UNL     1       0.447  31.131  12.956  0.00  0.00    +0.000 A 
ATOM     13  C   UNL     1       1.791  31.267  13.285  0.00  0.00    +0.000 A 
ATOM     14  C   UNL     1       2.360  30.437  14.246  0.00  0.00    +0.000 A 
ATOM     15  C   UNL     1       1.582  29.470  14.885  0.00  0.00    +0.000 A 
BRANCH  12  16
ATOM     16  N   UNL     1      -0.184  31.890  11.953  0.00  0.00    +0.000 N 
ATOM     17  C   UNL     1      -0.591  33.207  12.064  0.00  0.00    +0.000 C 
ATOM     18  O   UNL     1      -0.578  33.849  13.114  0.00  0.00    +0.000 OA
ATOM     19  N   UNL     1      -1.056  33.750  10.867  0.00  0.00    +0.000 N 
ATOM     20  C   UNL     1      -1.189  33.235   9.612  0.00  0.00    +0.000 A 
ATOM     21  C   UNL     1      -1.535  35.004  10.630  0.00  0.00    +0.000 A 
ATOM     22  C   UNL     1      -1.764  34.089   8.478  0.00  0.00    +0.000 A 
ATOM     23  C   UNL     1      -2.022  35.402   9.232  0.00  0.00    +0.000 A 
ATOM     24  H   UNL     1      -0.424  31.400  11.100  0.00  0.00    +0.000 HD
ENDBRANCH  12  16
ENDBRANCH   8  10
BRANCH   4  25
ATOM     25  N   UNL     1      -1.798  25.332  11.911  0.00  0.00    +0.000 N 
ATOM     26  H   UNL     1      -2.698  24.905  11.698  0.00  0.00    +0.000 HD
BRANCH  25  27
ATOM     27  C   UNL     1      -1.390  26.376  10.975  0.00  0.00    +0.000 C 
BRANCH  27  28
ATOM     28  C   UNL     1      -0.906  27.395   9.938  0.00  0.00    +0.000 C 
ATOM     29  C   UNL     1      -0.456  28.482   8.958  0.00  0.00    +0.000 C 
BRANCH  29  30
ATOM     30  N   UNL     1      -0.055  29.477   8.135  0.00  0.00    +0.000 N 
ATOM     31  C   UNL     1       0.809  30.530   8.399  0.00  0.00    +0.000 C 
ATOM     32  O   UNL     1       1.354  30.644   9.496  0.00  0.00    +0.000 OA
ATOM     33  H   UNL     1      -0.509  29.459   7.229  0.00  0.00    +0.000 HD
BRANCH  31  34
ATOM     34  C   UNL     1       0.986  31.467   7.302  0.00  0.00    +0.000 A 
ATOM     35  S   UNL     1      -0.153  31.504   6.012  0.00  0.00    +0.000 S 
ATOM     36  C   UNL     1       0.706  32.730   5.218  0.00  0.00    +0.000 A 
ATOM     37  C   UNL     1       1.829  33.123   5.890  0.00  0.00    +0.000 A 
ATOM     38  C   UNL     1       1.986  32.394   7.090  0.00  0.00    +0.000 A 
ENDBRANCH  31  34
ENDBRANCH  29  30
ENDBRANCH  27  28
ENDBRANCH  25  27
ENDBRANCH   4  25
TORSDOF 7
ENDMDL
MODEL 9
REMARK VINA RESULT:      -3.9     28.922     31.767
REMARK  Name = BX795.pdbqt.pdb
REMARK  7 active torsions:
REMARK  status: ('A' for Active; 'I' for Inactive)
REMARK    1  A    between atoms: C_4  and  N_25
REMARK    2  A    between atoms: N_8  and  C_10
REMARK    3  A    between atoms: C_12  and  N_16
REMARK    4  A    between atoms: N_25  and  C_27
REMARK    5  A    between atoms: C_27  and  C_28
REMARK    6  A    between atoms: C_29  and  N_30
REMARK    7  A    between atoms: C_31  and  C_34
REMARK                            x       y       z     vdW  Elec       q    Type
REMARK                         _______ _______ _______ _____ _____    ______ ____
ROOT
ATOM      1  I   UNL     1      27.298  -3.715   4.245  0.00  0.00    +0.000 I 
ATOM      2  N   UNL     1      24.455  -2.509   7.273  0.00  0.00    +0.000 NA
ATOM      3  N   UNL     1      26.379  -3.261   8.400  0.00  0.00    +0.000 NA
ATOM      4  C   UNL     1      25.008  -2.790   6.074  0.00  0.00    +0.000 A 
ATOM      5  C   UNL     1      25.145  -2.752   8.397  0.00  0.00    +0.000 A 
ATOM      6  C   UNL     1      26.299  -3.273   5.993  0.00  0.00    +0.000 A 
ATOM      7  C   UNL     1      26.928  -3.492   7.193  0.00  0.00    +0.000 A 
ATOM      8  N   UNL     1      24.568  -2.517   9.640  0.00  0.00    +0.000 N 
ATOM      9  H   UNL     1      25.173  -2.814  10.390  0.00  0.00    +0.000 HD
ENDROOT
BRANCH   8  10
ATOM     10  C   UNL     1      23.422  -1.789   9.980  0.00  0.00    +0.000 A 
ATOM     11  C   UNL     1      22.518  -2.224  10.954  0.00  0.00    +0.000 A 
ATOM     12  C   UNL     1      21.433  -1.446  11.356  0.00  0.00    +0.000 A 
ATOM     13  C   UNL     1      21.256  -0.187  10.793  0.00  0.00    +0.000 A 
ATOM     14  C   UNL     1      22.148   0.276   9.829  0.00  0.00    +0.000 A 
ATOM     15  C   UNL     1      23.222  -0.520   9.429  0.00  0.00    +0.000 A 
BRANCH  12  16
ATOM     16  N   UNL     1      20.543  -2.007  12.289  0.00  0.00    +0.000 N 
ATOM     17  C   UNL     1      20.301  -1.538  13.568  0.00  0.00    +0.000 C 
ATOM     18  O   UNL     1      20.944  -0.639  14.107  0.00  0.00    +0.000 OA
ATOM     19  N   UNL     1      19.262  -2.203  14.219  0.00  0.00    +0.000 N 
ATOM     20  C   UNL     1      18.443  -3.224  13.841  0.00  0.00    +0.000 A 
ATOM     21  C   UNL     1      18.777  -1.999  15.476  0.00  0.00    +0.000 A 
ATOM     22  C   UNL     1      17.384  -3.769  14.806  0.00  0.00    +0.000 A 
ATOM     23  C   UNL     1      17.631  -2.860  16.019  0.00  0.00    +0.000 A 
ATOM     24  H   UNL     1      20.095  -2.875  12.020  0.00  0.00    +0.000 HD
ENDBRANCH  12  16
ENDBRANCH   8  10
BRANCH   4  25
ATOM     25  N   UNL     1      24.261  -2.514   4.899  0.00  0.00    +0.000 N 
ATOM     26  H   UNL     1      23.641  -3.295   4.695  0.00  0.00    +0.000 HD
BRANCH  25  27
ATOM     27  C   UNL     1      23.618  -1.204   4.845  0.00  0.00    +0.000 C 
BRANCH  27  28
ATOM     28  C   UNL     1      22.850   0.121   4.812  0.00  0.00    +0.000 C 
ATOM     29  C   UNL     1      22.002   1.396   4.789  0.00  0.00    +0.000 C 
BRANCH  29  30
ATOM     30  N   UNL     1      21.215   2.496   4.800  0.00  0.00    +0.000 N 
ATOM     31  C   UNL     1      20.069   2.739   5.544  0.00  0.00    +0.000 C 
ATOM     32  O   UNL     1      19.648   1.911   6.350  0.00  0.00    +0.000 OA
ATOM     33  H   UNL     1      21.489   3.195   4.119  0.00  0.00    +0.000 HD
BRANCH  31  34
ATOM     34  C   UNL     1      19.423   4.012   5.274  0.00  0.00    +0.000 A 
ATOM     35  S   UNL     1      18.208   4.119   4.059  0.00  0.00    +0.000 S 
ATOM     36  C   UNL     1      18.004   5.779   4.333  0.00  0.00    +0.000 A 
ATOM     37  C   UNL     1      18.820   6.267   5.315  0.00  0.00    +0.000 A 
ATOM     38  C   UNL     1      19.635   5.246   5.854  0.00  0.00    +0.000 A 
ENDBRANCH  31  34
ENDBRANCH  29  30
ENDBRANCH  27  28
ENDBRANCH  25  27
ENDBRANCH   4  25
TORSDOF 7
ENDMDL
