MODEL 1
REMARK VINA RESULT:      -3.0      0.000      0.000
REMARK  Name = CadmiumAcetate.pdbqt.pdb
REMARK  1 active torsions:
REMARK  status: ('A' for Active; 'I' for Inactive)
REMARK    1  A    between atoms: C_3  and  O_4
REMARK                            x       y       z     vdW  Elec       q    Type
REMARK                         _______ _______ _______ _____ _____    ______ ____
ROOT
ATOM      1  O   UNL     1       9.225  25.233  27.353  0.00  0.00    +0.000 OA
ATOM      2  C   UNL     1       9.306  27.091  26.000  0.00  0.00    +0.000 C 
ATOM      3  C   UNL     1       8.642  25.873  26.503  0.00  0.00    +0.000 C 
ENDROOT
BRANCH   3   4
ATOM      4  O   UNL     1       7.454  25.590  25.970  0.00  0.00    +0.000 OA
ATOM      5  H   UNL     1       7.503  26.025  25.098  0.00  0.00    +0.000 HD
ENDBRANCH   3   4
TORSDOF 1
ENDMDL
MODEL 2
REMARK VINA RESULT:      -3.0     21.624     22.108
REMARK  Name = CadmiumAcetate.pdbqt.pdb
REMARK  1 active torsions:
REMARK  status: ('A' for Active; 'I' for Inactive)
REMARK    1  A    between atoms: C_3  and  O_4
REMARK                            x       y       z     vdW  Elec       q    Type
REMARK                         _______ _______ _______ _____ _____    ______ ____
ROOT
ATOM      1  O   UNL     1       1.906  10.377  10.760  0.00  0.00    +0.000 OA
ATOM      2  C   UNL     1       4.114  11.012  10.837  0.00  0.00    +0.000 C 
ATOM      3  C   UNL     1       2.780  10.861  11.448  0.00  0.00    +0.000 C 
ENDROOT
BRANCH   3   4
ATOM      4  O   UNL     1       2.663  11.273  12.710  0.00  0.00    +0.000 OA
ATOM      5  H   UNL     1       1.886  10.775  13.025  0.00  0.00    +0.000 HD
ENDBRANCH   3   4
TORSDOF 1
ENDMDL
MODEL 3
REMARK VINA RESULT:      -2.9     24.833     25.253
REMARK  Name = CadmiumAcetate.pdbqt.pdb
REMARK  1 active torsions:
REMARK  status: ('A' for Active; 'I' for Inactive)
REMARK    1  A    between atoms: C_3  and  O_4
REMARK                            x       y       z     vdW  Elec       q    Type
REMARK                         _______ _______ _______ _____ _____    ______ ____
ROOT
ATOM      1  O   UNL     1      19.328   2.546  21.866  0.00  0.00    +0.000 OA
ATOM      2  C   UNL     1      19.045   2.854  24.127  0.00  0.00    +0.000 C 
ATOM      3  C   UNL     1      19.204   3.365  22.753  0.00  0.00    +0.000 C 
ENDROOT
BRANCH   3   4
ATOM      4  O   UNL     1      19.196   4.690  22.615  0.00  0.00    +0.000 OA
ATOM      5  H   UNL     1      20.138   4.895  22.469  0.00  0.00    +0.000 HD
ENDBRANCH   3   4
TORSDOF 1
ENDMDL
MODEL 4
REMARK VINA RESULT:      -2.7     15.237     15.360
REMARK  Name = CadmiumAcetate.pdbqt.pdb
REMARK  1 active torsions:
REMARK  status: ('A' for Active; 'I' for Inactive)
REMARK    1  A    between atoms: C_3  and  O_4
REMARK                            x       y       z     vdW  Elec       q    Type
REMARK                         _______ _______ _______ _____ _____    ______ ____
ROOT
ATOM      1  O   UNL     1      23.184  21.785  23.269  0.00  0.00    +0.000 OA
ATOM      2  C   UNL     1      22.439  20.583  25.082  0.00  0.00    +0.000 C 
ATOM      3  C   UNL     1      22.741  20.720  23.645  0.00  0.00    +0.000 C 
ENDROOT
BRANCH   3   4
ATOM      4  O   UNL     1      22.498  19.650  22.890  0.00  0.00    +0.000 OA
ATOM      5  H   UNL     1      21.534  19.537  22.986  0.00  0.00    +0.000 HD
ENDBRANCH   3   4
TORSDOF 1
ENDMDL
MODEL 5
REMARK VINA RESULT:      -2.6     11.481     11.797
REMARK  Name = CadmiumAcetate.pdbqt.pdb
REMARK  1 active torsions:
REMARK  status: ('A' for Active; 'I' for Inactive)
REMARK    1  A    between atoms: C_3  and  O_4
REMARK                            x       y       z     vdW  Elec       q    Type
REMARK                         _______ _______ _______ _____ _____    ______ ____
ROOT
ATOM      1  O   UNL     1      13.960  15.455  30.517  0.00  0.00    +0.000 OA
ATOM      2  C   UNL     1      12.188  16.221  29.269  0.00  0.00    +0.000 C 
ATOM      3  C   UNL     1      13.540  15.646  29.395  0.00  0.00    +0.000 C 
ENDROOT
BRANCH   3   4
ATOM      4  O   UNL     1      14.176  15.386  28.254  0.00  0.00    +0.000 OA
ATOM      5  H   UNL     1      14.731  14.620  28.489  0.00  0.00    +0.000 HD
ENDBRANCH   3   4
TORSDOF 1
ENDMDL
MODEL 6
REMARK VINA RESULT:      -2.5     12.754     13.378
REMARK  Name = CadmiumAcetate.pdbqt.pdb
REMARK  1 active torsions:
REMARK  status: ('A' for Active; 'I' for Inactive)
REMARK    1  A    between atoms: C_3  and  O_4
REMARK                            x       y       z     vdW  Elec       q    Type
REMARK                         _______ _______ _______ _____ _____    ______ ____
ROOT
ATOM      1  O   UNL     1      -0.977  27.852  16.606  0.00  0.00    +0.000 OA
ATOM      2  C   UNL     1       0.474  29.358  15.650  0.00  0.00    +0.000 C 
ATOM      3  C   UNL     1      -0.050  28.609  16.808  0.00  0.00    +0.000 C 
ENDROOT
BRANCH   3   4
ATOM      4  O   UNL     1       0.550  28.837  17.975  0.00  0.00    +0.000 OA
ATOM      5  H   UNL     1       0.681  29.803  17.961  0.00  0.00    +0.000 HD
ENDBRANCH   3   4
TORSDOF 1
ENDMDL
MODEL 7
REMARK VINA RESULT:      -2.3      9.454     10.046
REMARK  Name = CadmiumAcetate.pdbqt.pdb
REMARK  1 active torsions:
REMARK  status: ('A' for Active; 'I' for Inactive)
REMARK    1  A    between atoms: C_3  and  O_4
REMARK                            x       y       z     vdW  Elec       q    Type
REMARK                         _______ _______ _______ _____ _____    ______ ____
ROOT
ATOM      1  O   UNL     1      11.047  18.026  28.864  0.00  0.00    +0.000 OA
ATOM      2  C   UNL     1      11.543  16.371  30.381  0.00  0.00    +0.000 C 
ATOM      3  C   UNL     1      11.240  16.838  29.015  0.00  0.00    +0.000 C 
ENDROOT
BRANCH   3   4
ATOM      4  O   UNL     1      11.208  15.901  28.068  0.00  0.00    +0.000 OA
ATOM      5  H   UNL     1      10.252  15.744  27.957  0.00  0.00    +0.000 HD
ENDBRANCH   3   4
TORSDOF 1
ENDMDL
MODEL 8
REMARK VINA RESULT:      -2.2     10.275     10.666
REMARK  Name = CadmiumAcetate.pdbqt.pdb
REMARK  1 active torsions:
REMARK  status: ('A' for Active; 'I' for Inactive)
REMARK    1  A    between atoms: C_3  and  O_4
REMARK                            x       y       z     vdW  Elec       q    Type
REMARK                         _______ _______ _______ _____ _____    ______ ____
ROOT
ATOM      1  O   UNL     1      13.056  32.607  20.816  0.00  0.00    +0.000 OA
ATOM      2  C   UNL     1      14.549  33.420  19.267  0.00  0.00    +0.000 C 
ATOM      3  C   UNL     1      14.065  32.371  20.184  0.00  0.00    +0.000 C 
ENDROOT
BRANCH   3   4
ATOM      4  O   UNL     1      14.788  31.253  20.232  0.00  0.00    +0.000 OA
ATOM      5  H   UNL     1      14.885  31.023  19.289  0.00  0.00    +0.000 HD
ENDBRANCH   3   4
TORSDOF 1
ENDMDL
MODEL 9
REMARK VINA RESULT:      -2.2     21.942     22.213
REMARK  Name = CadmiumAcetate.pdbqt.pdb
REMARK  1 active torsions:
REMARK  status: ('A' for Active; 'I' for Inactive)
REMARK    1  A    between atoms: C_3  and  O_4
REMARK                            x       y       z     vdW  Elec       q    Type
REMARK                         _______ _______ _______ _____ _____    ______ ____
ROOT
ATOM      1  O   UNL     1      20.631  29.493   8.897  0.00  0.00    +0.000 OA
ATOM      2  C   UNL     1      21.200  28.984   6.729  0.00  0.00    +0.000 C 
ATOM      3  C   UNL     1      20.305  28.888   7.897  0.00  0.00    +0.000 C 
ENDROOT
BRANCH   3   4
ATOM      4  O   UNL     1      19.213  28.142   7.740  0.00  0.00    +0.000 OA
ATOM      5  H   UNL     1      19.459  27.557   6.999  0.00  0.00    +0.000 HD
ENDBRANCH   3   4
TORSDOF 1
ENDMDL
