MODEL 1
REMARK VINA RESULT:      -6.2      0.000      0.000
REMARK  Name = Calcitriol.pdbqt.pdb
REMARK  9 active torsions:
REMARK  status: ('A' for Active; 'I' for Inactive)
REMARK    1  A    between atoms: C_2  and  C_24
REMARK    2  A    between atoms: C_7  and  C_11
REMARK    3  A    between atoms: C_12  and  C_13
REMARK    4  A    between atoms: C_16  and  O_20
REMARK    5  A    between atoms: C_18  and  O_22
REMARK    6  A    between atoms: C_24  and  C_26
REMARK    7  A    between atoms: C_27  and  C_28
REMARK    8  A    between atoms: C_28  and  C_29
REMARK    9  A    between atoms: C_29  and  O_32
REMARK                            x       y       z     vdW  Elec       q    Type
REMARK                         _______ _______ _______ _____ _____    ______ ____
ROOT
ATOM      1  C   UNL     1       6.199  20.083  31.806  0.00  0.00    +0.000 C 
ATOM      2  C   UNL     1       4.772  19.919  31.293  0.00  0.00    +0.000 C 
ATOM      3  C   UNL     1       6.691  21.451  31.082  0.00  0.00    +0.000 C 
ATOM      4  C   UNL     1       4.401  21.067  30.531  0.00  0.00    +0.000 C 
ATOM      5  C   UNL     1       5.559  22.020  30.420  0.00  0.00    +0.000 C 
ATOM      6  C   UNL     1       7.126  19.023  31.375  0.00  0.00    +0.000 C 
ATOM      7  C   UNL     1       8.036  21.554  30.503  0.00  0.00    +0.000 C 
ATOM      8  C   UNL     1       6.214  20.357  33.337  0.00  0.00    +0.000 C 
ATOM      9  C   UNL     1       8.465  18.866  30.676  0.00  0.00    +0.000 C 
ATOM     10  C   UNL     1       8.726  20.322  30.352  0.00  0.00    +0.000 C 
ENDROOT
BRANCH   7  11
ATOM     11  C   UNL     1       8.543  22.644  30.017  0.00  0.00    +0.000 C 
ATOM     12  C   UNL     1       9.129  23.936  29.436  0.00  0.00    +0.000 C 
BRANCH  12  13
ATOM     13  C   UNL     1       9.617  25.034  28.944  0.00  0.00    +0.000 A 
ATOM     14  C   UNL     1      10.746  25.652  29.572  0.00  0.00    +0.000 A 
ATOM     15  C   UNL     1       9.087  25.805  27.774  0.00  0.00    +0.000 A 
ATOM     16  C   UNL     1      11.469  26.852  29.313  0.00  0.00    +0.000 A 
ATOM     17  C   UNL     1      10.857  27.480  28.192  0.00  0.00    +0.000 A 
ATOM     18  C   UNL     1       9.746  27.092  27.389  0.00  0.00    +0.000 A 
ATOM     19  C   UNL     1       8.038  25.373  27.049  0.00  0.00    +0.000 C 
BRANCH  16  20
ATOM     20  O   UNL     1      12.812  26.934  29.546  0.00  0.00    +0.000 OA
ATOM     21  H   UNL     1      13.026  27.701  30.102  0.00  0.00    +0.000 HD
ENDBRANCH  16  20
BRANCH  18  22
ATOM     22  O   UNL     1       9.310  27.838  26.321  0.00  0.00    +0.000 OA
ATOM     23  H   UNL     1       8.402  27.577  26.075  0.00  0.00    +0.000 HD
ENDBRANCH  18  22
ENDBRANCH  12  13
ENDBRANCH   7  11
BRANCH   2  24
ATOM     24  C   UNL     1       3.881  18.863  31.657  0.00  0.00    +0.000 C 
ATOM     25  C   UNL     1       2.702  19.062  32.574  0.00  0.00    +0.000 C 
BRANCH  24  26
ATOM     26  C   UNL     1       4.168  17.512  31.320  0.00  0.00    +0.000 C 
ATOM     27  C   UNL     1       4.464  16.049  30.965  0.00  0.00    +0.000 C 
BRANCH  27  28
ATOM     28  C   UNL     1       4.749  14.583  30.618  0.00  0.00    +0.000 C 
BRANCH  28  29
ATOM     29  C   UNL     1       5.016  13.183  30.288  0.00  0.00    +0.000 C 
ATOM     30  C   UNL     1       5.338  12.331  31.521  0.00  0.00    +0.000 C 
ATOM     31  C   UNL     1       3.901  12.535  29.460  0.00  0.00    +0.000 C 
BRANCH  29  32
ATOM     32  O   UNL     1       6.167  13.116  29.475  0.00  0.00    +0.000 OA
ATOM     33  H   UNL     1       5.729  13.044  28.614  0.00  0.00    +0.000 HD
ENDBRANCH  29  32
ENDBRANCH  28  29
ENDBRANCH  27  28
ENDBRANCH  24  26
ENDBRANCH   2  24
TORSDOF 9
ENDMDL
MODEL 2
REMARK VINA RESULT:      -6.1     23.369     25.293
REMARK  Name = Calcitriol.pdbqt.pdb
REMARK  9 active torsions:
REMARK  status: ('A' for Active; 'I' for Inactive)
REMARK    1  A    between atoms: C_2  and  C_24
REMARK    2  A    between atoms: C_7  and  C_11
REMARK    3  A    between atoms: C_12  and  C_13
REMARK    4  A    between atoms: C_16  and  O_20
REMARK    5  A    between atoms: C_18  and  O_22
REMARK    6  A    between atoms: C_24  and  C_26
REMARK    7  A    between atoms: C_27  and  C_28
REMARK    8  A    between atoms: C_28  and  C_29
REMARK    9  A    between atoms: C_29  and  O_32
REMARK                            x       y       z     vdW  Elec       q    Type
REMARK                         _______ _______ _______ _____ _____    ______ ____
ROOT
ATOM      1  C   UNL     1      29.686  13.294  17.804  0.00  0.00    +0.000 C 
ATOM      2  C   UNL     1      29.108  13.082  19.200  0.00  0.00    +0.000 C 
ATOM      3  C   UNL     1      29.667  14.910  17.644  0.00  0.00    +0.000 C 
ATOM      4  C   UNL     1      28.928  14.343  19.841  0.00  0.00    +0.000 C 
ATOM      5  C   UNL     1      29.294  15.465  18.908  0.00  0.00    +0.000 C 
ATOM      6  C   UNL     1      28.857  12.755  16.713  0.00  0.00    +0.000 C 
ATOM      7  C   UNL     1      29.240  15.538  16.388  0.00  0.00    +0.000 C 
ATOM      8  C   UNL     1      31.177  12.857  17.746  0.00  0.00    +0.000 C 
ATOM      9  C   UNL     1      28.205  13.207  15.418  0.00  0.00    +0.000 C 
ATOM     10  C   UNL     1      28.576  14.675  15.476  0.00  0.00    +0.000 C 
ENDROOT
BRANCH   7  11
ATOM     11  C   UNL     1      29.310  16.809  16.143  0.00  0.00    +0.000 C 
ATOM     12  C   UNL     1      29.384  18.310  15.841  0.00  0.00    +0.000 C 
BRANCH  12  13
ATOM     13  C   UNL     1      29.440  19.581  15.581  0.00  0.00    +0.000 A 
ATOM     14  C   UNL     1      29.449  20.025  14.219  0.00  0.00    +0.000 A 
ATOM     15  C   UNL     1      29.557  20.695  16.575  0.00  0.00    +0.000 A 
ATOM     16  C   UNL     1      29.547  21.312  13.615  0.00  0.00    +0.000 A 
ATOM     17  C   UNL     1      29.660  22.265  14.666  0.00  0.00    +0.000 A 
ATOM     18  C   UNL     1      29.675  22.103  16.082  0.00  0.00    +0.000 A 
ATOM     19  C   UNL     1      29.552  20.473  17.902  0.00  0.00    +0.000 C 
BRANCH  16  20
ATOM     20  O   UNL     1      28.903  21.596  12.445  0.00  0.00    +0.000 OA
ATOM     21  H   UNL     1      28.651  20.784  11.975  0.00  0.00    +0.000 HD
ENDBRANCH  16  20
BRANCH  18  22
ATOM     22  O   UNL     1      29.777  23.167  16.945  0.00  0.00    +0.000 OA
ATOM     23  H   UNL     1      30.337  23.866  16.555  0.00  0.00    +0.000 HD
ENDBRANCH  18  22
ENDBRANCH  12  13
ENDBRANCH   7  11
BRANCH   2  24
ATOM     24  C   UNL     1      28.932  11.814  19.835  0.00  0.00    +0.000 C 
ATOM     25  C   UNL     1      29.691  10.578  19.426  0.00  0.00    +0.000 C 
BRANCH  24  26
ATOM     26  C   UNL     1      27.885  11.602  20.774  0.00  0.00    +0.000 C 
ATOM     27  C   UNL     1      26.762  11.358  21.789  0.00  0.00    +0.000 C 
BRANCH  27  28
ATOM     28  C   UNL     1      25.642  11.100  22.805  0.00  0.00    +0.000 C 
BRANCH  28  29
ATOM     29  C   UNL     1      24.572  10.853  23.771  0.00  0.00    +0.000 C 
ATOM     30  C   UNL     1      25.028  10.002  24.961  0.00  0.00    +0.000 C 
ATOM     31  C   UNL     1      23.888  12.137  24.255  0.00  0.00    +0.000 C 
BRANCH  29  32
ATOM     32  O   UNL     1      23.553  10.106  23.145  0.00  0.00    +0.000 OA
ATOM     33  H   UNL     1      22.831  10.306  23.759  0.00  0.00    +0.000 HD
ENDBRANCH  29  32
ENDBRANCH  28  29
ENDBRANCH  27  28
ENDBRANCH  24  26
ENDBRANCH   2  24
TORSDOF 9
ENDMDL
MODEL 3
REMARK VINA RESULT:      -6.0      4.245      6.353
REMARK  Name = Calcitriol.pdbqt.pdb
REMARK  9 active torsions:
REMARK  status: ('A' for Active; 'I' for Inactive)
REMARK    1  A    between atoms: C_2  and  C_24
REMARK    2  A    between atoms: C_7  and  C_11
REMARK    3  A    between atoms: C_12  and  C_13
REMARK    4  A    between atoms: C_16  and  O_20
REMARK    5  A    between atoms: C_18  and  O_22
REMARK    6  A    between atoms: C_24  and  C_26
REMARK    7  A    between atoms: C_27  and  C_28
REMARK    8  A    between atoms: C_28  and  C_29
REMARK    9  A    between atoms: C_29  and  O_32
REMARK                            x       y       z     vdW  Elec       q    Type
REMARK                         _______ _______ _______ _____ _____    ______ ____
ROOT
ATOM      1  C   UNL     1      11.530  17.723  31.436  0.00  0.00    +0.000 C 
ATOM      2  C   UNL     1      11.760  16.721  30.308  0.00  0.00    +0.000 C 
ATOM      3  C   UNL     1      10.383  18.698  30.827  0.00  0.00    +0.000 C 
ATOM      4  C   UNL     1      10.808  16.941  29.269  0.00  0.00    +0.000 C 
ATOM      5  C   UNL     1       9.944  18.130  29.590  0.00  0.00    +0.000 C 
ATOM      6  C   UNL     1      12.690  18.578  31.737  0.00  0.00    +0.000 C 
ATOM      7  C   UNL     1      10.459  20.153  31.004  0.00  0.00    +0.000 C 
ATOM      8  C   UNL     1      10.911  17.028  32.681  0.00  0.00    +0.000 C 
ATOM      9  C   UNL     1      13.048  20.048  31.858  0.00  0.00    +0.000 C 
ATOM     10  C   UNL     1      11.715  20.643  31.452  0.00  0.00    +0.000 C 
ENDROOT
BRANCH   7  11
ATOM     11  C   UNL     1       9.528  20.984  30.654  0.00  0.00    +0.000 C 
ATOM     12  C   UNL     1       8.434  21.978  30.247  0.00  0.00    +0.000 C 
BRANCH  12  13
ATOM     13  C   UNL     1       7.513  22.827  29.903  0.00  0.00    +0.000 A 
ATOM     14  C   UNL     1       7.801  23.824  28.917  0.00  0.00    +0.000 A 
ATOM     15  C   UNL     1       6.135  22.934  30.478  0.00  0.00    +0.000 A 
ATOM     16  C   UNL     1       7.044  24.900  28.369  0.00  0.00    +0.000 A 
ATOM     17  C   UNL     1       5.771  24.888  29.006  0.00  0.00    +0.000 A 
ATOM     18  C   UNL     1       5.228  24.024  30.000  0.00  0.00    +0.000 A 
ATOM     19  C   UNL     1       5.678  22.075  31.408  0.00  0.00    +0.000 C 
BRANCH  16  20
ATOM     20  O   UNL     1       7.200  25.286  27.070  0.00  0.00    +0.000 OA
ATOM     21  H   UNL     1       7.182  26.254  26.985  0.00  0.00    +0.000 HD
ENDBRANCH  16  20
BRANCH  18  22
ATOM     22  O   UNL     1       3.949  24.168  30.485  0.00  0.00    +0.000 OA
ATOM     23  H   UNL     1       3.373  23.463  30.132  0.00  0.00    +0.000 HD
ENDBRANCH  18  22
ENDBRANCH  12  13
ENDBRANCH   7  11
BRANCH   2  24
ATOM     24  C   UNL     1      12.674  15.624  30.354  0.00  0.00    +0.000 C 
ATOM     25  C   UNL     1      14.096  15.718  29.862  0.00  0.00    +0.000 C 
BRANCH  24  26
ATOM     26  C   UNL     1      12.236  14.317  30.699  0.00  0.00    +0.000 C 
ATOM     27  C   UNL     1      11.772  12.900  31.060  0.00  0.00    +0.000 C 
BRANCH  27  28
ATOM     28  C   UNL     1      11.316  11.478  31.409  0.00  0.00    +0.000 C 
BRANCH  28  29
ATOM     29  C   UNL     1      10.883  10.120  31.739  0.00  0.00    +0.000 C 
ATOM     30  C   UNL     1      11.118   9.762  33.212  0.00  0.00    +0.000 C 
ATOM     31  C   UNL     1       9.431   9.835  31.339  0.00  0.00    +0.000 C 
BRANCH  29  32
ATOM     32  O   UNL     1      11.657   9.200  31.002  0.00  0.00    +0.000 OA
ATOM     33  H   UNL     1      10.936   8.731  30.557  0.00  0.00    +0.000 HD
ENDBRANCH  29  32
ENDBRANCH  28  29
ENDBRANCH  27  28
ENDBRANCH  24  26
ENDBRANCH   2  24
TORSDOF 9
ENDMDL
MODEL 4
REMARK VINA RESULT:      -5.6      5.326      7.823
REMARK  Name = Calcitriol.pdbqt.pdb
REMARK  9 active torsions:
REMARK  status: ('A' for Active; 'I' for Inactive)
REMARK    1  A    between atoms: C_2  and  C_24
REMARK    2  A    between atoms: C_7  and  C_11
REMARK    3  A    between atoms: C_12  and  C_13
REMARK    4  A    between atoms: C_16  and  O_20
REMARK    5  A    between atoms: C_18  and  O_22
REMARK    6  A    between atoms: C_24  and  C_26
REMARK    7  A    between atoms: C_27  and  C_28
REMARK    8  A    between atoms: C_28  and  C_29
REMARK    9  A    between atoms: C_29  and  O_32
REMARK                            x       y       z     vdW  Elec       q    Type
REMARK                         _______ _______ _______ _____ _____    ______ ____
ROOT
ATOM      1  C   UNL     1       9.250  25.268  29.284  0.00  0.00    +0.000 C 
ATOM      2  C   UNL     1       8.407  25.398  30.549  0.00  0.00    +0.000 C 
ATOM      3  C   UNL     1       9.921  26.739  29.141  0.00  0.00    +0.000 C 
ATOM      4  C   UNL     1       8.651  26.663  31.160  0.00  0.00    +0.000 C 
ATOM      5  C   UNL     1       9.597  27.479  30.322  0.00  0.00    +0.000 C 
ATOM      6  C   UNL     1       8.473  25.040  28.055  0.00  0.00    +0.000 C 
ATOM      7  C   UNL     1      10.009  27.403  27.835  0.00  0.00    +0.000 C 
ATOM      8  C   UNL     1      10.418  24.263  29.494  0.00  0.00    +0.000 C 
ATOM      9  C   UNL     1       8.295  25.631  26.668  0.00  0.00    +0.000 C 
ATOM     10  C   UNL     1       9.217  26.825  26.808  0.00  0.00    +0.000 C 
ENDROOT
BRANCH   7  11
ATOM     11  C   UNL     1      10.633  28.519  27.620  0.00  0.00    +0.000 C 
ATOM     12  C   UNL     1      11.359  29.844  27.359  0.00  0.00    +0.000 C 
BRANCH  12  13
ATOM     13  C   UNL     1      11.966  30.970  27.136  0.00  0.00    +0.000 A 
ATOM     14  C   UNL     1      11.481  31.846  26.112  0.00  0.00    +0.000 A 
ATOM     15  C   UNL     1      13.206  31.469  27.812  0.00  0.00    +0.000 A 
ATOM     16  C   UNL     1      11.936  33.097  25.604  0.00  0.00    +0.000 A 
ATOM     17  C   UNL     1      13.114  33.442  26.325  0.00  0.00    +0.000 A 
ATOM     18  C   UNL     1      13.802  32.770  27.375  0.00  0.00    +0.000 A 
ATOM     19  C   UNL     1      13.800  30.788  28.810  0.00  0.00    +0.000 C 
BRANCH  16  20
ATOM     20  O   UNL     1      11.059  34.040  25.154  0.00  0.00    +0.000 OA
ATOM     21  H   UNL     1      10.625  33.755  24.333  0.00  0.00    +0.000 HD
ENDBRANCH  16  20
BRANCH  18  22
ATOM     22  O   UNL     1      14.934  33.282  27.963  0.00  0.00    +0.000 OA
ATOM     23  H   UNL     1      14.706  34.052  28.519  0.00  0.00    +0.000 HD
ENDBRANCH  18  22
ENDBRANCH  12  13
ENDBRANCH   7  11
BRANCH   2  24
ATOM     24  C   UNL     1       7.623  24.353  31.127  0.00  0.00    +0.000 C 
ATOM     25  C   UNL     1       8.190  23.329  32.076  0.00  0.00    +0.000 C 
BRANCH  24  26
ATOM     26  C   UNL     1       6.292  24.107  30.691  0.00  0.00    +0.000 C 
ATOM     27  C   UNL     1       4.858  23.825  30.226  0.00  0.00    +0.000 C 
BRANCH  27  28
ATOM     28  C   UNL     1       3.425  23.530  29.764  0.00  0.00    +0.000 C 
BRANCH  28  29
ATOM     29  C   UNL     1       2.058  23.247  29.327  0.00  0.00    +0.000 C 
ATOM     30  C   UNL     1       1.284  22.375  30.322  0.00  0.00    +0.000 C 
ATOM     31  C   UNL     1       1.261  24.510  28.982  0.00  0.00    +0.000 C 
BRANCH  29  32
ATOM     32  O   UNL     1       2.104  22.501  28.132  0.00  0.00    +0.000 OA
ATOM     33  H   UNL     1       3.066  22.420  28.051  0.00  0.00    +0.000 HD
ENDBRANCH  29  32
ENDBRANCH  28  29
ENDBRANCH  27  28
ENDBRANCH  24  26
ENDBRANCH   2  24
TORSDOF 9
ENDMDL
MODEL 5
REMARK VINA RESULT:      -5.6     22.861     25.915
REMARK  Name = Calcitriol.pdbqt.pdb
REMARK  9 active torsions:
REMARK  status: ('A' for Active; 'I' for Inactive)
REMARK    1  A    between atoms: C_2  and  C_24
REMARK    2  A    between atoms: C_7  and  C_11
REMARK    3  A    between atoms: C_12  and  C_13
REMARK    4  A    between atoms: C_16  and  O_20
REMARK    5  A    between atoms: C_18  and  O_22
REMARK    6  A    between atoms: C_24  and  C_26
REMARK    7  A    between atoms: C_27  and  C_28
REMARK    8  A    between atoms: C_28  and  C_29
REMARK    9  A    between atoms: C_29  and  O_32
REMARK                            x       y       z     vdW  Elec       q    Type
REMARK                         _______ _______ _______ _____ _____    ______ ____
ROOT
ATOM      1  C   UNL     1      29.540  12.174  19.919  0.00  0.00    +0.000 C 
ATOM      2  C   UNL     1      29.259  11.605  18.532  0.00  0.00    +0.000 C 
ATOM      3  C   UNL     1      28.417  11.451  20.843  0.00  0.00    +0.000 C 
ATOM      4  C   UNL     1      28.259  10.592  18.622  0.00  0.00    +0.000 C 
ATOM      5  C   UNL     1      27.758  10.471  20.035  0.00  0.00    +0.000 C 
ATOM      6  C   UNL     1      29.312  13.624  20.040  0.00  0.00    +0.000 C 
ATOM      7  C   UNL     1      27.681  12.207  21.864  0.00  0.00    +0.000 C 
ATOM      8  C   UNL     1      30.924  11.701  20.446  0.00  0.00    +0.000 C 
ATOM      9  C   UNL     1      28.534  14.609  20.894  0.00  0.00    +0.000 C 
ATOM     10  C   UNL     1      27.795  13.619  21.770  0.00  0.00    +0.000 C 
ENDROOT
BRANCH   7  11
ATOM     11  C   UNL     1      26.860  11.679  22.716  0.00  0.00    +0.000 C 
ATOM     12  C   UNL     1      25.899  11.054  23.734  0.00  0.00    +0.000 C 
BRANCH  12  13
ATOM     13  C   UNL     1      25.090  10.527  24.604  0.00  0.00    +0.000 A 
ATOM     14  C   UNL     1      24.156  11.361  25.298  0.00  0.00    +0.000 A 
ATOM     15  C   UNL     1      25.048   9.094  25.034  0.00  0.00    +0.000 A 
ATOM     16  C   UNL     1      23.192  11.107  26.316  0.00  0.00    +0.000 A 
ATOM     17  C   UNL     1      23.266   9.720  26.630  0.00  0.00    +0.000 A 
ATOM     18  C   UNL     1      24.085   8.681  26.103  0.00  0.00    +0.000 A 
ATOM     19  C   UNL     1      25.843   8.158  24.484  0.00  0.00    +0.000 C 
BRANCH  16  20
ATOM     20  O   UNL     1      22.017  11.800  26.368  0.00  0.00    +0.000 OA
ATOM     21  H   UNL     1      21.254  11.208  26.264  0.00  0.00    +0.000 HD
ENDBRANCH  16  20
BRANCH  18  22
ATOM     22  O   UNL     1      23.995   7.379  26.534  0.00  0.00    +0.000 OA
ATOM     23  H   UNL     1      24.114   6.766  25.783  0.00  0.00    +0.000 HD
ENDBRANCH  18  22
ENDBRANCH  12  13
ENDBRANCH   7  11
BRANCH   2  24
ATOM     24  C   UNL     1      29.999  11.914  17.349  0.00  0.00    +0.000 C 
ATOM     25  C   UNL     1      31.383  11.379  17.082  0.00  0.00    +0.000 C 
BRANCH  24  26
ATOM     26  C   UNL     1      29.543  12.902  16.435  0.00  0.00    +0.000 C 
ATOM     27  C   UNL     1      29.036  13.970  15.457  0.00  0.00    +0.000 C 
BRANCH  27  28
ATOM     28  C   UNL     1      28.518  15.039  14.486  0.00  0.00    +0.000 C 
BRANCH  28  29
ATOM     29  C   UNL     1      28.027  16.058  13.558  0.00  0.00    +0.000 C 
ATOM     30  C   UNL     1      29.056  16.429  12.483  0.00  0.00    +0.000 C 
ATOM     31  C   UNL     1      26.684  15.693  12.917  0.00  0.00    +0.000 C 
BRANCH  29  32
ATOM     32  O   UNL     1      27.785  17.249  14.272  0.00  0.00    +0.000 OA
ATOM     33  H   UNL     1      27.964  16.919  15.165  0.00  0.00    +0.000 HD
ENDBRANCH  29  32
ENDBRANCH  28  29
ENDBRANCH  27  28
ENDBRANCH  24  26
ENDBRANCH   2  24
TORSDOF 9
ENDMDL
MODEL 6
REMARK VINA RESULT:      -5.5      7.543     16.474
REMARK  Name = Calcitriol.pdbqt.pdb
REMARK  9 active torsions:
REMARK  status: ('A' for Active; 'I' for Inactive)
REMARK    1  A    between atoms: C_2  and  C_24
REMARK    2  A    between atoms: C_7  and  C_11
REMARK    3  A    between atoms: C_12  and  C_13
REMARK    4  A    between atoms: C_16  and  O_20
REMARK    5  A    between atoms: C_18  and  O_22
REMARK    6  A    between atoms: C_24  and  C_26
REMARK    7  A    between atoms: C_27  and  C_28
REMARK    8  A    between atoms: C_28  and  C_29
REMARK    9  A    between atoms: C_29  and  O_32
REMARK                            x       y       z     vdW  Elec       q    Type
REMARK                         _______ _______ _______ _____ _____    ______ ____
ROOT
ATOM      1  C   UNL     1      13.033  33.319  25.654  0.00  0.00    +0.000 C 
ATOM      2  C   UNL     1      12.216  34.060  24.600  0.00  0.00    +0.000 C 
ATOM      3  C   UNL     1      12.228  31.918  25.819  0.00  0.00    +0.000 C 
ATOM      4  C   UNL     1      11.198  33.201  24.091  0.00  0.00    +0.000 C 
ATOM      5  C   UNL     1      11.215  31.881  24.810  0.00  0.00    +0.000 C 
ATOM      6  C   UNL     1      13.038  33.958  26.980  0.00  0.00    +0.000 C 
ATOM      7  C   UNL     1      11.994  31.336  27.146  0.00  0.00    +0.000 C 
ATOM      8  C   UNL     1      14.446  32.961  25.114  0.00  0.00    +0.000 C 
ATOM      9  C   UNL     1      12.734  33.626  28.430  0.00  0.00    +0.000 C 
ATOM     10  C   UNL     1      12.237  32.208  28.241  0.00  0.00    +0.000 C 
ENDROOT
BRANCH   7  11
ATOM     11  C   UNL     1      11.468  30.169  27.352  0.00  0.00    +0.000 C 
ATOM     12  C   UNL     1      10.854  28.784  27.586  0.00  0.00    +0.000 C 
BRANCH  12  13
ATOM     13  C   UNL     1      10.342  27.606  27.781  0.00  0.00    +0.000 A 
ATOM     14  C   UNL     1       9.204  27.193  27.016  0.00  0.00    +0.000 A 
ATOM     15  C   UNL     1      10.781  26.596  28.796  0.00  0.00    +0.000 A 
ATOM     16  C   UNL     1       8.402  26.016  27.023  0.00  0.00    +0.000 A 
ATOM     17  C   UNL     1       8.922  25.155  28.031  0.00  0.00    +0.000 A 
ATOM     18  C   UNL     1      10.024  25.311  28.920  0.00  0.00    +0.000 A 
ATOM     19  C   UNL     1      11.841  26.802  29.598  0.00  0.00    +0.000 C 
BRANCH  16  20
ATOM     20  O   UNL     1       7.844  25.533  25.874  0.00  0.00    +0.000 OA
ATOM     21  H   UNL     1       6.877  25.628  25.885  0.00  0.00    +0.000 HD
ENDBRANCH  16  20
BRANCH  18  22
ATOM     22  O   UNL     1      10.384  24.343  29.827  0.00  0.00    +0.000 OA
ATOM     23  H   UNL     1      10.986  24.717  30.499  0.00  0.00    +0.000 HD
ENDBRANCH  18  22
ENDBRANCH  12  13
ENDBRANCH   7  11
BRANCH   2  24
ATOM     24  C   UNL     1      12.525  35.354  24.078  0.00  0.00    +0.000 C 
ATOM     25  C   UNL     1      12.070  36.634  24.732  0.00  0.00    +0.000 C 
BRANCH  24  26
ATOM     26  C   UNL     1      13.127  35.506  22.799  0.00  0.00    +0.000 C 
ATOM     27  C   UNL     1      13.775  35.654  21.417  0.00  0.00    +0.000 C 
BRANCH  27  28
ATOM     28  C   UNL     1      14.422  35.788  20.033  0.00  0.00    +0.000 C 
BRANCH  28  29
ATOM     29  C   UNL     1      15.039  35.911  18.712  0.00  0.00    +0.000 C 
ATOM     30  C   UNL     1      16.520  35.515  18.708  0.00  0.00    +0.000 C 
ATOM     31  C   UNL     1      14.276  35.159  17.617  0.00  0.00    +0.000 C 
BRANCH  29  32
ATOM     32  O   UNL     1      15.012  37.265  18.318  0.00  0.00    +0.000 OA
ATOM     33  H   UNL     1      14.058  37.417  18.395  0.00  0.00    +0.000 HD
ENDBRANCH  29  32
ENDBRANCH  28  29
ENDBRANCH  27  28
ENDBRANCH  24  26
ENDBRANCH   2  24
TORSDOF 9
ENDMDL
MODEL 7
REMARK VINA RESULT:      -5.5     18.350     21.710
REMARK  Name = Calcitriol.pdbqt.pdb
REMARK  9 active torsions:
REMARK  status: ('A' for Active; 'I' for Inactive)
REMARK    1  A    between atoms: C_2  and  C_24
REMARK    2  A    between atoms: C_7  and  C_11
REMARK    3  A    between atoms: C_12  and  C_13
REMARK    4  A    between atoms: C_16  and  O_20
REMARK    5  A    between atoms: C_18  and  O_22
REMARK    6  A    between atoms: C_24  and  C_26
REMARK    7  A    between atoms: C_27  and  C_28
REMARK    8  A    between atoms: C_28  and  C_29
REMARK    9  A    between atoms: C_29  and  O_32
REMARK                            x       y       z     vdW  Elec       q    Type
REMARK                         _______ _______ _______ _____ _____    ______ ____
ROOT
ATOM      1  C   UNL     1      23.895  15.240  26.710  0.00  0.00    +0.000 C 
ATOM      2  C   UNL     1      23.676  16.683  26.266  0.00  0.00    +0.000 C 
ATOM      3  C   UNL     1      24.801  14.624  25.511  0.00  0.00    +0.000 C 
ATOM      4  C   UNL     1      24.448  16.948  25.096  0.00  0.00    +0.000 C 
ATOM      5  C   UNL     1      25.161  15.703  24.643  0.00  0.00    +0.000 C 
ATOM      6  C   UNL     1      22.669  14.428  26.768  0.00  0.00    +0.000 C 
ATOM      7  C   UNL     1      24.534  13.283  24.978  0.00  0.00    +0.000 C 
ATOM      8  C   UNL     1      24.761  15.180  28.000  0.00  0.00    +0.000 C 
ATOM      9  C   UNL     1      22.116  13.120  26.230  0.00  0.00    +0.000 C 
ATOM     10  C   UNL     1      23.285  12.720  25.355  0.00  0.00    +0.000 C 
ENDROOT
BRANCH   7  11
ATOM     11  C   UNL     1      25.281  12.677  24.109  0.00  0.00    +0.000 C 
ATOM     12  C   UNL     1      26.171  11.973  23.078  0.00  0.00    +0.000 C 
BRANCH  12  13
ATOM     13  C   UNL     1      26.930  11.384  22.205  0.00  0.00    +0.000 A 
ATOM     14  C   UNL     1      26.931   9.955  22.116  0.00  0.00    +0.000 A 
ATOM     15  C   UNL     1      27.896  12.043  21.269  0.00  0.00    +0.000 A 
ATOM     16  C   UNL     1      27.664   9.029  21.319  0.00  0.00    +0.000 A 
ATOM     17  C   UNL     1      28.540   9.785  20.491  0.00  0.00    +0.000 A 
ATOM     18  C   UNL     1      28.740  11.191  20.373  0.00  0.00    +0.000 A 
ATOM     19  C   UNL     1      28.027  13.380  21.199  0.00  0.00    +0.000 C 
BRANCH  16  20
ATOM     20  O   UNL     1      27.104   7.856  20.901  0.00  0.00    +0.000 OA
ATOM     21  H   UNL     1      26.950   7.253  21.647  0.00  0.00    +0.000 HD
ENDBRANCH  16  20
BRANCH  18  22
ATOM     22  O   UNL     1      29.638  11.738  19.488  0.00  0.00    +0.000 OA
ATOM     23  H   UNL     1      29.771  12.685  19.684  0.00  0.00    +0.000 HD
ENDBRANCH  18  22
ENDBRANCH  12  13
ENDBRANCH   7  11
BRANCH   2  24
ATOM     24  C   UNL     1      22.947  17.669  26.999  0.00  0.00    +0.000 C 
ATOM     25  C   UNL     1      21.794  17.330  27.909  0.00  0.00    +0.000 C 
BRANCH  24  26
ATOM     26  C   UNL     1      23.149  19.057  26.766  0.00  0.00    +0.000 C 
ATOM     27  C   UNL     1      23.385  20.552  26.515  0.00  0.00    +0.000 C 
BRANCH  27  28
ATOM     28  C   UNL     1      23.633  22.045  26.267  0.00  0.00    +0.000 C 
BRANCH  28  29
ATOM     29  C   UNL     1      23.872  23.467  26.026  0.00  0.00    +0.000 C 
ATOM     30  C   UNL     1      22.891  24.372  26.780  0.00  0.00    +0.000 C 
ATOM     31  C   UNL     1      25.319  23.892  26.302  0.00  0.00    +0.000 C 
BRANCH  29  32
ATOM     32  O   UNL     1      23.661  23.743  24.659  0.00  0.00    +0.000 OA
ATOM     33  H   UNL     1      22.693  23.782  24.669  0.00  0.00    +0.000 HD
ENDBRANCH  29  32
ENDBRANCH  28  29
ENDBRANCH  27  28
ENDBRANCH  24  26
ENDBRANCH   2  24
TORSDOF 9
ENDMDL
MODEL 8
REMARK VINA RESULT:      -5.5     12.382     18.458
REMARK  Name = Calcitriol.pdbqt.pdb
REMARK  9 active torsions:
REMARK  status: ('A' for Active; 'I' for Inactive)
REMARK    1  A    between atoms: C_2  and  C_24
REMARK    2  A    between atoms: C_7  and  C_11
REMARK    3  A    between atoms: C_12  and  C_13
REMARK    4  A    between atoms: C_16  and  O_20
REMARK    5  A    between atoms: C_18  and  O_22
REMARK    6  A    between atoms: C_24  and  C_26
REMARK    7  A    between atoms: C_27  and  C_28
REMARK    8  A    between atoms: C_28  and  C_29
REMARK    9  A    between atoms: C_29  and  O_32
REMARK                            x       y       z     vdW  Elec       q    Type
REMARK                         _______ _______ _______ _____ _____    ______ ____
ROOT
ATOM      1  C   UNL     1      14.710  34.218  20.865  0.00  0.00    +0.000 C 
ATOM      2  C   UNL     1      13.633  35.175  20.363  0.00  0.00    +0.000 C 
ATOM      3  C   UNL     1      14.084  33.664  22.257  0.00  0.00    +0.000 C 
ATOM      4  C   UNL     1      12.486  35.092  21.207  0.00  0.00    +0.000 C 
ATOM      5  C   UNL     1      12.742  34.150  22.352  0.00  0.00    +0.000 C 
ATOM      6  C   UNL     1      15.987  34.865  21.207  0.00  0.00    +0.000 C 
ATOM      7  C   UNL     1      14.921  33.520  23.454  0.00  0.00    +0.000 C 
ATOM      8  C   UNL     1      14.850  32.992  19.919  0.00  0.00    +0.000 C 
ATOM      9  C   UNL     1      16.959  34.972  22.369  0.00  0.00    +0.000 C 
ATOM     10  C   UNL     1      16.183  34.170  23.392  0.00  0.00    +0.000 C 
ENDROOT
BRANCH   7  11
ATOM     11  C   UNL     1      14.527  32.976  24.563  0.00  0.00    +0.000 C 
ATOM     12  C   UNL     1      14.071  32.323  25.873  0.00  0.00    +0.000 C 
BRANCH  12  13
ATOM     13  C   UNL     1      13.692  31.764  26.983  0.00  0.00    +0.000 A 
ATOM     14  C   UNL     1      12.296  31.567  27.236  0.00  0.00    +0.000 A 
ATOM     15  C   UNL     1      14.573  31.330  28.112  0.00  0.00    +0.000 A 
ATOM     16  C   UNL     1      11.573  31.041  28.345  0.00  0.00    +0.000 A 
ATOM     17  C   UNL     1      12.526  30.678  29.338  0.00  0.00    +0.000 A 
ATOM     18  C   UNL     1      13.948  30.762  29.348  0.00  0.00    +0.000 A 
ATOM     19  C   UNL     1      15.914  31.425  28.052  0.00  0.00    +0.000 C 
BRANCH  16  20
ATOM     20  O   UNL     1      10.412  30.345  28.167  0.00  0.00    +0.000 OA
ATOM     21  H   UNL     1      10.572  29.387  28.162  0.00  0.00    +0.000 HD
ENDBRANCH  16  20
BRANCH  18  22
ATOM     22  O   UNL     1      14.705  30.338  30.414  0.00  0.00    +0.000 OA
ATOM     23  H   UNL     1      14.664  29.366  30.492  0.00  0.00    +0.000 HD
ENDBRANCH  18  22
ENDBRANCH  12  13
ENDBRANCH   7  11
BRANCH   2  24
ATOM     24  C   UNL     1      13.692  35.916  19.143  0.00  0.00    +0.000 C 
ATOM     25  C   UNL     1      14.054  37.378  19.086  0.00  0.00    +0.000 C 
BRANCH  24  26
ATOM     26  C   UNL     1      13.228  35.357  17.921  0.00  0.00    +0.000 C 
ATOM     27  C   UNL     1      12.712  34.753  16.609  0.00  0.00    +0.000 C 
BRANCH  27  28
ATOM     28  C   UNL     1      12.184  34.146  15.303  0.00  0.00    +0.000 C 
BRANCH  28  29
ATOM     29  C   UNL     1      11.685  33.568  14.056  0.00  0.00    +0.000 C 
ATOM     30  C   UNL     1      10.405  34.247  13.555  0.00  0.00    +0.000 C 
ATOM     31  C   UNL     1      12.741  33.521  12.946  0.00  0.00    +0.000 C 
BRANCH  29  32
ATOM     32  O   UNL     1      11.330  32.222  14.284  0.00  0.00    +0.000 OA
ATOM     33  H   UNL     1      10.462  32.370  14.688  0.00  0.00    +0.000 HD
ENDBRANCH  29  32
ENDBRANCH  28  29
ENDBRANCH  27  28
ENDBRANCH  24  26
ENDBRANCH   2  24
TORSDOF 9
ENDMDL
MODEL 9
REMARK VINA RESULT:      -5.4     27.164     31.056
REMARK  Name = Calcitriol.pdbqt.pdb
REMARK  9 active torsions:
REMARK  status: ('A' for Active; 'I' for Inactive)
REMARK    1  A    between atoms: C_2  and  C_24
REMARK    2  A    between atoms: C_7  and  C_11
REMARK    3  A    between atoms: C_12  and  C_13
REMARK    4  A    between atoms: C_16  and  O_20
REMARK    5  A    between atoms: C_18  and  O_22
REMARK    6  A    between atoms: C_24  and  C_26
REMARK    7  A    between atoms: C_27  and  C_28
REMARK    8  A    between atoms: C_28  and  C_29
REMARK    9  A    between atoms: C_29  and  O_32
REMARK                            x       y       z     vdW  Elec       q    Type
REMARK                         _______ _______ _______ _____ _____    ______ ____
ROOT
ATOM      1  C   UNL     1      19.016  23.713   1.315  0.00  0.00    +0.000 C 
ATOM      2  C   UNL     1      18.714  25.144   1.751  0.00  0.00    +0.000 C 
ATOM      3  C   UNL     1      17.563  22.993   1.400  0.00  0.00    +0.000 C 
ATOM      4  C   UNL     1      17.306  25.311   1.910  0.00  0.00    +0.000 C 
ATOM      5  C   UNL     1      16.592  24.009   1.670  0.00  0.00    +0.000 C 
ATOM      6  C   UNL     1      19.904  22.974   2.227  0.00  0.00    +0.000 C 
ATOM      7  C   UNL     1      17.422  21.646   1.964  0.00  0.00    +0.000 C 
ATOM      8  C   UNL     1      19.451  23.666  -0.176  0.00  0.00    +0.000 C 
ATOM      9  C   UNL     1      19.940  21.675   3.012  0.00  0.00    +0.000 C 
ATOM     10  C   UNL     1      18.550  21.170   2.684  0.00  0.00    +0.000 C 
ENDROOT
BRANCH   7  11
ATOM     11  C   UNL     1      16.322  20.960   1.958  0.00  0.00    +0.000 C 
ATOM     12  C   UNL     1      15.016  20.156   1.939  0.00  0.00    +0.000 C 
BRANCH  12  13
ATOM     13  C   UNL     1      13.910  19.476   1.914  0.00  0.00    +0.000 A 
ATOM     14  C   UNL     1      12.655  20.165   1.954  0.00  0.00    +0.000 A 
ATOM     15  C   UNL     1      13.775  17.985   1.904  0.00  0.00    +0.000 A 
ATOM     16  C   UNL     1      11.301  19.722   1.987  0.00  0.00    +0.000 A 
ATOM     17  C   UNL     1      11.322  18.299   1.981  0.00  0.00    +0.000 A 
ATOM     18  C   UNL     1      12.408  17.377   1.941  0.00  0.00    +0.000 A 
ATOM     19  C   UNL     1      14.844  17.170   1.853  0.00  0.00    +0.000 C 
BRANCH  16  20
ATOM     20  O   UNL     1      10.308  20.434   1.379  0.00  0.00    +0.000 OA
ATOM     21  H   UNL     1      10.072  20.048   0.519  0.00  0.00    +0.000 HD
ENDBRANCH  16  20
BRANCH  18  22
ATOM     22  O   UNL     1      12.220  16.015   1.926  0.00  0.00    +0.000 OA
ATOM     23  H   UNL     1      11.424  15.778   2.440  0.00  0.00    +0.000 HD
ENDBRANCH  18  22
ENDBRANCH  12  13
ENDBRANCH   7  11
BRANCH   2  24
ATOM     24  C   UNL     1      19.671  26.202   1.827  0.00  0.00    +0.000 C 
ATOM     25  C   UNL     1      20.794  26.366   0.835  0.00  0.00    +0.000 C 
BRANCH  24  26
ATOM     26  C   UNL     1      19.730  27.060   2.959  0.00  0.00    +0.000 C 
ATOM     27  C   UNL     1      19.778  27.990   4.178  0.00  0.00    +0.000 C 
BRANCH  27  28
ATOM     28  C   UNL     1      19.812  28.924   5.394  0.00  0.00    +0.000 C 
BRANCH  28  29
ATOM     29  C   UNL     1      19.842  29.817   6.552  0.00  0.00    +0.000 C 
ATOM     30  C   UNL     1      20.086  29.074   7.871  0.00  0.00    +0.000 C 
ATOM     31  C   UNL     1      20.833  30.977   6.394  0.00  0.00    +0.000 C 
BRANCH  29  32
ATOM     32  O   UNL     1      18.579  30.427   6.693  0.00  0.00    +0.000 OA
ATOM     33  H   UNL     1      18.537  30.870   5.833  0.00  0.00    +0.000 HD
ENDBRANCH  29  32
ENDBRANCH  28  29
ENDBRANCH  27  28
ENDBRANCH  24  26
ENDBRANCH   2  24
TORSDOF 9
ENDMDL
