MODEL 1
REMARK VINA RESULT:      -8.9      0.000      0.000
REMARK  Name = 
REMARK  17 active torsions:
REMARK  status: ('A' for Active; 'I' for Inactive)
REMARK    1  A    between atoms: O_1  and  C_14
REMARK    2  A    between atoms: O_2  and  C_32
REMARK    3  A    between atoms: O_2  and  C_36
REMARK    4  A    between atoms: O_6  and  C_39
REMARK    5  A    between atoms: O_7  and  C_41
REMARK    6  A    between atoms: O_7  and  C_43
REMARK    7  A    between atoms: O_9  and  C_47
REMARK    8  A    between atoms: O_9  and  C_49
REMARK    9  A    between atoms: O_10  and  C_45
REMARK   10  A    between atoms: O_12  and  C_51
REMARK   11  A    between atoms: O_13  and  C_53
REMARK   12  A    between atoms: C_17  and  C_29
REMARK   13  A    between atoms: C_18  and  C_30
REMARK   14  A    between atoms: C_22  and  C_33
REMARK   15  A    between atoms: C_40  and  C_42
REMARK   16  A    between atoms: C_46  and  C_48
REMARK   17  A    between atoms: C_52  and  C_54
REMARK                            x       y       z     vdW  Elec       q    Type
REMARK                         _______ _______ _______ _____ _____    ______ ____
ROOT
ATOM      1  O   UNL     1      27.124  11.813  24.882  0.00  0.00    +0.000 OA
ATOM      2  C   UNL     1      27.091  12.224  23.518  0.00  0.00    +0.000 C 
ATOM      3  C   UNL     1      26.079  11.424  22.694  0.00  0.00    +0.000 C 
ATOM      4  C   UNL     1      25.195  10.563  23.582  0.00  0.00    +0.000 C 
ATOM      5  C   UNL     1      25.875  12.029  25.551  0.00  0.00    +0.000 C 
ATOM      6  C   UNL     1      24.712  11.276  24.861  0.00  0.00    +0.000 C 
ATOM      7  C   UNL     1      26.061  11.558  26.993  0.00  0.00    +0.000 C 
ENDROOT
BRANCH   4   8
ATOM      8  O   UNL     1      24.141   9.957  22.842  0.00  0.00    +0.000 OA
ATOM      9  H   UNL     1      23.305  10.316  23.208  0.00  0.00    +0.000 HD
ENDBRANCH   4   8
BRANCH   2  10
ATOM     10  O   UNL     1      28.386  12.192  22.916  0.00  0.00    +0.000 OA
BRANCH  10  29
ATOM     11  C   UNL     1      28.840  13.296  15.227  0.00  0.00    +0.000 C 
ATOM     12  C   UNL     1      28.802  13.039  16.759  0.00  0.00    +0.000 C 
ATOM     13  C   UNL     1      29.907  13.795  17.540  0.00  0.00    +0.000 C 
ATOM     14  C   UNL     1      28.929  14.798  14.833  0.00  0.00    +0.000 C 
ATOM     15  C   UNL     1      29.860  13.535  19.102  0.00  0.00    +0.000 C 
ATOM     16  C   UNL     1      29.786  11.998  19.387  0.00  0.00    +0.000 C 
ATOM     17  C   UNL     1      29.887  15.290  17.161  0.00  0.00    +0.000 C 
ATOM     18  C   UNL     1      30.035  15.504  15.654  0.00  0.00    +0.000 C 
ATOM     19  C   UNL     1      29.297  14.694  13.318  0.00  0.00    +0.000 C 
ATOM     20  C   UNL     1      28.850  11.537  17.076  0.00  0.00    +0.000 C 
ATOM     21  C   UNL     1      30.032  12.654  14.495  0.00  0.00    +0.000 C 
ATOM     22  C   UNL     1      28.694  11.288  18.567  0.00  0.00    +0.000 C 
ATOM     23  C   UNL     1      30.294  13.519  13.256  0.00  0.00    +0.000 C 
ATOM     24  C   UNL     1      28.658  14.251  19.778  0.00  0.00    +0.000 C 
ATOM     25  C   UNL     1      29.590  11.678  20.883  0.00  0.00    +0.000 C 
ATOM     26  C   UNL     1      27.589  15.536  15.030  0.00  0.00    +0.000 C 
ATOM     27  C   UNL     1      31.177  14.089  19.716  0.00  0.00    +0.000 C 
ATOM     28  C   UNL     1      28.492  13.909  21.258  0.00  0.00    +0.000 C 
ATOM     29  C   UNL     1      28.391  12.404  21.500  0.00  0.00    +0.000 C 
BRANCH  19  32
ATOM     30  O   UNL     1      31.205  17.487  11.717  0.00  0.00    +0.000 OA
ATOM     31  O   UNL     1      29.627  19.100  11.290  0.00  0.00    +0.000 OA
ATOM     32  C   UNL     1      29.742  15.958  12.633  0.00  0.00    +0.000 C 
ATOM     33  C   UNL     1      31.169  16.180  12.288  0.00  0.00    +0.000 C 
ATOM     34  C   UNL     1      29.030  17.037  12.309  0.00  0.00    +0.000 C 
ATOM     35  C   UNL     1      29.950  18.005  11.715  0.00  0.00    +0.000 C 
ENDBRANCH  19  32
BRANCH  11  36
ATOM     36  O   UNL     1      27.664  12.718  14.636  0.00  0.00    +0.000 OA
ATOM     37  H   UNL     1      27.107  13.436  14.288  0.00  0.00    +0.000 HD
ENDBRANCH  11  36
ENDBRANCH  10  29
ENDBRANCH   2  10
BRANCH   6  38
ATOM     38  O   UNL     1      23.502  12.039  24.852  0.00  0.00    +0.000 OA
BRANCH  38  40
ATOM     39  O   UNL     1      24.643  14.094  25.179  0.00  0.00    +0.000 OA
ATOM     40  C   UNL     1      23.395  13.414  25.190  0.00  0.00    +0.000 C 
ATOM     41  C   UNL     1      22.597  13.726  26.452  0.00  0.00    +0.000 C 
ATOM     42  C   UNL     1      23.102  14.975  27.168  0.00  0.00    +0.000 C 
ATOM     43  C   UNL     1      24.457  15.518  25.063  0.00  0.00    +0.000 C 
ATOM     44  C   UNL     1      23.624  16.090  26.239  0.00  0.00    +0.000 C 
ATOM     45  C   UNL     1      25.850  16.140  25.021  0.00  0.00    +0.000 C 
BRANCH  42  46
ATOM     46  O   UNL     1      22.130  15.460  28.092  0.00  0.00    +0.000 OA
ATOM     47  H   UNL     1      21.359  15.774  27.587  0.00  0.00    +0.000 HD
ENDBRANCH  42  46
BRANCH  44  48
ATOM     48  O   UNL     1      22.692  17.084  25.795  0.00  0.00    +0.000 OA
BRANCH  48  50
ATOM     49  O   UNL     1      22.409  19.019  27.094  0.00  0.00    +0.000 OA
ATOM     50  C   UNL     1      23.029  18.457  25.943  0.00  0.00    +0.000 C 
ATOM     51  C   UNL     1      22.509  19.175  24.693  0.00  0.00    +0.000 C 
ATOM     52  C   UNL     1      22.154  20.634  24.969  0.00  0.00    +0.000 C 
ATOM     53  C   UNL     1      22.855  20.359  27.373  0.00  0.00    +0.000 C 
ATOM     54  C   UNL     1      23.014  21.208  26.098  0.00  0.00    +0.000 C 
ATOM     55  C   UNL     1      21.818  20.963  28.314  0.00  0.00    +0.000 C 
BRANCH  52  56
ATOM     56  O   UNL     1      22.377  21.396  23.776  0.00  0.00    +0.000 OA
ATOM     57  H   UNL     1      21.961  20.914  23.039  0.00  0.00    +0.000 HD
ENDBRANCH  52  56
BRANCH  54  58
ATOM     58  O   UNL     1      24.389  21.173  25.676  0.00  0.00    +0.000 OA
ATOM     59  H   UNL     1      24.678  20.244  25.789  0.00  0.00    +0.000 HD
ENDBRANCH  54  58
ENDBRANCH  48  50
ENDBRANCH  44  48
ENDBRANCH  38  40
ENDBRANCH   6  38
TORSDOF 12
ENDMDL
MODEL 2
REMARK VINA RESULT:      -8.5      5.893     10.730
REMARK  Name = 
REMARK  17 active torsions:
REMARK  status: ('A' for Active; 'I' for Inactive)
REMARK    1  A    between atoms: O_1  and  C_14
REMARK    2  A    between atoms: O_2  and  C_32
REMARK    3  A    between atoms: O_2  and  C_36
REMARK    4  A    between atoms: O_6  and  C_39
REMARK    5  A    between atoms: O_7  and  C_41
REMARK    6  A    between atoms: O_7  and  C_43
REMARK    7  A    between atoms: O_9  and  C_47
REMARK    8  A    between atoms: O_9  and  C_49
REMARK    9  A    between atoms: O_10  and  C_45
REMARK   10  A    between atoms: O_12  and  C_51
REMARK   11  A    between atoms: O_13  and  C_53
REMARK   12  A    between atoms: C_17  and  C_29
REMARK   13  A    between atoms: C_18  and  C_30
REMARK   14  A    between atoms: C_22  and  C_33
REMARK   15  A    between atoms: C_40  and  C_42
REMARK   16  A    between atoms: C_46  and  C_48
REMARK   17  A    between atoms: C_52  and  C_54
REMARK                            x       y       z     vdW  Elec       q    Type
REMARK                         _______ _______ _______ _____ _____    ______ ____
ROOT
ATOM      1  O   UNL     1      23.956  20.104  27.549  0.00  0.00    +0.000 OA
ATOM      2  C   UNL     1      23.513  19.044  26.705  0.00  0.00    +0.000 C 
ATOM      3  C   UNL     1      22.410  19.490  25.741  0.00  0.00    +0.000 C 
ATOM      4  C   UNL     1      22.235  21.001  25.757  0.00  0.00    +0.000 C 
ATOM      5  C   UNL     1      24.547  21.181  26.812  0.00  0.00    +0.000 C 
ATOM      6  C   UNL     1      23.564  21.783  25.779  0.00  0.00    +0.000 C 
ATOM      7  C   UNL     1      24.982  22.228  27.836  0.00  0.00    +0.000 C 
ENDROOT
BRANCH   4   8
ATOM      8  O   UNL     1      21.341  21.436  24.739  0.00  0.00    +0.000 OA
ATOM      9  H   UNL     1      21.549  20.902  23.943  0.00  0.00    +0.000 HD
ENDBRANCH   4   8
BRANCH   2  10
ATOM     10  O   UNL     1      23.110  17.896  27.452  0.00  0.00    +0.000 OA
BRANCH  10  29
ATOM     11  C   UNL     1      24.470  10.959  24.200  0.00  0.00    +0.000 C 
ATOM     12  C   UNL     1      24.196  12.315  24.906  0.00  0.00    +0.000 C 
ATOM     13  C   UNL     1      25.411  12.852  25.705  0.00  0.00    +0.000 C 
ATOM     14  C   UNL     1      25.789  10.922  23.377  0.00  0.00    +0.000 C 
ATOM     15  C   UNL     1      25.129  14.238  26.418  0.00  0.00    +0.000 C 
ATOM     16  C   UNL     1      23.792  14.162  27.227  0.00  0.00    +0.000 C 
ATOM     17  C   UNL     1      26.665  12.862  24.807  0.00  0.00    +0.000 C 
ATOM     18  C   UNL     1      26.962  11.483  24.217  0.00  0.00    +0.000 C 
ATOM     19  C   UNL     1      25.938   9.390  23.109  0.00  0.00    +0.000 C 
ATOM     20  C   UNL     1      22.953  12.237  25.805  0.00  0.00    +0.000 C 
ATOM     21  C   UNL     1      24.595   9.752  25.147  0.00  0.00    +0.000 C 
ATOM     22  C   UNL     1      22.623  13.597  26.400  0.00  0.00    +0.000 C 
ATOM     23  C   UNL     1      25.493   8.735  24.433  0.00  0.00    +0.000 C 
ATOM     24  C   UNL     1      25.063  15.414  25.405  0.00  0.00    +0.000 C 
ATOM     25  C   UNL     1      23.380  15.522  27.827  0.00  0.00    +0.000 C 
ATOM     26  C   UNL     1      25.678  11.708  22.055  0.00  0.00    +0.000 C 
ATOM     27  C   UNL     1      26.294  14.506  27.413  0.00  0.00    +0.000 C 
ATOM     28  C   UNL     1      24.650  16.745  26.034  0.00  0.00    +0.000 C 
ATOM     29  C   UNL     1      23.325  16.645  26.788  0.00  0.00    +0.000 C 
BRANCH  19  32
ATOM     30  O   UNL     1      29.406   8.078  22.601  0.00  0.00    +0.000 OA
ATOM     31  O   UNL     1      29.794   8.316  20.350  0.00  0.00    +0.000 OA
ATOM     32  C   UNL     1      27.258   8.915  22.563  0.00  0.00    +0.000 C 
ATOM     33  C   UNL     1      28.301   8.356  23.459  0.00  0.00    +0.000 C 
ATOM     34  C   UNL     1      27.723   8.970  21.315  0.00  0.00    +0.000 C 
ATOM     35  C   UNL     1      29.080   8.428  21.330  0.00  0.00    +0.000 C 
ENDBRANCH  19  32
BRANCH  11  36
ATOM     36  O   UNL     1      23.361  10.661  23.334  0.00  0.00    +0.000 OA
ATOM     37  H   UNL     1      22.884  11.487  23.146  0.00  0.00    +0.000 HD
ENDBRANCH  11  36
ENDBRANCH  10  29
ENDBRANCH   2  10
BRANCH   6  38
ATOM     38  O   UNL     1      24.214  22.139  24.555  0.00  0.00    +0.000 OA
BRANCH  38  40
ATOM     39  O   UNL     1      23.786  24.472  24.464  0.00  0.00    +0.000 OA
ATOM     40  C   UNL     1      24.723  23.427  24.240  0.00  0.00    +0.000 C 
ATOM     41  C   UNL     1      25.393  23.558  22.875  0.00  0.00    +0.000 C 
ATOM     42  C   UNL     1      25.235  24.955  22.281  0.00  0.00    +0.000 C 
ATOM     43  C   UNL     1      24.448  25.745  24.585  0.00  0.00    +0.000 C 
ATOM     44  C   UNL     1      25.249  26.105  23.308  0.00  0.00    +0.000 C 
ATOM     45  C   UNL     1      23.360  26.780  24.863  0.00  0.00    +0.000 C 
BRANCH  42  46
ATOM     46  O   UNL     1      26.173  25.167  21.227  0.00  0.00    +0.000 OA
ATOM     47  H   UNL     1      26.924  24.562  21.360  0.00  0.00    +0.000 HD
ENDBRANCH  42  46
BRANCH  44  48
ATOM     48  O   UNL     1      26.511  26.706  23.624  0.00  0.00    +0.000 OA
BRANCH  48  50
ATOM     49  O   UNL     1      28.254  28.168  23.044  0.00  0.00    +0.000 OA
ATOM     50  C   UNL     1      26.848  27.950  23.024  0.00  0.00    +0.000 C 
ATOM     51  C   UNL     1      26.161  29.039  23.856  0.00  0.00    +0.000 C 
ATOM     52  C   UNL     1      26.922  30.362  23.819  0.00  0.00    +0.000 C 
ATOM     53  C   UNL     1      28.651  29.336  22.301  0.00  0.00    +0.000 C 
ATOM     54  C   UNL     1      27.689  30.521  22.505  0.00  0.00    +0.000 C 
ATOM     55  C   UNL     1      30.060  29.678  22.771  0.00  0.00    +0.000 C 
BRANCH  52  56
ATOM     56  O   UNL     1      25.984  31.438  23.948  0.00  0.00    +0.000 OA
ATOM     57  H   UNL     1      25.301  31.314  23.265  0.00  0.00    +0.000 HD
ENDBRANCH  52  56
BRANCH  54  58
ATOM     58  O   UNL     1      26.735  30.546  21.428  0.00  0.00    +0.000 OA
ATOM     59  H   UNL     1      27.085  31.189  20.778  0.00  0.00    +0.000 HD
ENDBRANCH  54  58
ENDBRANCH  48  50
ENDBRANCH  44  48
ENDBRANCH  38  40
ENDBRANCH   6  38
TORSDOF 12
ENDMDL
MODEL 3
REMARK VINA RESULT:      -8.3      5.876     10.271
REMARK  Name = 
REMARK  17 active torsions:
REMARK  status: ('A' for Active; 'I' for Inactive)
REMARK    1  A    between atoms: O_1  and  C_14
REMARK    2  A    between atoms: O_2  and  C_32
REMARK    3  A    between atoms: O_2  and  C_36
REMARK    4  A    between atoms: O_6  and  C_39
REMARK    5  A    between atoms: O_7  and  C_41
REMARK    6  A    between atoms: O_7  and  C_43
REMARK    7  A    between atoms: O_9  and  C_47
REMARK    8  A    between atoms: O_9  and  C_49
REMARK    9  A    between atoms: O_10  and  C_45
REMARK   10  A    between atoms: O_12  and  C_51
REMARK   11  A    between atoms: O_13  and  C_53
REMARK   12  A    between atoms: C_17  and  C_29
REMARK   13  A    between atoms: C_18  and  C_30
REMARK   14  A    between atoms: C_22  and  C_33
REMARK   15  A    between atoms: C_40  and  C_42
REMARK   16  A    between atoms: C_46  and  C_48
REMARK   17  A    between atoms: C_52  and  C_54
REMARK                            x       y       z     vdW  Elec       q    Type
REMARK                         _______ _______ _______ _____ _____    ______ ____
ROOT
ATOM      1  O   UNL     1      23.168  19.282  28.565  0.00  0.00    +0.000 OA
ATOM      2  C   UNL     1      22.941  18.383  27.483  0.00  0.00    +0.000 C 
ATOM      3  C   UNL     1      22.225  19.055  26.308  0.00  0.00    +0.000 C 
ATOM      4  C   UNL     1      22.153  20.564  26.490  0.00  0.00    +0.000 C 
ATOM      5  C   UNL     1      24.027  20.370  28.204  0.00  0.00    +0.000 C 
ATOM      6  C   UNL     1      23.456  21.191  27.024  0.00  0.00    +0.000 C 
ATOM      7  C   UNL     1      24.188  21.236  29.453  0.00  0.00    +0.000 C 
ENDROOT
BRANCH   4   8
ATOM      8  O   UNL     1      21.651  21.209  25.325  0.00  0.00    +0.000 OA
ATOM      9  H   UNL     1      20.720  20.916  25.228  0.00  0.00    +0.000 HD
ENDBRANCH   4   8
BRANCH   2  10
ATOM     10  O   UNL     1      22.251  17.204  27.899  0.00  0.00    +0.000 OA
BRANCH  10  29
ATOM     11  C   UNL     1      24.366  10.611  24.348  0.00  0.00    +0.000 C 
ATOM     12  C   UNL     1      23.941  11.895  25.112  0.00  0.00    +0.000 C 
ATOM     13  C   UNL     1      25.058  12.476  26.015  0.00  0.00    +0.000 C 
ATOM     14  C   UNL     1      25.728  10.730  23.609  0.00  0.00    +0.000 C 
ATOM     15  C   UNL     1      24.623  13.788  26.787  0.00  0.00    +0.000 C 
ATOM     16  C   UNL     1      23.252  13.557  27.505  0.00  0.00    +0.000 C 
ATOM     17  C   UNL     1      26.357  12.641  25.199  0.00  0.00    +0.000 C 
ATOM     18  C   UNL     1      26.800  11.329  24.551  0.00  0.00    +0.000 C 
ATOM     19  C   UNL     1      26.019   9.234  23.264  0.00  0.00    +0.000 C 
ATOM     20  C   UNL     1      22.658  11.664  25.926  0.00  0.00    +0.000 C 
ATOM     21  C   UNL     1      24.535   9.362  25.231  0.00  0.00    +0.000 C 
ATOM     22  C   UNL     1      22.183  12.953  26.576  0.00  0.00    +0.000 C 
ATOM     23  C   UNL     1      25.554   8.465  24.517  0.00  0.00    +0.000 C 
ATOM     24  C   UNL     1      24.518  15.016  25.840  0.00  0.00    +0.000 C 
ATOM     25  C   UNL     1      22.695  14.840  28.155  0.00  0.00    +0.000 C 
ATOM     26  C   UNL     1      25.629  11.585  22.329  0.00  0.00    +0.000 C 
ATOM     27  C   UNL     1      25.702  14.086  27.866  0.00  0.00    +0.000 C 
ATOM     28  C   UNL     1      23.960  16.269  26.517  0.00  0.00    +0.000 C 
ATOM     29  C   UNL     1      22.607  16.018  27.180  0.00  0.00    +0.000 C 
BRANCH  19  32
ATOM     30  O   UNL     1      29.101   8.538  21.258  0.00  0.00    +0.000 OA
ATOM     31  O   UNL     1      30.648   7.825  22.797  0.00  0.00    +0.000 OA
ATOM     32  C   UNL     1      27.403   8.899  22.775  0.00  0.00    +0.000 C 
ATOM     33  C   UNL     1      27.745   8.977  21.333  0.00  0.00    +0.000 C 
ATOM     34  C   UNL     1      28.452   8.443  23.460  0.00  0.00    +0.000 C 
ATOM     35  C   UNL     1      29.536   8.225  22.505  0.00  0.00    +0.000 C 
ENDBRANCH  19  32
BRANCH  11  36
ATOM     36  O   UNL     1      23.337  10.281  23.399  0.00  0.00    +0.000 OA
ATOM     37  H   UNL     1      22.574  10.863  23.554  0.00  0.00    +0.000 HD
ENDBRANCH  11  36
ENDBRANCH  10  29
ENDBRANCH   2  10
BRANCH   6  38
ATOM     38  O   UNL     1      24.477  21.618  26.116  0.00  0.00    +0.000 OA
BRANCH  38  40
ATOM     39  O   UNL     1      25.463  23.635  26.887  0.00  0.00    +0.000 OA
ATOM     40  C   UNL     1      24.801  22.969  25.820  0.00  0.00    +0.000 C 
ATOM     41  C   UNL     1      23.665  23.813  25.251  0.00  0.00    +0.000 C 
ATOM     42  C   UNL     1      23.777  25.283  25.644  0.00  0.00    +0.000 C 
ATOM     43  C   UNL     1      26.171  24.797  26.414  0.00  0.00    +0.000 C 
ATOM     44  C   UNL     1      25.219  25.821  25.744  0.00  0.00    +0.000 C 
ATOM     45  C   UNL     1      26.872  25.407  27.625  0.00  0.00    +0.000 C 
BRANCH  42  46
ATOM     46  O   UNL     1      22.959  26.098  24.806  0.00  0.00    +0.000 OA
ATOM     47  H   UNL     1      22.706  25.574  24.025  0.00  0.00    +0.000 HD
ENDBRANCH  42  46
BRANCH  44  48
ATOM     48  O   UNL     1      25.802  26.398  24.569  0.00  0.00    +0.000 OA
BRANCH  48  50
ATOM     49  O   UNL     1      27.704  26.560  23.202  0.00  0.00    +0.000 OA
ATOM     50  C   UNL     1      26.819  25.678  23.883  0.00  0.00    +0.000 C 
ATOM     51  C   UNL     1      26.110  24.789  22.856  0.00  0.00    +0.000 C 
ATOM     52  C   UNL     1      26.981  24.510  21.633  0.00  0.00    +0.000 C 
ATOM     53  C   UNL     1      28.840  25.883  22.633  0.00  0.00    +0.000 C 
ATOM     54  C   UNL     1      28.467  24.531  21.996  0.00  0.00    +0.000 C 
ATOM     55  C   UNL     1      29.428  26.838  21.600  0.00  0.00    +0.000 C 
BRANCH  52  56
ATOM     56  O   UNL     1      26.644  23.218  21.112  0.00  0.00    +0.000 OA
ATOM     57  H   UNL     1      25.673  23.176  21.040  0.00  0.00    +0.000 HD
ENDBRANCH  52  56
BRANCH  54  58
ATOM     58  O   UNL     1      28.712  23.479  22.947  0.00  0.00    +0.000 OA
ATOM     59  H   UNL     1      28.849  22.668  22.415  0.00  0.00    +0.000 HD
ENDBRANCH  54  58
ENDBRANCH  48  50
ENDBRANCH  44  48
ENDBRANCH  38  40
ENDBRANCH   6  38
TORSDOF 12
ENDMDL
MODEL 4
REMARK VINA RESULT:      -8.2     27.236     31.916
REMARK  Name = 
REMARK  17 active torsions:
REMARK  status: ('A' for Active; 'I' for Inactive)
REMARK    1  A    between atoms: O_1  and  C_14
REMARK    2  A    between atoms: O_2  and  C_32
REMARK    3  A    between atoms: O_2  and  C_36
REMARK    4  A    between atoms: O_6  and  C_39
REMARK    5  A    between atoms: O_7  and  C_41
REMARK    6  A    between atoms: O_7  and  C_43
REMARK    7  A    between atoms: O_9  and  C_47
REMARK    8  A    between atoms: O_9  and  C_49
REMARK    9  A    between atoms: O_10  and  C_45
REMARK   10  A    between atoms: O_12  and  C_51
REMARK   11  A    between atoms: O_13  and  C_53
REMARK   12  A    between atoms: C_17  and  C_29
REMARK   13  A    between atoms: C_18  and  C_30
REMARK   14  A    between atoms: C_22  and  C_33
REMARK   15  A    between atoms: C_40  and  C_42
REMARK   16  A    between atoms: C_46  and  C_48
REMARK   17  A    between atoms: C_52  and  C_54
REMARK                            x       y       z     vdW  Elec       q    Type
REMARK                         _______ _______ _______ _____ _____    ______ ____
ROOT
ATOM      1  O   UNL     1      -4.166  20.526  11.957  0.00  0.00    +0.000 OA
ATOM      2  C   UNL     1      -3.707  20.565  13.306  0.00  0.00    +0.000 C 
ATOM      3  C   UNL     1      -3.613  19.169  13.929  0.00  0.00    +0.000 C 
ATOM      4  C   UNL     1      -3.799  18.080  12.884  0.00  0.00    +0.000 C 
ATOM      5  C   UNL     1      -3.272  19.814  11.093  0.00  0.00    +0.000 C 
ATOM      6  C   UNL     1      -3.059  18.354  11.559  0.00  0.00    +0.000 C 
ATOM      7  C   UNL     1      -3.881  19.864   9.693  0.00  0.00    +0.000 C 
ENDROOT
BRANCH   4   8
ATOM      8  O   UNL     1      -3.536  16.788  13.420  0.00  0.00    +0.000 OA
ATOM      9  H   UNL     1      -3.178  16.932  14.321  0.00  0.00    +0.000 HD
ENDBRANCH   4   8
BRANCH   2  10
ATOM     10  O   UNL     1      -4.494  21.438  14.117  0.00  0.00    +0.000 OA
BRANCH  10  29
ATOM     11  C   UNL     1      -1.450  28.530  15.112  0.00  0.00    +0.000 C 
ATOM     12  C   UNL     1      -2.106  27.141  14.882  0.00  0.00    +0.000 C 
ATOM     13  C   UNL     1      -1.993  26.638  13.420  0.00  0.00    +0.000 C 
ATOM     14  C   UNL     1      -0.006  28.656  14.548  0.00  0.00    +0.000 C 
ATOM     15  C   UNL     1      -2.658  25.220  13.191  0.00  0.00    +0.000 C 
ATOM     16  C   UNL     1      -4.107  25.206  13.781  0.00  0.00    +0.000 C 
ATOM     17  C   UNL     1      -0.525  26.717  12.952  0.00  0.00    +0.000 C 
ATOM     18  C   UNL     1       0.050  28.126  13.095  0.00  0.00    +0.000 C 
ATOM     19  C   UNL     1       0.215  30.201  14.620  0.00  0.00    +0.000 C 
ATOM     20  C   UNL     1      -3.572  27.130  15.342  0.00  0.00    +0.000 C 
ATOM     21  C   UNL     1      -2.199  29.711  14.470  0.00  0.00    +0.000 C 
ATOM     22  C   UNL     1      -4.172  25.739  15.223  0.00  0.00    +0.000 C 
ATOM     23  C   UNL     1      -1.146  30.792  14.199  0.00  0.00    +0.000 C 
ATOM     24  C   UNL     1      -1.822  24.073  13.826  0.00  0.00    +0.000 C 
ATOM     25  C   UNL     1      -4.761  23.810  13.724  0.00  0.00    +0.000 C 
ATOM     26  C   UNL     1       1.028  27.906  15.411  0.00  0.00    +0.000 C 
ATOM     27  C   UNL     1      -2.746  24.977  11.657  0.00  0.00    +0.000 C 
ATOM     28  C   UNL     1      -2.501  22.705  13.754  0.00  0.00    +0.000 C 
ATOM     29  C   UNL     1      -3.900  22.717  14.366  0.00  0.00    +0.000 C 
BRANCH  19  32
ATOM     30  O   UNL     1       3.571  31.520  13.619  0.00  0.00    +0.000 OA
ATOM     31  O   UNL     1       3.310  32.175  11.434  0.00  0.00    +0.000 OA
ATOM     32  C   UNL     1       1.413  30.756  13.899  0.00  0.00    +0.000 C 
ATOM     33  C   UNL     1       2.715  30.925  14.593  0.00  0.00    +0.000 C 
ATOM     34  C   UNL     1       1.506  31.225  12.654  0.00  0.00    +0.000 C 
ATOM     35  C   UNL     1       2.876  31.698  12.466  0.00  0.00    +0.000 C 
ENDBRANCH  19  32
BRANCH  11  36
ATOM     36  O   UNL     1      -1.434  28.800  16.525  0.00  0.00    +0.000 OA
ATOM     37  H   UNL     1      -1.220  27.976  16.995  0.00  0.00    +0.000 HD
ENDBRANCH  11  36
ENDBRANCH  10  29
ENDBRANCH   2  10
BRANCH   6  38
ATOM     38  O   UNL     1      -1.707  17.920  11.382  0.00  0.00    +0.000 OA
BRANCH  38  40
ATOM     39  O   UNL     1      -0.139  16.900   9.922  0.00  0.00    +0.000 OA
ATOM     40  C   UNL     1      -1.305  16.732  10.717  0.00  0.00    +0.000 C 
ATOM     41  C   UNL     1      -2.402  15.995   9.954  0.00  0.00    +0.000 C 
ATOM     42  C   UNL     1      -1.867  15.258   8.730  0.00  0.00    +0.000 C 
ATOM     43  C   UNL     1       0.492  15.633   9.652  0.00  0.00    +0.000 C 
ATOM     44  C   UNL     1      -0.453  14.667   8.894  0.00  0.00    +0.000 C 
ATOM     45  C   UNL     1       1.745  15.934   8.832  0.00  0.00    +0.000 C 
BRANCH  42  46
ATOM     46  O   UNL     1      -2.805  14.285   8.273  0.00  0.00    +0.000 OA
ATOM     47  H   UNL     1      -3.676  14.713   8.198  0.00  0.00    +0.000 HD
ENDBRANCH  42  46
BRANCH  44  48
ATOM     48  O   UNL     1      -0.341  13.324   9.382  0.00  0.00    +0.000 OA
BRANCH  48  50
ATOM     49  O   UNL     1       1.023  11.604   8.548  0.00  0.00    +0.000 OA
ATOM     50  C   UNL     1       0.944  12.716   9.431  0.00  0.00    +0.000 C 
ATOM     51  C   UNL     1       1.144  12.228  10.870  0.00  0.00    +0.000 C 
ATOM     52  C   UNL     1       2.065  11.012  10.946  0.00  0.00    +0.000 C 
ATOM     53  C   UNL     1       2.353  11.063   8.445  0.00  0.00    +0.000 C 
ATOM     54  C   UNL     1       3.080  11.016   9.801  0.00  0.00    +0.000 C 
ATOM     55  C   UNL     1       2.198   9.668   7.850  0.00  0.00    +0.000 C 
BRANCH  52  56
ATOM     56  O   UNL     1       2.766  11.042  12.196  0.00  0.00    +0.000 OA
ATOM     57  H   UNL     1       3.613  11.500  12.045  0.00  0.00    +0.000 HD
ENDBRANCH  52  56
BRANCH  54  58
ATOM     58  O   UNL     1       3.904  12.187   9.936  0.00  0.00    +0.000 OA
ATOM     59  H   UNL     1       4.819  11.892   9.746  0.00  0.00    +0.000 HD
ENDBRANCH  54  58
ENDBRANCH  48  50
ENDBRANCH  44  48
ENDBRANCH  38  40
ENDBRANCH   6  38
TORSDOF 12
ENDMDL
MODEL 5
REMARK VINA RESULT:      -8.0      5.921     10.400
REMARK  Name = 
REMARK  17 active torsions:
REMARK  status: ('A' for Active; 'I' for Inactive)
REMARK    1  A    between atoms: O_1  and  C_14
REMARK    2  A    between atoms: O_2  and  C_32
REMARK    3  A    between atoms: O_2  and  C_36
REMARK    4  A    between atoms: O_6  and  C_39
REMARK    5  A    between atoms: O_7  and  C_41
REMARK    6  A    between atoms: O_7  and  C_43
REMARK    7  A    between atoms: O_9  and  C_47
REMARK    8  A    between atoms: O_9  and  C_49
REMARK    9  A    between atoms: O_10  and  C_45
REMARK   10  A    between atoms: O_12  and  C_51
REMARK   11  A    between atoms: O_13  and  C_53
REMARK   12  A    between atoms: C_17  and  C_29
REMARK   13  A    between atoms: C_18  and  C_30
REMARK   14  A    between atoms: C_22  and  C_33
REMARK   15  A    between atoms: C_40  and  C_42
REMARK   16  A    between atoms: C_46  and  C_48
REMARK   17  A    between atoms: C_52  and  C_54
REMARK                            x       y       z     vdW  Elec       q    Type
REMARK                         _______ _______ _______ _____ _____    ______ ____
ROOT
ATOM      1  O   UNL     1      24.355  20.288  27.665  0.00  0.00    +0.000 OA
ATOM      2  C   UNL     1      23.892  19.194  26.877  0.00  0.00    +0.000 C 
ATOM      3  C   UNL     1      22.682  19.567  26.017  0.00  0.00    +0.000 C 
ATOM      4  C   UNL     1      22.428  21.067  26.034  0.00  0.00    +0.000 C 
ATOM      5  C   UNL     1      24.815  21.385  26.865  0.00  0.00    +0.000 C 
ATOM      6  C   UNL     1      23.709  21.918  25.923  0.00  0.00    +0.000 C 
ATOM      7  C   UNL     1      25.286  22.469  27.833  0.00  0.00    +0.000 C 
ENDROOT
BRANCH   4   8
ATOM      8  O   UNL     1      21.420  21.438  25.100  0.00  0.00    +0.000 OA
ATOM      9  H   UNL     1      21.768  21.206  24.213  0.00  0.00    +0.000 HD
ENDBRANCH   4   8
BRANCH   2  10
ATOM     10  O   UNL     1      23.623  18.038  27.670  0.00  0.00    +0.000 OA
BRANCH  10  29
ATOM     11  C   UNL     1      24.443  11.107  24.230  0.00  0.00    +0.000 C 
ATOM     12  C   UNL     1      24.273  12.460  24.972  0.00  0.00    +0.000 C 
ATOM     13  C   UNL     1      25.508  12.860  25.819  0.00  0.00    +0.000 C 
ATOM     14  C   UNL     1      25.775  10.974  23.440  0.00  0.00    +0.000 C 
ATOM     15  C   UNL     1      25.333  14.244  26.570  0.00  0.00    +0.000 C 
ATOM     16  C   UNL     1      23.972  14.266  27.341  0.00  0.00    +0.000 C 
ATOM     17  C   UNL     1      26.783  12.783  24.954  0.00  0.00    +0.000 C 
ATOM     18  C   UNL     1      26.970  11.401  24.327  0.00  0.00    +0.000 C 
ATOM     19  C   UNL     1      25.793   9.444  23.126  0.00  0.00    +0.000 C 
ATOM     20  C   UNL     1      23.003  12.469  25.836  0.00  0.00    +0.000 C 
ATOM     21  C   UNL     1      24.432   9.866  25.140  0.00  0.00    +0.000 C 
ATOM     22  C   UNL     1      22.780  13.835  26.467  0.00  0.00    +0.000 C 
ATOM     23  C   UNL     1      25.254   8.793  24.416  0.00  0.00    +0.000 C 
ATOM     24  C   UNL     1      25.402  15.451  25.594  0.00  0.00    +0.000 C 
ATOM     25  C   UNL     1      23.668  15.639  27.975  0.00  0.00    +0.000 C 
ATOM     26  C   UNL     1      25.773  11.807  22.142  0.00  0.00    +0.000 C 
ATOM     27  C   UNL     1      26.488  14.375  27.602  0.00  0.00    +0.000 C 
ATOM     28  C   UNL     1      25.093  16.794  26.255  0.00  0.00    +0.000 C 
ATOM     29  C   UNL     1      23.744  16.794  26.972  0.00  0.00    +0.000 C 
BRANCH  19  32
ATOM     30  O   UNL     1      29.115   7.786  22.656  0.00  0.00    +0.000 OA
ATOM     31  O   UNL     1      29.650   8.168  20.456  0.00  0.00    +0.000 OA
ATOM     32  C   UNL     1      27.079   8.867  22.599  0.00  0.00    +0.000 C 
ATOM     33  C   UNL     1      28.003   8.116  23.486  0.00  0.00    +0.000 C 
ATOM     34  C   UNL     1      27.616   8.974  21.383  0.00  0.00    +0.000 C 
ATOM     35  C   UNL     1      28.901   8.279  21.409  0.00  0.00    +0.000 C 
ENDBRANCH  19  32
BRANCH  11  36
ATOM     36  O   UNL     1      23.336  10.937  23.327  0.00  0.00    +0.000 OA
ATOM     37  H   UNL     1      23.512  11.453  22.521  0.00  0.00    +0.000 HD
ENDBRANCH  11  36
ENDBRANCH  10  29
ENDBRANCH   2  10
BRANCH   6  38
ATOM     38  O   UNL     1      24.221  22.290  24.640  0.00  0.00    +0.000 OA
BRANCH  38  40
ATOM     39  O   UNL     1      23.831  24.623  24.450  0.00  0.00    +0.000 OA
ATOM     40  C   UNL     1      24.763  23.560  24.308  0.00  0.00    +0.000 C 
ATOM     41  C   UNL     1      25.504  23.637  22.977  0.00  0.00    +0.000 C 
ATOM     42  C   UNL     1      25.395  25.014  22.328  0.00  0.00    +0.000 C 
ATOM     43  C   UNL     1      24.503  25.892  24.562  0.00  0.00    +0.000 C 
ATOM     44  C   UNL     1      25.373  26.198  23.316  0.00  0.00    +0.000 C 
ATOM     45  C   UNL     1      23.418  26.949  24.749  0.00  0.00    +0.000 C 
BRANCH  42  46
ATOM     46  O   UNL     1      26.388  25.179  21.317  0.00  0.00    +0.000 OA
ATOM     47  H   UNL     1      26.201  24.549  20.600  0.00  0.00    +0.000 HD
ENDBRANCH  42  46
BRANCH  44  48
ATOM     48  O   UNL     1      26.625  26.794  23.676  0.00  0.00    +0.000 OA
BRANCH  48  50
ATOM     49  O   UNL     1      27.759  27.602  25.567  0.00  0.00    +0.000 OA
ATOM     50  C   UNL     1      27.213  26.455  24.926  0.00  0.00    +0.000 C 
ATOM     51  C   UNL     1      28.342  25.464  24.626  0.00  0.00    +0.000 C 
ATOM     52  C   UNL     1      29.466  25.536  25.658  0.00  0.00    +0.000 C 
ATOM     53  C   UNL     1      28.215  27.332  26.906  0.00  0.00    +0.000 C 
ATOM     54  C   UNL     1      28.933  25.975  27.024  0.00  0.00    +0.000 C 
ATOM     55  C   UNL     1      29.143  28.484  27.277  0.00  0.00    +0.000 C 
BRANCH  52  56
ATOM     56  O   UNL     1      30.063  24.240  25.782  0.00  0.00    +0.000 OA
ATOM     57  H   UNL     1      30.273  23.928  24.884  0.00  0.00    +0.000 HD
ENDBRANCH  52  56
BRANCH  54  58
ATOM     58  O   UNL     1      27.995  24.984  27.480  0.00  0.00    +0.000 OA
ATOM     59  H   UNL     1      28.084  24.229  26.862  0.00  0.00    +0.000 HD
ENDBRANCH  54  58
ENDBRANCH  48  50
ENDBRANCH  44  48
ENDBRANCH  38  40
ENDBRANCH   6  38
TORSDOF 12
ENDMDL
MODEL 6
REMARK VINA RESULT:      -8.0     27.367     32.179
REMARK  Name = 
REMARK  17 active torsions:
REMARK  status: ('A' for Active; 'I' for Inactive)
REMARK    1  A    between atoms: O_1  and  C_14
REMARK    2  A    between atoms: O_2  and  C_32
REMARK    3  A    between atoms: O_2  and  C_36
REMARK    4  A    between atoms: O_6  and  C_39
REMARK    5  A    between atoms: O_7  and  C_41
REMARK    6  A    between atoms: O_7  and  C_43
REMARK    7  A    between atoms: O_9  and  C_47
REMARK    8  A    between atoms: O_9  and  C_49
REMARK    9  A    between atoms: O_10  and  C_45
REMARK   10  A    between atoms: O_12  and  C_51
REMARK   11  A    between atoms: O_13  and  C_53
REMARK   12  A    between atoms: C_17  and  C_29
REMARK   13  A    between atoms: C_18  and  C_30
REMARK   14  A    between atoms: C_22  and  C_33
REMARK   15  A    between atoms: C_40  and  C_42
REMARK   16  A    between atoms: C_46  and  C_48
REMARK   17  A    between atoms: C_52  and  C_54
REMARK                            x       y       z     vdW  Elec       q    Type
REMARK                         _______ _______ _______ _____ _____    ______ ____
ROOT
ATOM      1  O   UNL     1      -4.023  20.492  12.049  0.00  0.00    +0.000 OA
ATOM      2  C   UNL     1      -3.629  20.510  13.419  0.00  0.00    +0.000 C 
ATOM      3  C   UNL     1      -3.603  19.109  14.036  0.00  0.00    +0.000 C 
ATOM      4  C   UNL     1      -3.767  18.031  12.975  0.00  0.00    +0.000 C 
ATOM      5  C   UNL     1      -3.107  19.761  11.225  0.00  0.00    +0.000 C 
ATOM      6  C   UNL     1      -2.956  18.293  11.689  0.00  0.00    +0.000 C 
ATOM      7  C   UNL     1      -3.646  19.835   9.796  0.00  0.00    +0.000 C 
ENDROOT
BRANCH   4   8
ATOM      8  O   UNL     1      -3.565  16.730  13.515  0.00  0.00    +0.000 OA
ATOM      9  H   UNL     1      -3.897  16.098  12.842  0.00  0.00    +0.000 HD
ENDBRANCH   4   8
BRANCH   2  10
ATOM     10  O   UNL     1      -4.431  21.400  14.196  0.00  0.00    +0.000 OA
BRANCH  10  29
ATOM     11  C   UNL     1      -1.430  28.523  15.091  0.00  0.00    +0.000 C 
ATOM     12  C   UNL     1      -2.078  27.127  14.881  0.00  0.00    +0.000 C 
ATOM     13  C   UNL     1      -1.986  26.616  13.421  0.00  0.00    +0.000 C 
ATOM     14  C   UNL     1       0.002  28.657  14.502  0.00  0.00    +0.000 C 
ATOM     15  C   UNL     1      -2.643  25.190  13.213  0.00  0.00    +0.000 C 
ATOM     16  C   UNL     1      -4.082  25.168  13.828  0.00  0.00    +0.000 C 
ATOM     17  C   UNL     1      -0.527  26.703  12.927  0.00  0.00    +0.000 C 
ATOM     18  C   UNL     1       0.039  28.118  13.051  0.00  0.00    +0.000 C 
ATOM     19  C   UNL     1       0.212  30.205  14.559  0.00  0.00    +0.000 C 
ATOM     20  C   UNL     1      -3.536  27.108  15.367  0.00  0.00    +0.000 C 
ATOM     21  C   UNL     1      -2.200  29.694  14.454  0.00  0.00    +0.000 C 
ATOM     22  C   UNL     1      -4.126  25.711  15.267  0.00  0.00    +0.000 C 
ATOM     23  C   UNL     1      -1.161  30.782  14.157  0.00  0.00    +0.000 C 
ATOM     24  C   UNL     1      -1.787  24.055  13.842  0.00  0.00    +0.000 C 
ATOM     25  C   UNL     1      -4.724  23.766  13.792  0.00  0.00    +0.000 C 
ATOM     26  C   UNL     1       1.058  27.922  15.352  0.00  0.00    +0.000 C 
ATOM     27  C   UNL     1      -2.755  24.936  11.683  0.00  0.00    +0.000 C 
ATOM     28  C   UNL     1      -2.455  22.681  13.791  0.00  0.00    +0.000 C 
ATOM     29  C   UNL     1      -3.844  22.686  14.427  0.00  0.00    +0.000 C 
BRANCH  19  32
ATOM     30  O   UNL     1       3.537  31.551  13.493  0.00  0.00    +0.000 OA
ATOM     31  O   UNL     1       3.238  32.174  11.303  0.00  0.00    +0.000 OA
ATOM     32  C   UNL     1       1.393  30.765  13.813  0.00  0.00    +0.000 C 
ATOM     33  C   UNL     1       2.702  30.958  14.487  0.00  0.00    +0.000 C 
ATOM     34  C   UNL     1       1.463  31.218  12.561  0.00  0.00    +0.000 C 
ATOM     35  C   UNL     1       2.824  31.705  12.348  0.00  0.00    +0.000 C 
ENDBRANCH  19  32
BRANCH  11  36
ATOM     36  O   UNL     1      -1.392  28.804  16.501  0.00  0.00    +0.000 OA
ATOM     37  H   UNL     1      -0.751  28.204  16.919  0.00  0.00    +0.000 HD
ENDBRANCH  11  36
ENDBRANCH  10  29
ENDBRANCH   2  10
BRANCH   6  38
ATOM     38  O   UNL     1      -1.609  17.824  11.576  0.00  0.00    +0.000 OA
BRANCH  38  40
ATOM     39  O   UNL     1      -1.572  16.033  10.019  0.00  0.00    +0.000 OA
ATOM     40  C   UNL     1      -1.022  17.287  10.399  0.00  0.00    +0.000 C 
ATOM     41  C   UNL     1       0.503  17.262  10.372  0.00  0.00    +0.000 C 
ATOM     42  C   UNL     1       1.053  16.093   9.560  0.00  0.00    +0.000 C 
ATOM     43  C   UNL     1      -1.309  15.751   8.631  0.00  0.00    +0.000 C 
ATOM     44  C   UNL     1       0.210  15.705   8.328  0.00  0.00    +0.000 C 
ATOM     45  C   UNL     1      -1.973  14.411   8.322  0.00  0.00    +0.000 C 
BRANCH  42  46
ATOM     46  O   UNL     1       2.423  16.306   9.225  0.00  0.00    +0.000 OA
ATOM     47  H   UNL     1       2.711  17.141   9.635  0.00  0.00    +0.000 HD
ENDBRANCH  42  46
BRANCH  44  48
ATOM     48  O   UNL     1       0.522  16.333   7.078  0.00  0.00    +0.000 OA
BRANCH  48  50
ATOM     49  O   UNL     1       2.535  15.416   6.289  0.00  0.00    +0.000 OA
ATOM     50  C   UNL     1       1.138  15.559   6.056  0.00  0.00    +0.000 C 
ATOM     51  C   UNL     1       0.926  16.319   4.742  0.00  0.00    +0.000 C 
ATOM     52  C   UNL     1       2.040  16.052   3.732  0.00  0.00    +0.000 C 
ATOM     53  C   UNL     1       3.166  14.505   5.371  0.00  0.00    +0.000 C 
ATOM     54  C   UNL     1       2.643  14.659   3.931  0.00  0.00    +0.000 C 
ATOM     55  C   UNL     1       4.661  14.791   5.451  0.00  0.00    +0.000 C 
BRANCH  52  56
ATOM     56  O   UNL     1       1.496  16.144   2.410  0.00  0.00    +0.000 OA
ATOM     57  H   UNL     1       1.148  15.265   2.175  0.00  0.00    +0.000 HD
ENDBRANCH  52  56
BRANCH  54  58
ATOM     58  O   UNL     1       1.609  13.686   3.697  0.00  0.00    +0.000 OA
ATOM     59  H   UNL     1       2.075  12.849   3.491  0.00  0.00    +0.000 HD
ENDBRANCH  54  58
ENDBRANCH  48  50
ENDBRANCH  44  48
ENDBRANCH  38  40
ENDBRANCH   6  38
TORSDOF 12
ENDMDL
MODEL 7
REMARK VINA RESULT:      -8.0     21.672     24.137
REMARK  Name = 
REMARK  17 active torsions:
REMARK  status: ('A' for Active; 'I' for Inactive)
REMARK    1  A    between atoms: O_1  and  C_14
REMARK    2  A    between atoms: O_2  and  C_32
REMARK    3  A    between atoms: O_2  and  C_36
REMARK    4  A    between atoms: O_6  and  C_39
REMARK    5  A    between atoms: O_7  and  C_41
REMARK    6  A    between atoms: O_7  and  C_43
REMARK    7  A    between atoms: O_9  and  C_47
REMARK    8  A    between atoms: O_9  and  C_49
REMARK    9  A    between atoms: O_10  and  C_45
REMARK   10  A    between atoms: O_12  and  C_51
REMARK   11  A    between atoms: O_13  and  C_53
REMARK   12  A    between atoms: C_17  and  C_29
REMARK   13  A    between atoms: C_18  and  C_30
REMARK   14  A    between atoms: C_22  and  C_33
REMARK   15  A    between atoms: C_40  and  C_42
REMARK   16  A    between atoms: C_46  and  C_48
REMARK   17  A    between atoms: C_52  and  C_54
REMARK                            x       y       z     vdW  Elec       q    Type
REMARK                         _______ _______ _______ _____ _____    ______ ____
ROOT
ATOM      1  O   UNL     1      17.095  32.716  11.015  0.00  0.00    +0.000 OA
ATOM      2  C   UNL     1      17.999  33.741  11.418  0.00  0.00    +0.000 C 
ATOM      3  C   UNL     1      17.464  35.143  11.112  0.00  0.00    +0.000 C 
ATOM      4  C   UNL     1      16.006  35.100  10.679  0.00  0.00    +0.000 C 
ATOM      5  C   UNL     1      15.847  32.778  11.716  0.00  0.00    +0.000 C 
ATOM      6  C   UNL     1      15.136  34.137  11.513  0.00  0.00    +0.000 C 
ATOM      7  C   UNL     1      14.992  31.624  11.194  0.00  0.00    +0.000 C 
ENDROOT
BRANCH   4   8
ATOM      8  O   UNL     1      15.454  36.406  10.566  0.00  0.00    +0.000 OA
ATOM      9  H   UNL     1      16.168  36.977  10.211  0.00  0.00    +0.000 HD
ENDBRANCH   4   8
BRANCH   2  10
ATOM     10  O   UNL     1      19.302  33.556  10.865  0.00  0.00    +0.000 OA
BRANCH  10  29
ATOM     11  C   UNL     1      19.991  28.831   4.721  0.00  0.00    +0.000 C 
ATOM     12  C   UNL     1      19.907  29.749   5.971  0.00  0.00    +0.000 C 
ATOM     13  C   UNL     1      20.951  30.895   5.968  0.00  0.00    +0.000 C 
ATOM     14  C   UNL     1      20.032  29.596   3.368  0.00  0.00    +0.000 C 
ATOM     15  C   UNL     1      20.858  31.832   7.241  0.00  0.00    +0.000 C 
ATOM     16  C   UNL     1      20.837  30.966   8.543  0.00  0.00    +0.000 C 
ATOM     17  C   UNL     1      20.884  31.660   4.630  0.00  0.00    +0.000 C 
ATOM     18  C   UNL     1      21.078  30.736   3.428  0.00  0.00    +0.000 C 
ATOM     19  C   UNL     1      20.459  28.457   2.387  0.00  0.00    +0.000 C 
ATOM     20  C   UNL     1      20.005  28.937   7.271  0.00  0.00    +0.000 C 
ATOM     21  C   UNL     1      21.234  27.926   4.668  0.00  0.00    +0.000 C 
ATOM     22  C   UNL     1      19.805  29.825   8.488  0.00  0.00    +0.000 C 
ATOM     23  C   UNL     1      21.505  27.651   3.184  0.00  0.00    +0.000 C 
ATOM     24  C   UNL     1      19.604  32.750   7.201  0.00  0.00    +0.000 C 
ATOM     25  C   UNL     1      20.600  31.806   9.815  0.00  0.00    +0.000 C 
ATOM     26  C   UNL     1      18.657  30.177   2.980  0.00  0.00    +0.000 C 
ATOM     27  C   UNL     1      22.128  32.730   7.265  0.00  0.00    +0.000 C 
ATOM     28  C   UNL     1      19.399  33.565   8.478  0.00  0.00    +0.000 C 
ATOM     29  C   UNL     1      19.351  32.688   9.728  0.00  0.00    +0.000 C 
BRANCH  19  32
ATOM     30  O   UNL     1      20.647  29.354  -1.242  0.00  0.00    +0.000 OA
ATOM     31  O   UNL     1      22.885  29.661  -1.650  0.00  0.00    +0.000 OA
ATOM     32  C   UNL     1      20.877  28.868   1.001  0.00  0.00    +0.000 C 
ATOM     33  C   UNL     1      19.878  29.020  -0.087  0.00  0.00    +0.000 C 
ATOM     34  C   UNL     1      22.102  29.076   0.516  0.00  0.00    +0.000 C 
ATOM     35  C   UNL     1      21.961  29.398  -0.902  0.00  0.00    +0.000 C 
ENDBRANCH  19  32
BRANCH  11  36
ATOM     36  O   UNL     1      18.861  27.942   4.730  0.00  0.00    +0.000 OA
ATOM     37  H   UNL     1      18.613  27.765   5.653  0.00  0.00    +0.000 HD
ENDBRANCH  11  36
ENDBRANCH  10  29
ENDBRANCH   2  10
BRANCH   6  38
ATOM     38  O   UNL     1      14.491  34.595  12.705  0.00  0.00    +0.000 OA
BRANCH  38  40
ATOM     39  O   UNL     1      12.627  35.713  13.659  0.00  0.00    +0.000 OA
ATOM     40  C   UNL     1      13.090  34.578  12.939  0.00  0.00    +0.000 C 
ATOM     41  C   UNL     1      12.530  33.282  13.517  0.00  0.00    +0.000 C 
ATOM     42  C   UNL     1      11.317  33.518  14.411  0.00  0.00    +0.000 C 
ATOM     43  C   UNL     1      11.210  35.900  13.478  0.00  0.00    +0.000 C 
ATOM     44  C   UNL     1      10.398  34.675  13.968  0.00  0.00    +0.000 C 
ATOM     45  C   UNL     1      10.831  37.159  14.254  0.00  0.00    +0.000 C 
BRANCH  42  46
ATOM     46  O   UNL     1      10.592  32.306  14.615  0.00  0.00    +0.000 OA
ATOM     47  H   UNL     1      11.229  31.601  14.824  0.00  0.00    +0.000 HD
ENDBRANCH  42  46
BRANCH  44  48
ATOM     48  O   UNL     1       9.314  34.368  13.083  0.00  0.00    +0.000 OA
BRANCH  48  50
ATOM     49  O   UNL     1       7.874  34.006  14.903  0.00  0.00    +0.000 OA
ATOM     50  C   UNL     1       7.980  34.480  13.566  0.00  0.00    +0.000 C 
ATOM     51  C   UNL     1       7.108  33.610  12.655  0.00  0.00    +0.000 C 
ATOM     52  C   UNL     1       5.880  33.064  13.379  0.00  0.00    +0.000 C 
ATOM     53  C   UNL     1       6.581  34.255  15.485  0.00  0.00    +0.000 C 
ATOM     54  C   UNL     1       5.429  34.011  14.492  0.00  0.00    +0.000 C 
ATOM     55  C   UNL     1       6.476  33.331  16.693  0.00  0.00    +0.000 C 
BRANCH  52  56
ATOM     56  O   UNL     1       4.816  32.912  12.431  0.00  0.00    +0.000 OA
ATOM     57  H   UNL     1       5.144  32.344  11.711  0.00  0.00    +0.000 HD
ENDBRANCH  52  56
BRANCH  54  58
ATOM     58  O   UNL     1       5.052  35.263  13.891  0.00  0.00    +0.000 OA
ATOM     59  H   UNL     1       5.338  35.957  14.521  0.00  0.00    +0.000 HD
ENDBRANCH  54  58
ENDBRANCH  48  50
ENDBRANCH  44  48
ENDBRANCH  38  40
ENDBRANCH   6  38
TORSDOF 12
ENDMDL
MODEL 8
REMARK VINA RESULT:      -7.9     27.883     32.054
REMARK  Name = 
REMARK  17 active torsions:
REMARK  status: ('A' for Active; 'I' for Inactive)
REMARK    1  A    between atoms: O_1  and  C_14
REMARK    2  A    between atoms: O_2  and  C_32
REMARK    3  A    between atoms: O_2  and  C_36
REMARK    4  A    between atoms: O_6  and  C_39
REMARK    5  A    between atoms: O_7  and  C_41
REMARK    6  A    between atoms: O_7  and  C_43
REMARK    7  A    between atoms: O_9  and  C_47
REMARK    8  A    between atoms: O_9  and  C_49
REMARK    9  A    between atoms: O_10  and  C_45
REMARK   10  A    between atoms: O_12  and  C_51
REMARK   11  A    between atoms: O_13  and  C_53
REMARK   12  A    between atoms: C_17  and  C_29
REMARK   13  A    between atoms: C_18  and  C_30
REMARK   14  A    between atoms: C_22  and  C_33
REMARK   15  A    between atoms: C_40  and  C_42
REMARK   16  A    between atoms: C_46  and  C_48
REMARK   17  A    between atoms: C_52  and  C_54
REMARK                            x       y       z     vdW  Elec       q    Type
REMARK                         _______ _______ _______ _____ _____    ______ ____
ROOT
ATOM      1  O   UNL     1      -6.412  26.174  21.033  0.00  0.00    +0.000 OA
ATOM      2  C   UNL     1      -6.484  25.727  19.682  0.00  0.00    +0.000 C 
ATOM      3  C   UNL     1      -5.347  24.765  19.326  0.00  0.00    +0.000 C 
ATOM      4  C   UNL     1      -4.571  24.339  20.563  0.00  0.00    +0.000 C 
ATOM      5  C   UNL     1      -6.550  25.102  21.973  0.00  0.00    +0.000 C 
ATOM      6  C   UNL     1      -5.463  24.018  21.779  0.00  0.00    +0.000 C 
ATOM      7  C   UNL     1      -6.466  25.725  23.366  0.00  0.00    +0.000 C 
ENDROOT
BRANCH   4   8
ATOM      8  O   UNL     1      -3.632  23.312  20.264  0.00  0.00    +0.000 OA
ATOM      9  H   UNL     1      -2.746  23.731  20.299  0.00  0.00    +0.000 HD
ENDBRANCH   4   8
BRANCH   2  10
ATOM     10  O   UNL     1      -6.545  26.815  18.759  0.00  0.00    +0.000 OA
BRANCH  10  29
ATOM     11  C   UNL     1       0.009  28.499  14.918  0.00  0.00    +0.000 C 
ATOM     12  C   UNL     1      -1.286  28.210  15.725  0.00  0.00    +0.000 C 
ATOM     13  C   UNL     1      -2.396  29.271  15.512  0.00  0.00    +0.000 C 
ATOM     14  C   UNL     1      -0.232  28.817  13.415  0.00  0.00    +0.000 C 
ATOM     15  C   UNL     1      -3.717  28.970  16.332  0.00  0.00    +0.000 C 
ATOM     16  C   UNL     1      -3.363  28.678  17.829  0.00  0.00    +0.000 C 
ATOM     17  C   UNL     1      -2.639  29.480  14.003  0.00  0.00    +0.000 C 
ATOM     18  C   UNL     1      -1.359  29.868  13.263  0.00  0.00    +0.000 C 
ATOM     19  C   UNL     1       1.162  29.385  12.996  0.00  0.00    +0.000 C 
ATOM     20  C   UNL     1      -0.986  28.037  17.221  0.00  0.00    +0.000 C 
ATOM     21  C   UNL     1       0.828  29.701  15.420  0.00  0.00    +0.000 C 
ATOM     22  C   UNL     1      -2.238  27.640  17.987  0.00  0.00    +0.000 C 
ATOM     23  C   UNL     1       1.596  30.237  14.206  0.00  0.00    +0.000 C 
ATOM     24  C   UNL     1      -4.513  27.775  15.739  0.00  0.00    +0.000 C 
ATOM     25  C   UNL     1      -4.587  28.232  18.654  0.00  0.00    +0.000 C 
ATOM     26  C   UNL     1      -0.587  27.558  12.598  0.00  0.00    +0.000 C 
ATOM     27  C   UNL     1      -4.613  30.240  16.275  0.00  0.00    +0.000 C 
ATOM     28  C   UNL     1      -5.717  27.358  16.584  0.00  0.00    +0.000 C 
ATOM     29  C   UNL     1      -5.334  27.050  18.031  0.00  0.00    +0.000 C 
BRANCH  19  32
ATOM     30  O   UNL     1       1.396  31.815  10.159  0.00  0.00    +0.000 OA
ATOM     31  O   UNL     1       1.191  30.525   8.270  0.00  0.00    +0.000 OA
ATOM     32  C   UNL     1       1.250  30.069  11.658  0.00  0.00    +0.000 C 
ATOM     33  C   UNL     1       1.412  31.541  11.559  0.00  0.00    +0.000 C 
ATOM     34  C   UNL     1       1.133  29.548  10.436  0.00  0.00    +0.000 C 
ATOM     35  C   UNL     1       1.239  30.649   9.480  0.00  0.00    +0.000 C 
ENDBRANCH  19  32
BRANCH  11  36
ATOM     36  O   UNL     1       0.881  27.361  15.028  0.00  0.00    +0.000 OA
ATOM     37  H   UNL     1       0.336  26.559  15.104  0.00  0.00    +0.000 HD
ENDBRANCH  11  36
ENDBRANCH  10  29
ENDBRANCH   2  10
BRANCH   6  38
ATOM     38  O   UNL     1      -5.974  22.696  21.972  0.00  0.00    +0.000 OA
BRANCH  38  40
ATOM     39  O   UNL     1      -6.023  20.422  22.648  0.00  0.00    +0.000 OA
ATOM     40  C   UNL     1      -5.307  21.649  22.661  0.00  0.00    +0.000 C 
ATOM     41  C   UNL     1      -4.805  21.991  24.060  0.00  0.00    +0.000 C 
ATOM     42  C   UNL     1      -4.808  20.782  24.992  0.00  0.00    +0.000 C 
ATOM     43  C   UNL     1      -5.152  19.309  22.926  0.00  0.00    +0.000 C 
ATOM     44  C   UNL     1      -4.474  19.438  24.314  0.00  0.00    +0.000 C 
ATOM     45  C   UNL     1      -6.011  18.049  22.847  0.00  0.00    +0.000 C 
BRANCH  42  46
ATOM     46  O   UNL     1      -3.991  21.021  26.137  0.00  0.00    +0.000 OA
ATOM     47  H   UNL     1      -4.439  20.645  26.915  0.00  0.00    +0.000 HD
ENDBRANCH  42  46
BRANCH  44  48
ATOM     48  O   UNL     1      -3.101  19.030  24.274  0.00  0.00    +0.000 OA
BRANCH  48  50
ATOM     49  O   UNL     1      -2.333  16.988  23.404  0.00  0.00    +0.000 OA
ATOM     50  C   UNL     1      -2.619  18.353  23.120  0.00  0.00    +0.000 C 
ATOM     51  C   UNL     1      -1.323  19.060  22.705  0.00  0.00    +0.000 C 
ATOM     52  C   UNL     1      -0.353  18.119  21.994  0.00  0.00    +0.000 C 
ATOM     53  C   UNL     1      -2.001  16.229  22.227  0.00  0.00    +0.000 C 
ATOM     54  C   UNL     1      -1.103  17.011  21.251  0.00  0.00    +0.000 C 
ATOM     55  C   UNL     1      -1.311  14.963  22.722  0.00  0.00    +0.000 C 
BRANCH  52  56
ATOM     56  O   UNL     1       0.417  18.877  21.052  0.00  0.00    +0.000 OA
ATOM     57  H   UNL     1       1.305  19.000  21.433  0.00  0.00    +0.000 HD
ENDBRANCH  52  56
BRANCH  54  58
ATOM     58  O   UNL     1      -1.925  17.624  20.242  0.00  0.00    +0.000 OA
ATOM     59  H   UNL     1      -2.851  17.469  20.523  0.00  0.00    +0.000 HD
ENDBRANCH  54  58
ENDBRANCH  48  50
ENDBRANCH  44  48
ENDBRANCH  38  40
ENDBRANCH   6  38
TORSDOF 12
ENDMDL
MODEL 9
REMARK VINA RESULT:      -7.9      7.003     11.549
REMARK  Name = 
REMARK  17 active torsions:
REMARK  status: ('A' for Active; 'I' for Inactive)
REMARK    1  A    between atoms: O_1  and  C_14
REMARK    2  A    between atoms: O_2  and  C_32
REMARK    3  A    between atoms: O_2  and  C_36
REMARK    4  A    between atoms: O_6  and  C_39
REMARK    5  A    between atoms: O_7  and  C_41
REMARK    6  A    between atoms: O_7  and  C_43
REMARK    7  A    between atoms: O_9  and  C_47
REMARK    8  A    between atoms: O_9  and  C_49
REMARK    9  A    between atoms: O_10  and  C_45
REMARK   10  A    between atoms: O_12  and  C_51
REMARK   11  A    between atoms: O_13  and  C_53
REMARK   12  A    between atoms: C_17  and  C_29
REMARK   13  A    between atoms: C_18  and  C_30
REMARK   14  A    between atoms: C_22  and  C_33
REMARK   15  A    between atoms: C_40  and  C_42
REMARK   16  A    between atoms: C_46  and  C_48
REMARK   17  A    between atoms: C_52  and  C_54
REMARK                            x       y       z     vdW  Elec       q    Type
REMARK                         _______ _______ _______ _____ _____    ______ ____
ROOT
ATOM      1  O   UNL     1      24.905  22.445  28.107  0.00  0.00    +0.000 OA
ATOM      2  C   UNL     1      25.002  21.236  27.358  0.00  0.00    +0.000 C 
ATOM      3  C   UNL     1      23.690  20.883  26.651  0.00  0.00    +0.000 C 
ATOM      4  C   UNL     1      22.692  22.028  26.726  0.00  0.00    +0.000 C 
ATOM      5  C   UNL     1      24.633  23.583  27.280  0.00  0.00    +0.000 C 
ATOM      6  C   UNL     1      23.317  23.417  26.483  0.00  0.00    +0.000 C 
ATOM      7  C   UNL     1      24.568  24.795  28.207  0.00  0.00    +0.000 C 
ENDROOT
BRANCH   4   8
ATOM      8  O   UNL     1      21.545  21.777  25.922  0.00  0.00    +0.000 OA
ATOM      9  H   UNL     1      20.775  22.109  26.429  0.00  0.00    +0.000 HD
ENDBRANCH   4   8
BRANCH   2  10
ATOM     10  O   UNL     1      25.466  20.146  28.155  0.00  0.00    +0.000 OA
BRANCH  10  29
ATOM     11  C   UNL     1      23.220  12.975  26.134  0.00  0.00    +0.000 C 
ATOM     12  C   UNL     1      23.656  14.392  26.599  0.00  0.00    +0.000 C 
ATOM     13  C   UNL     1      25.023  14.410  27.329  0.00  0.00    +0.000 C 
ATOM     14  C   UNL     1      24.318  12.189  25.364  0.00  0.00    +0.000 C 
ATOM     15  C   UNL     1      25.467  15.857  27.795  0.00  0.00    +0.000 C 
ATOM     16  C   UNL     1      24.298  16.552  28.570  0.00  0.00    +0.000 C 
ATOM     17  C   UNL     1      26.083  13.683  26.475  0.00  0.00    +0.000 C 
ATOM     18  C   UNL     1      25.662  12.254  26.130  0.00  0.00    +0.000 C 
ATOM     19  C   UNL     1      23.714  10.748  25.358  0.00  0.00    +0.000 C 
ATOM     20  C   UNL     1      22.575  15.055  27.465  0.00  0.00    +0.000 C 
ATOM     21  C   UNL     1      22.816  12.020  27.271  0.00  0.00    +0.000 C 
ATOM     22  C   UNL     1      22.957  16.483  27.818  0.00  0.00    +0.000 C 
ATOM     23  C   UNL     1      23.088  10.601  26.759  0.00  0.00    +0.000 C 
ATOM     24  C   UNL     1      25.905  16.747  26.599  0.00  0.00    +0.000 C 
ATOM     25  C   UNL     1      24.608  18.020  28.926  0.00  0.00    +0.000 C 
ATOM     26  C   UNL     1      24.517  12.714  23.927  0.00  0.00    +0.000 C 
ATOM     27  C   UNL     1      26.674  15.696  28.762  0.00  0.00    +0.000 C 
ATOM     28  C   UNL     1      26.202  18.196  26.988  0.00  0.00    +0.000 C 
ATOM     29  C   UNL     1      25.031  18.855  27.713  0.00  0.00    +0.000 C 
BRANCH  19  32
ATOM     30  O   UNL     1      25.969   7.768  25.160  0.00  0.00    +0.000 OA
ATOM     31  O   UNL     1      26.660   7.706  22.971  0.00  0.00    +0.000 OA
ATOM     32  C   UNL     1      24.623   9.626  24.933  0.00  0.00    +0.000 C 
ATOM     33  C   UNL     1      25.101   8.616  25.910  0.00  0.00    +0.000 C 
ATOM     34  C   UNL     1      25.175   9.393  23.742  0.00  0.00    +0.000 C 
ATOM     35  C   UNL     1      26.019   8.208  23.876  0.00  0.00    +0.000 C 
ENDBRANCH  19  32
BRANCH  11  36
ATOM     36  O   UNL     1      22.055  13.105  25.301  0.00  0.00    +0.000 OA
ATOM     37  H   UNL     1      22.213  12.623  24.471  0.00  0.00    +0.000 HD
ENDBRANCH  11  36
ENDBRANCH  10  29
ENDBRANCH   2  10
BRANCH   6  38
ATOM     38  O   UNL     1      23.416  23.944  25.156  0.00  0.00    +0.000 OA
BRANCH  38  40
ATOM     39  O   UNL     1      24.704  25.680  24.177  0.00  0.00    +0.000 OA
ATOM     40  C   UNL     1      24.625  24.298  24.501  0.00  0.00    +0.000 C 
ATOM     41  C   UNL     1      25.018  23.421  23.316  0.00  0.00    +0.000 C 
ATOM     42  C   UNL     1      25.790  24.193  22.250  0.00  0.00    +0.000 C 
ATOM     43  C   UNL     1      26.070  26.083  23.955  0.00  0.00    +0.000 C 
ATOM     44  C   UNL     1      26.724  25.294  22.793  0.00  0.00    +0.000 C 
ATOM     45  C   UNL     1      26.042  27.580  23.657  0.00  0.00    +0.000 C 
BRANCH  42  46
ATOM     46  O   UNL     1      26.470  23.300  21.369  0.00  0.00    +0.000 OA
ATOM     47  H   UNL     1      25.878  23.098  20.624  0.00  0.00    +0.000 HD
ENDBRANCH  42  46
BRANCH  44  48
ATOM     48  O   UNL     1      28.079  24.936  23.091  0.00  0.00    +0.000 OA
BRANCH  48  50
ATOM     49  O   UNL     1      29.811  25.111  24.667  0.00  0.00    +0.000 OA
ATOM     50  C   UNL     1      28.455  24.739  24.449  0.00  0.00    +0.000 C 
ATOM     51  C   UNL     1      28.293  23.243  24.737  0.00  0.00    +0.000 C 
ATOM     52  C   UNL     1      29.254  22.755  25.819  0.00  0.00    +0.000 C 
ATOM     53  C   UNL     1      30.182  25.084  26.058  0.00  0.00    +0.000 C 
ATOM     54  C   UNL     1      29.589  23.876  26.806  0.00  0.00    +0.000 C 
ATOM     55  C   UNL     1      31.706  25.063  26.089  0.00  0.00    +0.000 C 
BRANCH  52  56
ATOM     56  O   UNL     1      28.638  21.673  26.529  0.00  0.00    +0.000 OA
ATOM     57  H   UNL     1      29.106  21.576  27.378  0.00  0.00    +0.000 HD
ENDBRANCH  52  56
BRANCH  54  58
ATOM     58  O   UNL     1      28.373  24.276  27.461  0.00  0.00    +0.000 OA
ATOM     59  H   UNL     1      28.091  23.503  27.993  0.00  0.00    +0.000 HD
ENDBRANCH  54  58
ENDBRANCH  48  50
ENDBRANCH  44  48
ENDBRANCH  38  40
ENDBRANCH   6  38
TORSDOF 12
ENDMDL
