MODEL 1
REMARK VINA RESULT:      -5.6      0.000      0.000
REMARK  Name = CHEMBL35349.pdbqt.pdb
REMARK  2 active torsions:
REMARK  status: ('A' for Active; 'I' for Inactive)
REMARK    1  A    between atoms: C_2  and  C_11
REMARK    2  A    between atoms: C_5  and  O_21
REMARK                            x       y       z     vdW  Elec       q    Type
REMARK                         _______ _______ _______ _____ _____    ______ ____
ROOT
ATOM      1  N   UNL     1      22.728  22.187  25.072  0.00  0.00    +0.000 N 
ATOM      2  C   UNL     1      22.955  20.124  25.897  0.00  0.00    +0.000 A 
ATOM      3  C   UNL     1      22.854  21.062  26.983  0.00  0.00    +0.000 A 
ATOM      4  C   UNL     1      22.715  22.335  26.434  0.00  0.00    +0.000 A 
ATOM      5  C   UNL     1      22.873  20.869  24.729  0.00  0.00    +0.000 A 
ATOM      6  C   UNL     1      22.870  20.942  28.387  0.00  0.00    +0.000 A 
ATOM      7  C   UNL     1      22.590  23.494  27.208  0.00  0.00    +0.000 A 
ATOM      8  C   UNL     1      22.745  22.085  29.179  0.00  0.00    +0.000 A 
ATOM      9  C   UNL     1      22.608  23.338  28.594  0.00  0.00    +0.000 A 
ATOM     10  H   UNL     1      22.646  22.936  24.401  0.00  0.00    +0.000 HD
ENDROOT
BRANCH   2  11
ATOM     11  C   UNL     1      23.112  18.691  26.001  0.00  0.00    +0.000 C 
ATOM     12  N   UNL     1      24.085  18.047  25.411  0.00  0.00    +0.000 NA
ATOM     13  C   UNL     1      23.916  16.686  25.735  0.00  0.00    +0.000 A 
ATOM     14  C   UNL     1      22.816  16.430  26.550  0.00  0.00    +0.000 A 
ATOM     15  C   UNL     1      24.717  15.636  25.327  0.00  0.00    +0.000 A 
ATOM     16  C   UNL     1      22.217  17.730  26.778  0.00  0.00    +0.000 C 
ATOM     17  C   UNL     1      22.454  15.177  26.993  0.00  0.00    +0.000 A 
ATOM     18  O   UNL     1      21.237  18.020  27.425  0.00  0.00    +0.000 OA
ATOM     19  C   UNL     1      23.264  14.122  26.579  0.00  0.00    +0.000 A 
ATOM     20  C   UNL     1      24.382  14.347  25.756  0.00  0.00    +0.000 A 
ENDBRANCH   2  11
BRANCH   5  21
ATOM     21  O   UNL     1      22.903  20.572  23.435  0.00  0.00    +0.000 OA
ATOM     22  H   UNL     1      23.725  20.925  23.025  0.00  0.00    +0.000 HD
ENDBRANCH   5  21
TORSDOF 2
ENDMDL
MODEL 2
REMARK VINA RESULT:      -5.5      6.477      9.472
REMARK  Name = CHEMBL35349.pdbqt.pdb
REMARK  2 active torsions:
REMARK  status: ('A' for Active; 'I' for Inactive)
REMARK    1  A    between atoms: C_2  and  C_11
REMARK    2  A    between atoms: C_5  and  O_21
REMARK                            x       y       z     vdW  Elec       q    Type
REMARK                         _______ _______ _______ _____ _____    ______ ____
ROOT
ATOM      1  N   UNL     1      23.322  11.708  24.532  0.00  0.00    +0.000 N 
ATOM      2  C   UNL     1      25.235  11.693  23.379  0.00  0.00    +0.000 A 
ATOM      3  C   UNL     1      25.179  12.879  24.191  0.00  0.00    +0.000 A 
ATOM      4  C   UNL     1      23.976  12.857  24.894  0.00  0.00    +0.000 A 
ATOM      5  C   UNL     1      24.060  10.997  23.623  0.00  0.00    +0.000 A 
ATOM      6  C   UNL     1      26.045  13.973  24.390  0.00  0.00    +0.000 A 
ATOM      7  C   UNL     1      23.589  13.864  25.785  0.00  0.00    +0.000 A 
ATOM      8  C   UNL     1      25.680  14.989  25.275  0.00  0.00    +0.000 A 
ATOM      9  C   UNL     1      24.471  14.931  25.959  0.00  0.00    +0.000 A 
ATOM     10  H   UNL     1      22.421  11.414  24.877  0.00  0.00    +0.000 HD
ENDROOT
BRANCH   2  11
ATOM     11  C   UNL     1      26.303  11.304  22.486  0.00  0.00    +0.000 C 
ATOM     12  N   UNL     1      26.790  12.113  21.581  0.00  0.00    +0.000 NA
ATOM     13  C   UNL     1      27.802  11.397  20.910  0.00  0.00    +0.000 A 
ATOM     14  C   UNL     1      27.984  10.099  21.381  0.00  0.00    +0.000 A 
ATOM     15  C   UNL     1      28.590  11.860  19.873  0.00  0.00    +0.000 A 
ATOM     16  C   UNL     1      27.012   9.954  22.445  0.00  0.00    +0.000 C 
ATOM     17  C   UNL     1      28.914   9.215  20.879  0.00  0.00    +0.000 A 
ATOM     18  O   UNL     1      26.788   9.000  23.155  0.00  0.00    +0.000 OA
ATOM     19  C   UNL     1      29.705   9.687  19.833  0.00  0.00    +0.000 A 
ATOM     20  C   UNL     1      29.547  10.992  19.336  0.00  0.00    +0.000 A 
ENDBRANCH   2  11
BRANCH   5  21
ATOM     21  O   UNL     1      23.550   9.854  23.180  0.00  0.00    +0.000 OA
ATOM     22  H   UNL     1      24.241   9.153  23.175  0.00  0.00    +0.000 HD
ENDBRANCH   5  21
TORSDOF 2
ENDMDL
MODEL 3
REMARK VINA RESULT:      -5.3     28.364     29.776
REMARK  Name = CHEMBL35349.pdbqt.pdb
REMARK  2 active torsions:
REMARK  status: ('A' for Active; 'I' for Inactive)
REMARK    1  A    between atoms: C_2  and  C_11
REMARK    2  A    between atoms: C_5  and  O_21
REMARK                            x       y       z     vdW  Elec       q    Type
REMARK                         _______ _______ _______ _____ _____    ______ ____
ROOT
ATOM      1  N   UNL     1      -5.376  32.028  17.635  0.00  0.00    +0.000 N 
ATOM      2  C   UNL     1      -3.826  30.458  17.288  0.00  0.00    +0.000 A 
ATOM      3  C   UNL     1      -4.570  30.136  18.476  0.00  0.00    +0.000 A 
ATOM      4  C   UNL     1      -5.525  31.133  18.663  0.00  0.00    +0.000 A 
ATOM      5  C   UNL     1      -4.361  31.641  16.800  0.00  0.00    +0.000 A 
ATOM      6  C   UNL     1      -4.517  29.084  19.412  0.00  0.00    +0.000 A 
ATOM      7  C   UNL     1      -6.429  31.140  19.731  0.00  0.00    +0.000 A 
ATOM      8  C   UNL     1      -5.410  29.069  20.485  0.00  0.00    +0.000 A 
ATOM      9  C   UNL     1      -6.349  30.082  20.637  0.00  0.00    +0.000 A 
ATOM     10  H   UNL     1      -5.928  32.862  17.500  0.00  0.00    +0.000 HD
ENDROOT
BRANCH   2  11
ATOM     11  C   UNL     1      -2.737  29.699  16.716  0.00  0.00    +0.000 C 
ATOM     12  N   UNL     1      -1.578  30.237  16.436  0.00  0.00    +0.000 NA
ATOM     13  C   UNL     1      -0.779  29.207  15.901  0.00  0.00    +0.000 A 
ATOM     14  C   UNL     1      -1.421  27.973  15.827  0.00  0.00    +0.000 A 
ATOM     15  C   UNL     1       0.528  29.319  15.465  0.00  0.00    +0.000 A 
ATOM     16  C   UNL     1      -2.748  28.216  16.357  0.00  0.00    +0.000 C 
ATOM     17  C   UNL     1      -0.839  26.824  15.339  0.00  0.00    +0.000 A 
ATOM     18  O   UNL     1      -3.671  27.448  16.496  0.00  0.00    +0.000 OA
ATOM     19  C   UNL     1       0.478  26.943  14.901  0.00  0.00    +0.000 A 
ATOM     20  C   UNL     1       1.154  28.174  14.962  0.00  0.00    +0.000 A 
ENDBRANCH   2  11
BRANCH   5  21
ATOM     21  O   UNL     1      -4.100  32.416  15.754  0.00  0.00    +0.000 OA
ATOM     22  H   UNL     1      -3.640  33.236  16.045  0.00  0.00    +0.000 HD
ENDBRANCH   5  21
TORSDOF 2
ENDMDL
MODEL 4
REMARK VINA RESULT:      -5.1     17.667     20.805
REMARK  Name = CHEMBL35349.pdbqt.pdb
REMARK  2 active torsions:
REMARK  status: ('A' for Active; 'I' for Inactive)
REMARK    1  A    between atoms: C_2  and  C_11
REMARK    2  A    between atoms: C_5  and  O_21
REMARK                            x       y       z     vdW  Elec       q    Type
REMARK                         _______ _______ _______ _____ _____    ______ ____
ROOT
ATOM      1  N   UNL     1      11.703  34.945  20.752  0.00  0.00    +0.000 N 
ATOM      2  C   UNL     1      12.871  34.832  18.852  0.00  0.00    +0.000 A 
ATOM      3  C   UNL     1      13.248  33.738  19.706  0.00  0.00    +0.000 A 
ATOM      4  C   UNL     1      12.503  33.839  20.879  0.00  0.00    +0.000 A 
ATOM      5  C   UNL     1      11.910  35.555  19.543  0.00  0.00    +0.000 A 
ATOM      6  C   UNL     1      14.158  32.670  19.587  0.00  0.00    +0.000 A 
ATOM      7  C   UNL     1      12.615  32.933  21.940  0.00  0.00    +0.000 A 
ATOM      8  C   UNL     1      14.286  31.752  20.632  0.00  0.00    +0.000 A 
ATOM      9  C   UNL     1      13.525  31.887  21.788  0.00  0.00    +0.000 A 
ATOM     10  H   UNL     1      11.049  35.277  21.445  0.00  0.00    +0.000 HD
ENDROOT
BRANCH   2  11
ATOM     11  C   UNL     1      13.391  35.122  17.534  0.00  0.00    +0.000 C 
ATOM     12  N   UNL     1      14.528  35.742  17.349  0.00  0.00    +0.000 NA
ATOM     13  C   UNL     1      14.704  35.844  15.955  0.00  0.00    +0.000 A 
ATOM     14  C   UNL     1      13.669  35.282  15.211  0.00  0.00    +0.000 A 
ATOM     15  C   UNL     1      15.771  36.428  15.299  0.00  0.00    +0.000 A 
ATOM     16  C   UNL     1      12.740  34.772  16.199  0.00  0.00    +0.000 C 
ATOM     17  C   UNL     1      13.624  35.264  13.835  0.00  0.00    +0.000 A 
ATOM     18  O   UNL     1      11.688  34.199  16.039  0.00  0.00    +0.000 OA
ATOM     19  C   UNL     1      14.702  35.855  13.179  0.00  0.00    +0.000 A 
ATOM     20  C   UNL     1      15.763  36.430  13.900  0.00  0.00    +0.000 A 
ENDBRANCH   2  11
BRANCH   5  21
ATOM     21  O   UNL     1      11.200  36.646  19.278  0.00  0.00    +0.000 OA
ATOM     22  H   UNL     1      11.733  37.452  19.468  0.00  0.00    +0.000 HD
ENDBRANCH   5  21
TORSDOF 2
ENDMDL
MODEL 5
REMARK VINA RESULT:      -4.8     24.591     25.975
REMARK  Name = CHEMBL35349.pdbqt.pdb
REMARK  2 active torsions:
REMARK  status: ('A' for Active; 'I' for Inactive)
REMARK    1  A    between atoms: C_2  and  C_11
REMARK    2  A    between atoms: C_5  and  O_21
REMARK                            x       y       z     vdW  Elec       q    Type
REMARK                         _______ _______ _______ _____ _____    ______ ____
ROOT
ATOM      1  N   UNL     1      16.477  23.549   0.579  0.00  0.00    +0.000 N 
ATOM      2  C   UNL     1      15.799  21.575   1.374  0.00  0.00    +0.000 A 
ATOM      3  C   UNL     1      17.127  21.848   1.851  0.00  0.00    +0.000 A 
ATOM      4  C   UNL     1      17.519  23.083   1.338  0.00  0.00    +0.000 A 
ATOM      5  C   UNL     1      15.436  22.659   0.587  0.00  0.00    +0.000 A 
ATOM      6  C   UNL     1      18.035  21.153   2.676  0.00  0.00    +0.000 A 
ATOM      7  C   UNL     1      18.765  23.663   1.601  0.00  0.00    +0.000 A 
ATOM      8  C   UNL     1      19.284  21.714   2.953  0.00  0.00    +0.000 A 
ATOM      9  C   UNL     1      19.638  22.948   2.422  0.00  0.00    +0.000 A 
ATOM     10  H   UNL     1      16.464  24.425   0.077  0.00  0.00    +0.000 HD
ENDROOT
BRANCH   2  11
ATOM     11  C   UNL     1      15.000  20.404   1.657  0.00  0.00    +0.000 C 
ATOM     12  N   UNL     1      13.808  20.480   2.190  0.00  0.00    +0.000 NA
ATOM     13  C   UNL     1      13.342  19.156   2.316  0.00  0.00    +0.000 A 
ATOM     14  C   UNL     1      14.240  18.195   1.859  0.00  0.00    +0.000 A 
ATOM     15  C   UNL     1      12.123  18.757   2.832  0.00  0.00    +0.000 A 
ATOM     16  C   UNL     1      15.386  18.951   1.396  0.00  0.00    +0.000 C 
ATOM     17  C   UNL     1      14.001  16.838   1.881  0.00  0.00    +0.000 A 
ATOM     18  O   UNL     1      16.421  18.556   0.913  0.00  0.00    +0.000 OA
ATOM     19  C   UNL     1      12.772  16.441   2.403  0.00  0.00    +0.000 A 
ATOM     20  C   UNL     1      11.844  17.386   2.873  0.00  0.00    +0.000 A 
ENDBRANCH   2  11
BRANCH   5  21
ATOM     21  O   UNL     1      14.351  22.979  -0.109  0.00  0.00    +0.000 OA
ATOM     22  H   UNL     1      14.525  23.774  -0.662  0.00  0.00    +0.000 HD
ENDBRANCH   5  21
TORSDOF 2
ENDMDL
MODEL 6
REMARK VINA RESULT:      -4.8     27.859     29.199
REMARK  Name = CHEMBL35349.pdbqt.pdb
REMARK  2 active torsions:
REMARK  status: ('A' for Active; 'I' for Inactive)
REMARK    1  A    between atoms: C_2  and  C_11
REMARK    2  A    between atoms: C_5  and  O_21
REMARK                            x       y       z     vdW  Elec       q    Type
REMARK                         _______ _______ _______ _____ _____    ______ ____
ROOT
ATOM      1  N   UNL     1       3.878  12.633   7.327  0.00  0.00    +0.000 N 
ATOM      2  C   UNL     1       2.254  14.095   7.788  0.00  0.00    +0.000 A 
ATOM      3  C   UNL     1       2.161  12.981   8.693  0.00  0.00    +0.000 A 
ATOM      4  C   UNL     1       3.186  12.090   8.379  0.00  0.00    +0.000 A 
ATOM      5  C   UNL     1       3.334  13.834   6.957  0.00  0.00    +0.000 A 
ATOM      6  C   UNL     1       1.295  12.649   9.754  0.00  0.00    +0.000 A 
ATOM      7  C   UNL     1       3.394  10.888   9.063  0.00  0.00    +0.000 A 
ATOM      8  C   UNL     1       1.485  11.455  10.452  0.00  0.00    +0.000 A 
ATOM      9  C   UNL     1       2.519  10.592  10.109  0.00  0.00    +0.000 A 
ATOM     10  H   UNL     1       4.679  12.216   6.876  0.00  0.00    +0.000 HD
ENDROOT
BRANCH   2  11
ATOM     11  C   UNL     1       1.392  15.255   7.750  0.00  0.00    +0.000 C 
ATOM     12  N   UNL     1       0.553  15.474   6.771  0.00  0.00    +0.000 NA
ATOM     13  C   UNL     1      -0.106  16.682   7.074  0.00  0.00    +0.000 A 
ATOM     14  C   UNL     1       0.304  17.266   8.270  0.00  0.00    +0.000 A 
ATOM     15  C   UNL     1      -1.081  17.302   6.315  0.00  0.00    +0.000 A 
ATOM     16  C   UNL     1       1.314  16.367   8.791  0.00  0.00    +0.000 C 
ATOM     17  C   UNL     1      -0.199  18.447   8.769  0.00  0.00    +0.000 A 
ATOM     18  O   UNL     1       1.963  16.450   9.808  0.00  0.00    +0.000 OA
ATOM     19  C   UNL     1      -1.181  19.068   8.000  0.00  0.00    +0.000 A 
ATOM     20  C   UNL     1      -1.617  18.505   6.788  0.00  0.00    +0.000 A 
ENDBRANCH   2  11
BRANCH   5  21
ATOM     21  O   UNL     1       3.904  14.480   5.946  0.00  0.00    +0.000 OA
ATOM     22  H   UNL     1       4.122  15.402   6.213  0.00  0.00    +0.000 HD
ENDBRANCH   5  21
TORSDOF 2
ENDMDL
MODEL 7
REMARK VINA RESULT:      -4.5     17.278     19.043
REMARK  Name = CHEMBL35349.pdbqt.pdb
REMARK  2 active torsions:
REMARK  status: ('A' for Active; 'I' for Inactive)
REMARK    1  A    between atoms: C_2  and  C_11
REMARK    2  A    between atoms: C_5  and  O_21
REMARK                            x       y       z     vdW  Elec       q    Type
REMARK                         _______ _______ _______ _____ _____    ______ ____
ROOT
ATOM      1  N   UNL     1      14.826  35.310  17.189  0.00  0.00    +0.000 N 
ATOM      2  C   UNL     1      14.284  34.661  19.256  0.00  0.00    +0.000 A 
ATOM      3  C   UNL     1      15.545  35.351  19.290  0.00  0.00    +0.000 A 
ATOM      4  C   UNL     1      15.853  35.741  17.988  0.00  0.00    +0.000 A 
ATOM      5  C   UNL     1      13.875  34.660  17.930  0.00  0.00    +0.000 A 
ATOM      6  C   UNL     1      16.456  35.679  20.314  0.00  0.00    +0.000 A 
ATOM      7  C   UNL     1      17.018  36.439  17.651  0.00  0.00    +0.000 A 
ATOM      8  C   UNL     1      17.625  36.376  20.002  0.00  0.00    +0.000 A 
ATOM      9  C   UNL     1      17.897  36.748  18.690  0.00  0.00    +0.000 A 
ATOM     10  H   UNL     1      14.765  35.446  16.191  0.00  0.00    +0.000 HD
ENDROOT
BRANCH   2  11
ATOM     11  C   UNL     1      13.581  34.084  20.379  0.00  0.00    +0.000 C 
ATOM     12  N   UNL     1      12.752  34.775  21.118  0.00  0.00    +0.000 NA
ATOM     13  C   UNL     1      12.265  33.892  22.103  0.00  0.00    +0.000 A 
ATOM     14  C   UNL     1      12.781  32.602  22.011  0.00  0.00    +0.000 A 
ATOM     15  C   UNL     1      11.359  34.192  23.104  0.00  0.00    +0.000 A 
ATOM     16  C   UNL     1      13.678  32.644  20.874  0.00  0.00    +0.000 C 
ATOM     17  C   UNL     1      12.451  31.572  22.864  0.00  0.00    +0.000 A 
ATOM     18  O   UNL     1      14.360  31.764  20.402  0.00  0.00    +0.000 OA
ATOM     19  C   UNL     1      11.538  31.879  23.871  0.00  0.00    +0.000 A 
ATOM     20  C   UNL     1      10.998  33.172  23.991  0.00  0.00    +0.000 A 
ENDBRANCH   2  11
BRANCH   5  21
ATOM     21  O   UNL     1      12.815  34.186  17.286  0.00  0.00    +0.000 OA
ATOM     22  H   UNL     1      12.888  34.380  16.324  0.00  0.00    +0.000 HD
ENDBRANCH   5  21
TORSDOF 2
ENDMDL
MODEL 8
REMARK VINA RESULT:      -4.4     19.388     20.689
REMARK  Name = CHEMBL35349.pdbqt.pdb
REMARK  2 active torsions:
REMARK  status: ('A' for Active; 'I' for Inactive)
REMARK    1  A    between atoms: C_2  and  C_11
REMARK    2  A    between atoms: C_5  and  O_21
REMARK                            x       y       z     vdW  Elec       q    Type
REMARK                         _______ _______ _______ _____ _____    ______ ____
ROOT
ATOM      1  N   UNL     1      22.811  -0.315  19.776  0.00  0.00    +0.000 N 
ATOM      2  C   UNL     1      24.343   0.628  18.453  0.00  0.00    +0.000 A 
ATOM      3  C   UNL     1      23.079   0.596  17.768  0.00  0.00    +0.000 A 
ATOM      4  C   UNL     1      22.148   0.003  18.619  0.00  0.00    +0.000 A 
ATOM      5  C   UNL     1      24.129   0.051  19.696  0.00  0.00    +0.000 A 
ATOM      6  C   UNL     1      22.641   1.019  16.497  0.00  0.00    +0.000 A 
ATOM      7  C   UNL     1      20.807  -0.191  18.274  0.00  0.00    +0.000 A 
ATOM      8  C   UNL     1      21.306   0.836  16.131  0.00  0.00    +0.000 A 
ATOM      9  C   UNL     1      20.408   0.240  17.008  0.00  0.00    +0.000 A 
ATOM     10  H   UNL     1      22.399  -0.758  20.584  0.00  0.00    +0.000 HD
ENDROOT
BRANCH   2  11
ATOM     11  C   UNL     1      25.590   1.155  17.946  0.00  0.00    +0.000 C 
ATOM     12  N   UNL     1      26.674   0.430  17.857  0.00  0.00    +0.000 NA
ATOM     13  C   UNL     1      27.674   1.270  17.327  0.00  0.00    +0.000 A 
ATOM     14  C   UNL     1      27.241   2.567  17.063  0.00  0.00    +0.000 A 
ATOM     15  C   UNL     1      28.986   0.925  17.060  0.00  0.00    +0.000 A 
ATOM     16  C   UNL     1      25.845   2.577  17.453  0.00  0.00    +0.000 C 
ATOM     17  C   UNL     1      28.041   3.561  16.544  0.00  0.00    +0.000 A 
ATOM     18  O   UNL     1      25.043   3.480  17.410  0.00  0.00    +0.000 OA
ATOM     19  C   UNL     1      29.363   3.208  16.278  0.00  0.00    +0.000 A 
ATOM     20  C   UNL     1      29.830   1.907  16.533  0.00  0.00    +0.000 A 
ENDBRANCH   2  11
BRANCH   5  21
ATOM     21  O   UNL     1      24.898  -0.196  20.750  0.00  0.00    +0.000 OA
ATOM     22  H   UNL     1      25.678   0.405  20.749  0.00  0.00    +0.000 HD
ENDBRANCH   5  21
TORSDOF 2
ENDMDL
MODEL 9
REMARK VINA RESULT:      -4.4     16.219     20.252
REMARK  Name = CHEMBL35349.pdbqt.pdb
REMARK  2 active torsions:
REMARK  status: ('A' for Active; 'I' for Inactive)
REMARK    1  A    between atoms: C_2  and  C_11
REMARK    2  A    between atoms: C_5  and  O_21
REMARK                            x       y       z     vdW  Elec       q    Type
REMARK                         _______ _______ _______ _____ _____    ______ ____
ROOT
ATOM      1  N   UNL     1      29.212   2.199  13.826  0.00  0.00    +0.000 N 
ATOM      2  C   UNL     1      28.504   2.682  15.888  0.00  0.00    +0.000 A 
ATOM      3  C   UNL     1      27.915   1.441  15.462  0.00  0.00    +0.000 A 
ATOM      4  C   UNL     1      28.375   1.171  14.176  0.00  0.00    +0.000 A 
ATOM      5  C   UNL     1      29.302   3.116  14.839  0.00  0.00    +0.000 A 
ATOM      6  C   UNL     1      27.028   0.522  16.057  0.00  0.00    +0.000 A 
ATOM      7  C   UNL     1      28.001   0.035  13.450  0.00  0.00    +0.000 A 
ATOM      8  C   UNL     1      26.641  -0.619  15.352  0.00  0.00    +0.000 A 
ATOM      9  C   UNL     1      27.122  -0.854  14.069  0.00  0.00    +0.000 A 
ATOM     10  H   UNL     1      29.700   2.283  12.946  0.00  0.00    +0.000 HD
ENDROOT
BRANCH   2  11
ATOM     11  C   UNL     1      28.306   3.346  17.157  0.00  0.00    +0.000 C 
ATOM     12  N   UNL     1      29.294   3.617  17.969  0.00  0.00    +0.000 NA
ATOM     13  C   UNL     1      28.726   4.257  19.089  0.00  0.00    +0.000 A 
ATOM     14  C   UNL     1      27.344   4.409  19.012  0.00  0.00    +0.000 A 
ATOM     15  C   UNL     1      29.400   4.723  20.202  0.00  0.00    +0.000 A 
ATOM     16  C   UNL     1      26.978   3.821  17.740  0.00  0.00    +0.000 C 
ATOM     17  C   UNL     1      26.574   5.004  19.988  0.00  0.00    +0.000 A 
ATOM     18  O   UNL     1      25.887   3.715  17.229  0.00  0.00    +0.000 OA
ATOM     19  C   UNL     1      27.258   5.472  21.108  0.00  0.00    +0.000 A 
ATOM     20  C   UNL     1      28.653   5.333  21.216  0.00  0.00    +0.000 A 
ENDBRANCH   2  11
BRANCH   5  21
ATOM     21  O   UNL     1      30.081   4.173  14.641  0.00  0.00    +0.000 OA
ATOM     22  H   UNL     1      30.557   4.088  13.784  0.00  0.00    +0.000 HD
ENDBRANCH   5  21
TORSDOF 2
ENDMDL
