MODEL 1
REMARK VINA RESULT:      -4.7      0.000      0.000
REMARK  Name = Ciclopirox.pdbqt.pdb
REMARK  2 active torsions:
REMARK  status: ('A' for Active; 'I' for Inactive)
REMARK    1  A    between atoms: N_2  and  O_15
REMARK    2  A    between atoms: C_3  and  C_9
REMARK                            x       y       z     vdW  Elec       q    Type
REMARK                         _______ _______ _______ _____ _____    ______ ____
ROOT
ATOM      1  O   UNL     1       3.322  10.570   4.002  0.00  0.00    +0.000 OA
ATOM      2  N   UNL     1       3.243  11.176   6.263  0.00  0.00    +0.000 N 
ATOM      3  C   UNL     1       3.222  12.200   7.220  0.00  0.00    +0.000 C 
ATOM      4  C   UNL     1       3.314  13.378   6.656  0.00  0.00    +0.000 C 
ATOM      5  C   UNL     1       3.448  13.900   5.336  0.00  0.00    +0.000 C 
ATOM      6  C   UNL     1       3.344  11.420   4.881  0.00  0.00    +0.000 C 
ATOM      7  C   UNL     1       3.449  12.832   4.596  0.00  0.00    +0.000 C 
ATOM      8  C   UNL     1       4.384  15.030   5.062  0.00  0.00    +0.000 C 
ENDROOT
BRANCH   3   9
ATOM      9  C   UNL     1       3.101  12.000   8.635  0.00  0.00    +0.000 A 
ATOM     10  C   UNL     1       4.149  11.454   9.465  0.00  0.00    +0.000 A 
ATOM     11  C   UNL     1       4.112  10.942  10.923  0.00  0.00    +0.000 A 
ATOM     12  C   UNL     1       2.747  11.014  11.634  0.00  0.00    +0.000 A 
ATOM     13  C   UNL     1       1.563  11.585  10.832  0.00  0.00    +0.000 A 
ATOM     14  C   UNL     1       1.870  12.030   9.385  0.00  0.00    +0.000 A 
ENDBRANCH   3   9
BRANCH   2  15
ATOM     15  O   UNL     1       3.063   9.843   6.683  0.00  0.00    +0.000 OA
ATOM     16  H   UNL     1       3.844   9.393   6.301  0.00  0.00    +0.000 HD
ENDBRANCH   2  15
TORSDOF 2
ENDMDL
MODEL 2
REMARK VINA RESULT:      -4.5     17.012     17.737
REMARK  Name = Ciclopirox.pdbqt.pdb
REMARK  2 active torsions:
REMARK  status: ('A' for Active; 'I' for Inactive)
REMARK    1  A    between atoms: N_2  and  O_15
REMARK    2  A    between atoms: C_3  and  C_9
REMARK                            x       y       z     vdW  Elec       q    Type
REMARK                         _______ _______ _______ _____ _____    ______ ____
ROOT
ATOM      1  O   UNL     1       0.266  29.776  10.735  0.00  0.00    +0.000 OA
ATOM      2  N   UNL     1      -0.016  28.403  12.612  0.00  0.00    +0.000 N 
ATOM      3  C   UNL     1       0.194  28.205  13.983  0.00  0.00    +0.000 C 
ATOM      4  C   UNL     1       0.880  29.192  14.504  0.00  0.00    +0.000 C 
ATOM      5  C   UNL     1       1.486  30.400  14.052  0.00  0.00    +0.000 C 
ATOM      6  C   UNL     1       0.458  29.531  11.918  0.00  0.00    +0.000 C 
ATOM      7  C   UNL     1       1.195  30.419  12.786  0.00  0.00    +0.000 C 
ATOM      8  C   UNL     1       2.841  30.795  14.540  0.00  0.00    +0.000 C 
ENDROOT
BRANCH   3   9
ATOM      9  C   UNL     1      -0.287  27.083  14.736  0.00  0.00    +0.000 A 
ATOM     10  C   UNL     1      -0.232  25.717  14.269  0.00  0.00    +0.000 A 
ATOM     11  C   UNL     1      -0.914  24.441  14.815  0.00  0.00    +0.000 A 
ATOM     12  C   UNL     1      -1.802  24.625  16.059  0.00  0.00    +0.000 A 
ATOM     13  C   UNL     1      -1.924  26.048  16.636  0.00  0.00    +0.000 A 
ATOM     14  C   UNL     1      -1.135  27.153  15.899  0.00  0.00    +0.000 A 
ENDBRANCH   3   9
BRANCH   2  15
ATOM     15  O   UNL     1      -0.815  27.484  11.903  0.00  0.00    +0.000 OA
ATOM     16  H   UNL     1      -0.171  26.788  11.658  0.00  0.00    +0.000 HD
ENDBRANCH   2  15
TORSDOF 2
ENDMDL
MODEL 3
REMARK VINA RESULT:      -4.3     24.891     26.547
REMARK  Name = Ciclopirox.pdbqt.pdb
REMARK  2 active torsions:
REMARK  status: ('A' for Active; 'I' for Inactive)
REMARK    1  A    between atoms: N_2  and  O_15
REMARK    2  A    between atoms: C_3  and  C_9
REMARK                            x       y       z     vdW  Elec       q    Type
REMARK                         _______ _______ _______ _____ _____    ______ ____
ROOT
ATOM      1  O   UNL     1      21.468  35.066  10.335  0.00  0.00    +0.000 OA
ATOM      2  N   UNL     1      20.604  33.171   9.266  0.00  0.00    +0.000 N 
ATOM      3  C   UNL     1      19.489  32.370   8.981  0.00  0.00    +0.000 C 
ATOM      4  C   UNL     1      18.416  32.821   9.581  0.00  0.00    +0.000 C 
ATOM      5  C   UNL     1      18.078  33.893  10.459  0.00  0.00    +0.000 C 
ATOM      6  C   UNL     1      20.540  34.309  10.090  0.00  0.00    +0.000 C 
ATOM      7  C   UNL     1      19.208  34.516  10.609  0.00  0.00    +0.000 C 
ATOM      8  C   UNL     1      17.163  33.663  11.615  0.00  0.00    +0.000 C 
ENDROOT
BRANCH   3   9
ATOM      9  C   UNL     1      19.502  31.214   8.132  0.00  0.00    +0.000 A 
ATOM     10  C   UNL     1      19.970  29.913   8.550  0.00  0.00    +0.000 A 
ATOM     11  C   UNL     1      20.290  28.647   7.721  0.00  0.00    +0.000 A 
ATOM     12  C   UNL     1      20.084  28.762   6.199  0.00  0.00    +0.000 A 
ATOM     13  C   UNL     1      19.584  30.112   5.653  0.00  0.00    +0.000 A 
ATOM     14  C   UNL     1      19.338  31.222   6.700  0.00  0.00    +0.000 A 
ENDBRANCH   3   9
BRANCH   2  15
ATOM     15  O   UNL     1      21.829  32.886   8.632  0.00  0.00    +0.000 OA
ATOM     16  H   UNL     1      22.477  33.339   9.209  0.00  0.00    +0.000 HD
ENDBRANCH   2  15
TORSDOF 2
ENDMDL
MODEL 4
REMARK VINA RESULT:      -4.3     26.997     28.033
REMARK  Name = Ciclopirox.pdbqt.pdb
REMARK  2 active torsions:
REMARK  status: ('A' for Active; 'I' for Inactive)
REMARK    1  A    between atoms: N_2  and  O_15
REMARK    2  A    between atoms: C_3  and  C_9
REMARK                            x       y       z     vdW  Elec       q    Type
REMARK                         _______ _______ _______ _____ _____    ______ ____
ROOT
ATOM      1  O   UNL     1      25.873  13.054  24.224  0.00  0.00    +0.000 OA
ATOM      2  N   UNL     1      24.889  15.115  24.741  0.00  0.00    +0.000 N 
ATOM      3  C   UNL     1      23.941  15.827  25.489  0.00  0.00    +0.000 C 
ATOM      4  C   UNL     1      23.231  15.023  26.241  0.00  0.00    +0.000 C 
ATOM      5  C   UNL     1      23.149  13.622  26.491  0.00  0.00    +0.000 C 
ATOM      6  C   UNL     1      25.036  13.719  24.818  0.00  0.00    +0.000 C 
ATOM      7  C   UNL     1      24.081  13.133  25.730  0.00  0.00    +0.000 C 
ATOM      8  C   UNL     1      21.821  12.953  26.614  0.00  0.00    +0.000 C 
ENDROOT
BRANCH   3   9
ATOM      9  C   UNL     1      23.769  17.250  25.459  0.00  0.00    +0.000 A 
ATOM     10  C   UNL     1      24.112  18.127  26.554  0.00  0.00    +0.000 A 
ATOM     11  C   UNL     1      23.770  19.615  26.795  0.00  0.00    +0.000 A 
ATOM     12  C   UNL     1      22.926  20.303  25.705  0.00  0.00    +0.000 A 
ATOM     13  C   UNL     1      22.509  19.451  24.492  0.00  0.00    +0.000 A 
ATOM     14  C   UNL     1      22.986  17.981  24.494  0.00  0.00    +0.000 A 
ENDBRANCH   3   9
BRANCH   2  15
ATOM     15  O   UNL     1      25.803  15.829  23.941  0.00  0.00    +0.000 OA
ATOM     16  H   UNL     1      25.214  16.333  23.343  0.00  0.00    +0.000 HD
ENDBRANCH   2  15
TORSDOF 2
ENDMDL
MODEL 5
REMARK VINA RESULT:      -4.1     22.402     23.169
REMARK  Name = Ciclopirox.pdbqt.pdb
REMARK  2 active torsions:
REMARK  status: ('A' for Active; 'I' for Inactive)
REMARK    1  A    between atoms: N_2  and  O_15
REMARK    2  A    between atoms: C_3  and  C_9
REMARK                            x       y       z     vdW  Elec       q    Type
REMARK                         _______ _______ _______ _____ _____    ______ ____
ROOT
ATOM      1  O   UNL     1      15.871  -3.293  17.915  0.00  0.00    +0.000 OA
ATOM      2  N   UNL     1      17.805  -2.018  17.569  0.00  0.00    +0.000 N 
ATOM      3  C   UNL     1      18.802  -1.587  16.684  0.00  0.00    +0.000 C 
ATOM      4  C   UNL     1      18.656  -2.132  15.502  0.00  0.00    +0.000 C 
ATOM      5  C   UNL     1      17.770  -3.059  14.878  0.00  0.00    +0.000 C 
ATOM      6  C   UNL     1      16.789  -2.918  17.199  0.00  0.00    +0.000 C 
ATOM      7  C   UNL     1      16.929  -3.345  15.827  0.00  0.00    +0.000 C 
ATOM      8  C   UNL     1      18.301  -4.118  13.971  0.00  0.00    +0.000 C 
ENDROOT
BRANCH   3   9
ATOM      9  C   UNL     1      19.844  -0.657  17.009  0.00  0.00    +0.000 A 
ATOM     10  C   UNL     1      20.310   0.377  16.114  0.00  0.00    +0.000 A 
ATOM     11  C   UNL     1      21.562   1.282  16.190  0.00  0.00    +0.000 A 
ATOM     12  C   UNL     1      22.480   1.071  17.408  0.00  0.00    +0.000 A 
ATOM     13  C   UNL     1      22.068  -0.010  18.424  0.00  0.00    +0.000 A 
ATOM     14  C   UNL     1      20.764  -0.777  18.113  0.00  0.00    +0.000 A 
ENDBRANCH   3   9
BRANCH   2  15
ATOM     15  O   UNL     1      17.753  -1.464  18.863  0.00  0.00    +0.000 OA
ATOM     16  H   UNL     1      18.656  -1.631  19.202  0.00  0.00    +0.000 HD
ENDBRANCH   2  15
TORSDOF 2
ENDMDL
MODEL 6
REMARK VINA RESULT:      -4.1     18.118     19.033
REMARK  Name = Ciclopirox.pdbqt.pdb
REMARK  2 active torsions:
REMARK  status: ('A' for Active; 'I' for Inactive)
REMARK    1  A    between atoms: N_2  and  O_15
REMARK    2  A    between atoms: C_3  and  C_9
REMARK                            x       y       z     vdW  Elec       q    Type
REMARK                         _______ _______ _______ _____ _____    ______ ____
ROOT
ATOM      1  O   UNL     1      -0.485  33.369  12.803  0.00  0.00    +0.000 OA
ATOM      2  N   UNL     1      -0.116  31.063  12.975  0.00  0.00    +0.000 N 
ATOM      3  C   UNL     1       0.532  29.922  12.482  0.00  0.00    +0.000 C 
ATOM      4  C   UNL     1       1.256  30.206  11.428  0.00  0.00    +0.000 C 
ATOM      5  C   UNL     1       1.547  31.355  10.636  0.00  0.00    +0.000 C 
ATOM      6  C   UNL     1       0.020  32.334  12.390  0.00  0.00    +0.000 C 
ATOM      7  C   UNL     1       0.876  32.297  11.227  0.00  0.00    +0.000 C 
ATOM      8  C   UNL     1       1.591  31.256   9.147  0.00  0.00    +0.000 C 
ENDROOT
BRANCH   3   9
ATOM      9  C   UNL     1       0.440  28.611  13.055  0.00  0.00    +0.000 A 
ATOM     10  C   UNL     1      -0.346  27.538  12.491  0.00  0.00    +0.000 A 
ATOM     11  C   UNL     1      -0.761  26.174  13.089  0.00  0.00    +0.000 A 
ATOM     12  C   UNL     1      -0.269  25.882  14.520  0.00  0.00    +0.000 A 
ATOM     13  C   UNL     1       0.580  26.966  15.209  0.00  0.00    +0.000 A 
ATOM     14  C   UNL     1       0.853  28.245  14.387  0.00  0.00    +0.000 A 
ENDBRANCH   3   9
BRANCH   2  15
ATOM     15  O   UNL     1      -0.869  30.962  14.161  0.00  0.00    +0.000 OA
ATOM     16  H   UNL     1      -1.471  31.731  14.097  0.00  0.00    +0.000 HD
ENDBRANCH   2  15
TORSDOF 2
ENDMDL
MODEL 7
REMARK VINA RESULT:      -4.0     27.701     29.022
REMARK  Name = Ciclopirox.pdbqt.pdb
REMARK  2 active torsions:
REMARK  status: ('A' for Active; 'I' for Inactive)
REMARK    1  A    between atoms: N_2  and  O_15
REMARK    2  A    between atoms: C_3  and  C_9
REMARK                            x       y       z     vdW  Elec       q    Type
REMARK                         _______ _______ _______ _____ _____    ______ ____
ROOT
ATOM      1  O   UNL     1      23.787   7.342  26.461  0.00  0.00    +0.000 OA
ATOM      2  N   UNL     1      23.676   9.677  26.585  0.00  0.00    +0.000 N 
ATOM      3  C   UNL     1      24.044  10.852  27.256  0.00  0.00    +0.000 C 
ATOM      4  C   UNL     1      24.753  10.585  28.325  0.00  0.00    +0.000 C 
ATOM      5  C   UNL     1      25.234   9.425  29.000  0.00  0.00    +0.000 C 
ATOM      6  C   UNL     1      24.042   8.394  27.029  0.00  0.00    +0.000 C 
ATOM      7  C   UNL     1      24.807   8.452  28.253  0.00  0.00    +0.000 C 
ATOM      8  C   UNL     1      25.175   9.339  30.489  0.00  0.00    +0.000 C 
ENDROOT
BRANCH   3   9
ATOM      9  C   UNL     1      23.712  12.180  26.831  0.00  0.00    +0.000 A 
ATOM     10  C   UNL     1      24.495  12.945  25.888  0.00  0.00    +0.000 A 
ATOM     11  C   UNL     1      24.435  14.444  25.516  0.00  0.00    +0.000 A 
ATOM     12  C   UNL     1      23.377  15.286  26.254  0.00  0.00    +0.000 A 
ATOM     13  C   UNL     1      22.488  14.561  27.281  0.00  0.00    +0.000 A 
ATOM     14  C   UNL     1      22.753  13.050  27.466  0.00  0.00    +0.000 A 
ENDBRANCH   3   9
BRANCH   2  15
ATOM     15  O   UNL     1      22.985   9.777  25.362  0.00  0.00    +0.000 OA
ATOM     16  H   UNL     1      23.693  10.041  24.739  0.00  0.00    +0.000 HD
ENDBRANCH   2  15
TORSDOF 2
ENDMDL
MODEL 8
REMARK VINA RESULT:      -4.0     28.011     29.198
REMARK  Name = Ciclopirox.pdbqt.pdb
REMARK  2 active torsions:
REMARK  status: ('A' for Active; 'I' for Inactive)
REMARK    1  A    between atoms: N_2  and  O_15
REMARK    2  A    between atoms: C_3  and  C_9
REMARK                            x       y       z     vdW  Elec       q    Type
REMARK                         _______ _______ _______ _____ _____    ______ ____
ROOT
ATOM      1  O   UNL     1      15.840  31.939  27.575  0.00  0.00    +0.000 OA
ATOM      2  N   UNL     1      14.616  32.311  25.614  0.00  0.00    +0.000 N 
ATOM      3  C   UNL     1      13.367  32.338  24.978  0.00  0.00    +0.000 C 
ATOM      4  C   UNL     1      12.412  31.969  25.795  0.00  0.00    +0.000 C 
ATOM      5  C   UNL     1      12.300  31.531  27.147  0.00  0.00    +0.000 C 
ATOM      6  C   UNL     1      14.784  31.937  26.959  0.00  0.00    +0.000 C 
ATOM      7  C   UNL     1      13.528  31.569  27.570  0.00  0.00    +0.000 C 
ATOM      8  C   UNL     1      11.395  30.399  27.502  0.00  0.00    +0.000 C 
ENDROOT
BRANCH   3   9
ATOM      9  C   UNL     1      13.145  32.730  23.617  0.00  0.00    +0.000 A 
ATOM     10  C   UNL     1      13.538  31.937  22.475  0.00  0.00    +0.000 A 
ATOM     11  C   UNL     1      13.611  32.304  20.975  0.00  0.00    +0.000 A 
ATOM     12  C   UNL     1      13.202  33.742  20.606  0.00  0.00    +0.000 A 
ATOM     13  C   UNL     1      12.764  34.669  21.756  0.00  0.00    +0.000 A 
ATOM     14  C   UNL     1      12.780  34.052  23.172  0.00  0.00    +0.000 A 
ENDBRANCH   3   9
BRANCH   2  15
ATOM     15  O   UNL     1      15.750  32.765  24.911  0.00  0.00    +0.000 OA
ATOM     16  H   UNL     1      15.372  33.442  24.313  0.00  0.00    +0.000 HD
ENDBRANCH   2  15
TORSDOF 2
ENDMDL
MODEL 9
REMARK VINA RESULT:      -3.8      2.141      2.197
REMARK  Name = Ciclopirox.pdbqt.pdb
REMARK  2 active torsions:
REMARK  status: ('A' for Active; 'I' for Inactive)
REMARK    1  A    between atoms: N_2  and  O_15
REMARK    2  A    between atoms: C_3  and  C_9
REMARK                            x       y       z     vdW  Elec       q    Type
REMARK                         _______ _______ _______ _____ _____    ______ ____
ROOT
ATOM      1  O   UNL     1       0.649  14.277   4.111  0.00  0.00    +0.000 OA
ATOM      2  N   UNL     1       1.538  13.524   6.143  0.00  0.00    +0.000 N 
ATOM      3  C   UNL     1       2.605  13.535   7.051  0.00  0.00    +0.000 C 
ATOM      4  C   UNL     1       3.602  14.256   6.602  0.00  0.00    +0.000 C 
ATOM      5  C   UNL     1       3.903  15.015   5.434  0.00  0.00    +0.000 C 
ATOM      6  C   UNL     1       1.566  14.215   4.918  0.00  0.00    +0.000 C 
ATOM      7  C   UNL     1       2.824  14.896   4.720  0.00  0.00    +0.000 C 
ATOM      8  C   UNL     1       5.256  14.936   4.808  0.00  0.00    +0.000 C 
ENDROOT
BRANCH   3   9
ATOM      9  C   UNL     1       2.614  12.863   8.318  0.00  0.00    +0.000 A 
ATOM     10  C   UNL     1       3.577  11.851   8.687  0.00  0.00    +0.000 A 
ATOM     11  C   UNL     1       3.590  10.862   9.875  0.00  0.00    +0.000 A 
ATOM     12  C   UNL     1       2.393  10.946  10.841  0.00  0.00    +0.000 A 
ATOM     13  C   UNL     1       1.310  11.997  10.535  0.00  0.00    +0.000 A 
ATOM     14  C   UNL     1       1.539  12.866   9.278  0.00  0.00    +0.000 A 
ENDBRANCH   3   9
BRANCH   2  15
ATOM     15  O   UNL     1       0.342  12.871   6.501  0.00  0.00    +0.000 OA
ATOM     16  H   UNL     1      -0.315  13.596   6.466  0.00  0.00    +0.000 HD
ENDBRANCH   2  15
TORSDOF 2
ENDMDL
