MODEL 1
REMARK VINA RESULT:      -5.3      0.000      0.000
REMARK  Name = 
REMARK  14 active torsions:
REMARK  status: ('A' for Active; 'I' for Inactive)
REMARK    1  A    between atoms: S_2  and  C_21
REMARK    2  A    between atoms: S_2  and  C_27
REMARK    3  A    between atoms: O_4  and  C_16
REMARK    4  A    between atoms: O_5  and  C_18
REMARK    5  A    between atoms: O_6  and  C_20
REMARK    6  A    between atoms: N_8  and  C_23
REMARK    7  A    between atoms: N_9  and  C_15
REMARK    8  A    between atoms: C_10  and  C_17
REMARK    9  A    between atoms: C_11  and  C_19
REMARK   10  A    between atoms: C_14  and  C_15
REMARK   11  A    between atoms: C_15  and  C_22
REMARK   12  A    between atoms: C_17  and  C_24
REMARK   13  A    between atoms: C_22  and  C_25
REMARK   14  A    between atoms: C_24  and  C_26
REMARK                            x       y       z     vdW  Elec       q    Type
REMARK                         _______ _______ _______ _____ _____    ______ ____
ROOT
ATOM      1  C   UNL     1      -0.481  29.644  13.145  0.00  0.00    +0.000 C 
ENDROOT
BRANCH   1   3
ATOM      2  O   UNL     1      -1.613  27.975  14.484  0.00  0.00    +0.000 OA
ATOM      3  C   UNL     1      -1.014  29.286  14.567  0.00  0.00    +0.000 C 
ATOM      4  C   UNL     1       0.074  29.328  15.661  0.00  0.00    +0.000 C 
ATOM      5  C   UNL     1      -0.492  28.853  17.005  0.00  0.00    +0.000 C 
ATOM      6  C   UNL     1      -1.135  27.468  16.853  0.00  0.00    +0.000 C 
ATOM      7  C   UNL     1      -2.165  27.474  15.704  0.00  0.00    +0.000 C 
BRANCH   7   8
ATOM      8  S   UNL     1      -3.724  28.344  16.154  0.00  0.00    +0.000 S 
ATOM      9  C   UNL     1      -4.715  27.882  14.714  0.00  0.00    +0.000 C 
ENDBRANCH   7   8
BRANCH   4  10
ATOM     10  O   UNL     1       1.183  28.473  15.336  0.00  0.00    +0.000 OA
ATOM     11  H   UNL     1       1.974  28.855  15.786  0.00  0.00    +0.000 HD
ENDBRANCH   4  10
BRANCH   5  12
ATOM     12  O   UNL     1       0.572  28.814  17.968  0.00  0.00    +0.000 OA
ATOM     13  H   UNL     1       1.373  29.082  17.475  0.00  0.00    +0.000 HD
ENDBRANCH   5  12
BRANCH   6  14
ATOM     14  O   UNL     1      -1.718  27.013  18.083  0.00  0.00    +0.000 OA
ATOM     15  H   UNL     1      -1.467  27.654  18.772  0.00  0.00    +0.000 HD
ENDBRANCH   6  14
ENDBRANCH   1   3
BRANCH   1  17
ATOM     16  O   UNL     1       1.578  29.592  11.225  0.00  0.00    +0.000 OA
ATOM     17  N   UNL     1       0.782  30.397  13.197  0.00  0.00    +0.000 N 
ATOM     18  C   UNL     1       1.728  30.341  12.189  0.00  0.00    +0.000 C 
ATOM     19  H   UNL     1       0.970  30.948  14.028  0.00  0.00    +0.000 HD
BRANCH  18  22
ATOM     20  N   UNL     1       2.757  32.609  11.973  0.00  0.00    +0.000 NA
ATOM     21  C   UNL     1       3.270  32.880  14.207  0.00  0.00    +0.000 C 
ATOM     22  C   UNL     1       2.963  31.227  12.446  0.00  0.00    +0.000 C 
ATOM     23  C   UNL     1       3.262  31.372  13.945  0.00  0.00    +0.000 C 
ATOM     24  C   UNL     1       3.572  33.464  12.833  0.00  0.00    +0.000 C 
ATOM     25  C   UNL     1       3.059  32.783  10.560  0.00  0.00    +0.000 C 
BRANCH  21  26
ATOM     26  C   UNL     1       4.263  33.336  15.277  0.00  0.00    +0.000 C 
BRANCH  26  27
ATOM     27  C   UNL     1       5.537  33.932  14.674  0.00  0.00    +0.000 C 
ATOM     28  C   UNL     1       6.760  33.586  15.509  0.00  0.00    +0.000 C 
ENDBRANCH  26  27
ENDBRANCH  21  26
ENDBRANCH  18  22
ENDBRANCH   1  17
BRANCH   1  30
ATOM     29 CL   UNL     1      -2.320  29.326  11.102  0.00  0.00    +0.000 Cl
ATOM     30  C   UNL     1      -1.537  30.413  12.304  0.00  0.00    +0.000 C 
ATOM     31  C   UNL     1      -2.627  31.030  13.180  0.00  0.00    +0.000 C 
ENDBRANCH   1  30
TORSDOF 10
ENDMDL
MODEL 2
REMARK VINA RESULT:      -5.0     29.081     31.308
REMARK  Name = 
REMARK  14 active torsions:
REMARK  status: ('A' for Active; 'I' for Inactive)
REMARK    1  A    between atoms: S_2  and  C_21
REMARK    2  A    between atoms: S_2  and  C_27
REMARK    3  A    between atoms: O_4  and  C_16
REMARK    4  A    between atoms: O_5  and  C_18
REMARK    5  A    between atoms: O_6  and  C_20
REMARK    6  A    between atoms: N_8  and  C_23
REMARK    7  A    between atoms: N_9  and  C_15
REMARK    8  A    between atoms: C_10  and  C_17
REMARK    9  A    between atoms: C_11  and  C_19
REMARK   10  A    between atoms: C_14  and  C_15
REMARK   11  A    between atoms: C_15  and  C_22
REMARK   12  A    between atoms: C_17  and  C_24
REMARK   13  A    between atoms: C_22  and  C_25
REMARK   14  A    between atoms: C_24  and  C_26
REMARK                            x       y       z     vdW  Elec       q    Type
REMARK                         _______ _______ _______ _____ _____    ______ ____
ROOT
ATOM      1  C   UNL     1      26.016  13.741  26.681  0.00  0.00    +0.000 C 
ENDROOT
BRANCH   1   3
ATOM      2  O   UNL     1      24.327  12.074  26.207  0.00  0.00    +0.000 OA
ATOM      3  C   UNL     1      25.653  12.491  25.821  0.00  0.00    +0.000 C 
ATOM      4  C   UNL     1      25.733  12.745  24.301  0.00  0.00    +0.000 C 
ATOM      5  C   UNL     1      25.252  11.515  23.521  0.00  0.00    +0.000 C 
ATOM      6  C   UNL     1      23.849  11.103  23.988  0.00  0.00    +0.000 C 
ATOM      7  C   UNL     1      23.819  10.927  25.520  0.00  0.00    +0.000 C 
BRANCH   7   8
ATOM      8  S   UNL     1      24.650   9.379  26.072  0.00  0.00    +0.000 S 
ATOM      9  C   UNL     1      24.522   9.628  27.859  0.00  0.00    +0.000 C 
ENDBRANCH   7   8
BRANCH   4  10
ATOM     10  O   UNL     1      24.906  13.853  23.906  0.00  0.00    +0.000 OA
ATOM     11  H   UNL     1      24.170  13.476  23.368  0.00  0.00    +0.000 HD
ENDBRANCH   4  10
BRANCH   5  12
ATOM     12  O   UNL     1      25.248  11.826  22.120  0.00  0.00    +0.000 OA
ATOM     13  H   UNL     1      25.879  12.567  22.021  0.00  0.00    +0.000 HD
ENDBRANCH   5  12
BRANCH   6  14
ATOM     14  O   UNL     1      23.387   9.925  23.310  0.00  0.00    +0.000 OA
ATOM     15  H   UNL     1      23.978   9.195  23.570  0.00  0.00    +0.000 HD
ENDBRANCH   6  14
ENDBRANCH   1   3
BRANCH   1  17
ATOM     16  O   UNL     1      24.292  14.557  28.752  0.00  0.00    +0.000 OA
ATOM     17  N   UNL     1      24.988  14.790  26.601  0.00  0.00    +0.000 N 
ATOM     18  C   UNL     1      24.206  15.155  27.681  0.00  0.00    +0.000 C 
ATOM     19  H   UNL     1      24.833  15.232  25.699  0.00  0.00    +0.000 HD
BRANCH  18  22
ATOM     20  N   UNL     1      23.667  17.586  27.909  0.00  0.00    +0.000 NA
ATOM     21  C   UNL     1      23.396  18.009  25.657  0.00  0.00    +0.000 C 
ATOM     22  C   UNL     1      23.210  16.290  27.371  0.00  0.00    +0.000 C 
ATOM     23  C   UNL     1      23.063  16.529  25.862  0.00  0.00    +0.000 C 
ATOM     24  C   UNL     1      23.120  18.614  27.028  0.00  0.00    +0.000 C 
ATOM     25  C   UNL     1      23.303  17.789  29.303  0.00  0.00    +0.000 C 
BRANCH  21  26
ATOM     26  C   UNL     1      22.606  18.691  24.538  0.00  0.00    +0.000 C 
BRANCH  26  27
ATOM     27  C   UNL     1      22.241  20.137  24.879  0.00  0.00    +0.000 C 
ATOM     28  C   UNL     1      23.017  21.123  24.020  0.00  0.00    +0.000 C 
ENDBRANCH  26  27
ENDBRANCH  21  26
ENDBRANCH  18  22
ENDBRANCH   1  17
BRANCH   1  30
ATOM     29 CL   UNL     1      27.254  15.918  25.503  0.00  0.00    +0.000 Cl
ATOM     30  C   UNL     1      27.411  14.317  26.311  0.00  0.00    +0.000 C 
ATOM     31  C   UNL     1      28.306  14.480  27.538  0.00  0.00    +0.000 C 
ENDBRANCH   1  30
TORSDOF 10
ENDMDL
MODEL 3
REMARK VINA RESULT:      -5.0     32.002     33.419
REMARK  Name = 
REMARK  14 active torsions:
REMARK  status: ('A' for Active; 'I' for Inactive)
REMARK    1  A    between atoms: S_2  and  C_21
REMARK    2  A    between atoms: S_2  and  C_27
REMARK    3  A    between atoms: O_4  and  C_16
REMARK    4  A    between atoms: O_5  and  C_18
REMARK    5  A    between atoms: O_6  and  C_20
REMARK    6  A    between atoms: N_8  and  C_23
REMARK    7  A    between atoms: N_9  and  C_15
REMARK    8  A    between atoms: C_10  and  C_17
REMARK    9  A    between atoms: C_11  and  C_19
REMARK   10  A    between atoms: C_14  and  C_15
REMARK   11  A    between atoms: C_15  and  C_22
REMARK   12  A    between atoms: C_17  and  C_24
REMARK   13  A    between atoms: C_22  and  C_25
REMARK   14  A    between atoms: C_24  and  C_26
REMARK                            x       y       z     vdW  Elec       q    Type
REMARK                         _______ _______ _______ _____ _____    ______ ____
ROOT
ATOM      1  C   UNL     1      27.426  13.312  23.289  0.00  0.00    +0.000 C 
ENDROOT
BRANCH   1   3
ATOM      2  O   UNL     1      25.174  12.751  23.975  0.00  0.00    +0.000 OA
ATOM      3  C   UNL     1      26.495  12.187  23.836  0.00  0.00    +0.000 C 
ATOM      4  C   UNL     1      26.466  10.925  22.947  0.00  0.00    +0.000 C 
ATOM      5  C   UNL     1      25.446   9.912  23.480  0.00  0.00    +0.000 C 
ATOM      6  C   UNL     1      24.068  10.571  23.629  0.00  0.00    +0.000 C 
ATOM      7  C   UNL     1      24.174  11.858  24.472  0.00  0.00    +0.000 C 
BRANCH   7   8
ATOM      8  S   UNL     1      24.400  11.514  26.267  0.00  0.00    +0.000 S 
ATOM      9  C   UNL     1      22.752  11.988  26.841  0.00  0.00    +0.000 C 
ENDBRANCH   7   8
BRANCH   4  10
ATOM     10  O   UNL     1      26.092  11.240  21.595  0.00  0.00    +0.000 OA
ATOM     11  H   UNL     1      25.106  11.254  21.572  0.00  0.00    +0.000 HD
ENDBRANCH   4  10
BRANCH   5  12
ATOM     12  O   UNL     1      25.379   8.801  22.573  0.00  0.00    +0.000 OA
ATOM     13  H   UNL     1      25.528   9.185  21.686  0.00  0.00    +0.000 HD
ENDBRANCH   5  12
BRANCH   6  14
ATOM     14  O   UNL     1      23.098   9.662  24.171  0.00  0.00    +0.000 OA
ATOM     15  H   UNL     1      23.195   9.685  25.140  0.00  0.00    +0.000 HD
ENDBRANCH   6  14
ENDBRANCH   1   3
BRANCH   1  17
ATOM     16  O   UNL     1      28.190  14.740  20.985  0.00  0.00    +0.000 OA
ATOM     17  N   UNL     1      28.310  12.832  22.215  0.00  0.00    +0.000 N 
ATOM     18  C   UNL     1      28.665  13.615  21.132  0.00  0.00    +0.000 C 
ATOM     19  H   UNL     1      28.638  11.872  22.268  0.00  0.00    +0.000 HD
BRANCH  18  22
ATOM     20  N   UNL     1      29.598  11.446  20.310  0.00  0.00    +0.000 NA
ATOM     21  C   UNL     1      29.030  11.737  18.093  0.00  0.00    +0.000 C 
ATOM     22  C   UNL     1      29.616  12.912  20.143  0.00  0.00    +0.000 C 
ATOM     23  C   UNL     1      29.197  13.139  18.684  0.00  0.00    +0.000 C 
ATOM     24  C   UNL     1      29.903  10.878  18.999  0.00  0.00    +0.000 C 
ATOM     25  C   UNL     1      30.503  10.977  21.349  0.00  0.00    +0.000 C 
BRANCH  21  26
ATOM     26  C   UNL     1      29.413  11.618  16.616  0.00  0.00    +0.000 C 
BRANCH  26  27
ATOM     27  C   UNL     1      28.209  11.786  15.686  0.00  0.00    +0.000 C 
ATOM     28  C   UNL     1      28.140  13.194  15.116  0.00  0.00    +0.000 C 
ENDBRANCH  26  27
ENDBRANCH  21  26
ENDBRANCH  18  22
ENDBRANCH   1  17
BRANCH   1  30
ATOM     29 CL   UNL     1      29.994  13.520  24.302  0.00  0.00    +0.000 Cl
ATOM     30  C   UNL     1      28.257  13.981  24.419  0.00  0.00    +0.000 C 
ATOM     31  C   UNL     1      28.157  15.505  24.377  0.00  0.00    +0.000 C 
ENDBRANCH   1  30
TORSDOF 10
ENDMDL
MODEL 4
REMARK VINA RESULT:      -4.9     31.640     33.736
REMARK  Name = 
REMARK  14 active torsions:
REMARK  status: ('A' for Active; 'I' for Inactive)
REMARK    1  A    between atoms: S_2  and  C_21
REMARK    2  A    between atoms: S_2  and  C_27
REMARK    3  A    between atoms: O_4  and  C_16
REMARK    4  A    between atoms: O_5  and  C_18
REMARK    5  A    between atoms: O_6  and  C_20
REMARK    6  A    between atoms: N_8  and  C_23
REMARK    7  A    between atoms: N_9  and  C_15
REMARK    8  A    between atoms: C_10  and  C_17
REMARK    9  A    between atoms: C_11  and  C_19
REMARK   10  A    between atoms: C_14  and  C_15
REMARK   11  A    between atoms: C_15  and  C_22
REMARK   12  A    between atoms: C_17  and  C_24
REMARK   13  A    between atoms: C_22  and  C_25
REMARK   14  A    between atoms: C_24  and  C_26
REMARK                            x       y       z     vdW  Elec       q    Type
REMARK                         _______ _______ _______ _____ _____    ______ ____
ROOT
ATOM      1  C   UNL     1      26.098   9.434  23.277  0.00  0.00    +0.000 C 
ENDROOT
BRANCH   1   3
ATOM      2  O   UNL     1      27.331   9.325  21.197  0.00  0.00    +0.000 OA
ATOM      3  C   UNL     1      27.208  10.102  22.408  0.00  0.00    +0.000 C 
ATOM      4  C   UNL     1      26.930  11.586  22.086  0.00  0.00    +0.000 C 
ATOM      5  C   UNL     1      27.997  12.142  21.136  0.00  0.00    +0.000 C 
ATOM      6  C   UNL     1      28.101  11.266  19.880  0.00  0.00    +0.000 C 
ATOM      7  C   UNL     1      28.314   9.789  20.268  0.00  0.00    +0.000 C 
BRANCH   7   8
ATOM      8  S   UNL     1      30.025   9.451  20.860  0.00  0.00    +0.000 S 
ATOM      9  C   UNL     1      29.923   7.649  20.961  0.00  0.00    +0.000 C 
ENDBRANCH   7   8
BRANCH   4  10
ATOM     10  O   UNL     1      25.654  11.757  21.447  0.00  0.00    +0.000 OA
ATOM     11  H   UNL     1      25.836  12.133  20.553  0.00  0.00    +0.000 HD
ENDBRANCH   4  10
BRANCH   5  12
ATOM     12  O   UNL     1      27.648  13.490  20.786  0.00  0.00    +0.000 OA
ATOM     13  H   UNL     1      27.946  13.599  19.861  0.00  0.00    +0.000 HD
ENDBRANCH   5  12
BRANCH   6  14
ATOM     14  O   UNL     1      29.125  11.733  18.989  0.00  0.00    +0.000 OA
ATOM     15  H   UNL     1      29.240  11.051  18.303  0.00  0.00    +0.000 HD
ENDBRANCH   6  14
ENDBRANCH   1   3
BRANCH   1  17
ATOM     16  O   UNL     1      23.416  10.290  23.342  0.00  0.00    +0.000 OA
ATOM     17  N   UNL     1      25.503  10.375  24.240  0.00  0.00    +0.000 N 
ATOM     18  C   UNL     1      24.163  10.714  24.222  0.00  0.00    +0.000 C 
ATOM     19  H   UNL     1      26.121  10.811  24.917  0.00  0.00    +0.000 HD
BRANCH  18  22
ATOM     20  N   UNL     1      24.550  11.499  26.565  0.00  0.00    +0.000 NA
ATOM     21  C   UNL     1      24.929  13.714  26.042  0.00  0.00    +0.000 C 
ATOM     22  C   UNL     1      23.758  11.700  25.336  0.00  0.00    +0.000 C 
ATOM     23  C   UNL     1      24.027  13.158  24.938  0.00  0.00    +0.000 C 
ATOM     24  C   UNL     1      24.628  12.800  27.223  0.00  0.00    +0.000 C 
ATOM     25  C   UNL     1      24.011  10.462  27.431  0.00  0.00    +0.000 C 
BRANCH  21  26
ATOM     26  C   UNL     1      24.705  15.193  26.364  0.00  0.00    +0.000 C 
BRANCH  26  27
ATOM     27  C   UNL     1      23.241  15.507  26.676  0.00  0.00    +0.000 C 
ATOM     28  C   UNL     1      22.811  16.826  26.053  0.00  0.00    +0.000 C 
ENDBRANCH  26  27
ENDBRANCH  21  26
ENDBRANCH  18  22
ENDBRANCH   1  17
BRANCH   1  30
ATOM     29 CL   UNL     1      26.248   6.679  23.058  0.00  0.00    +0.000 Cl
ATOM     30  C   UNL     1      26.615   8.164  24.007  0.00  0.00    +0.000 C 
ATOM     31  C   UNL     1      28.122   8.220  24.254  0.00  0.00    +0.000 C 
ENDBRANCH   1  30
TORSDOF 10
ENDMDL
MODEL 5
REMARK VINA RESULT:      -4.9     30.877     32.896
REMARK  Name = 
REMARK  14 active torsions:
REMARK  status: ('A' for Active; 'I' for Inactive)
REMARK    1  A    between atoms: S_2  and  C_21
REMARK    2  A    between atoms: S_2  and  C_27
REMARK    3  A    between atoms: O_4  and  C_16
REMARK    4  A    between atoms: O_5  and  C_18
REMARK    5  A    between atoms: O_6  and  C_20
REMARK    6  A    between atoms: N_8  and  C_23
REMARK    7  A    between atoms: N_9  and  C_15
REMARK    8  A    between atoms: C_10  and  C_17
REMARK    9  A    between atoms: C_11  and  C_19
REMARK   10  A    between atoms: C_14  and  C_15
REMARK   11  A    between atoms: C_15  and  C_22
REMARK   12  A    between atoms: C_17  and  C_24
REMARK   13  A    between atoms: C_22  and  C_25
REMARK   14  A    between atoms: C_24  and  C_26
REMARK                            x       y       z     vdW  Elec       q    Type
REMARK                         _______ _______ _______ _____ _____    ______ ____
ROOT
ATOM      1  C   UNL     1      24.511  10.310  26.482  0.00  0.00    +0.000 C 
ENDROOT
BRANCH   1   3
ATOM      2  O   UNL     1      25.751   8.993  24.874  0.00  0.00    +0.000 OA
ATOM      3  C   UNL     1      25.497  10.356  25.274  0.00  0.00    +0.000 C 
ATOM      4  C   UNL     1      24.976  11.193  24.085  0.00  0.00    +0.000 C 
ATOM      5  C   UNL     1      25.939  11.098  22.895  0.00  0.00    +0.000 C 
ATOM      6  C   UNL     1      26.190   9.629  22.528  0.00  0.00    +0.000 C 
ATOM      7  C   UNL     1      26.645   8.834  23.769  0.00  0.00    +0.000 C 
BRANCH   7   8
ATOM      8  S   UNL     1      28.387   9.197  24.245  0.00  0.00    +0.000 S 
ATOM      9  C   UNL     1      29.133   7.624  23.755  0.00  0.00    +0.000 C 
ENDBRANCH   7   8
BRANCH   4  10
ATOM     10  O   UNL     1      23.691  10.731  23.637  0.00  0.00    +0.000 OA
ATOM     11  H   UNL     1      23.857   9.922  23.096  0.00  0.00    +0.000 HD
ENDBRANCH   4  10
BRANCH   5  12
ATOM     12  O   UNL     1      25.371  11.807  21.783  0.00  0.00    +0.000 OA
ATOM     13  H   UNL     1      24.543  12.199  22.125  0.00  0.00    +0.000 HD
ENDBRANCH   5  12
BRANCH   6  14
ATOM     14  O   UNL     1      27.124   9.503  21.446  0.00  0.00    +0.000 OA
ATOM     15  H   UNL     1      26.940   8.652  21.008  0.00  0.00    +0.000 HD
ENDBRANCH   6  14
ENDBRANCH   1   3
BRANCH   1  17
ATOM     16  O   UNL     1      21.915  11.383  26.284  0.00  0.00    +0.000 OA
ATOM     17  N   UNL     1      24.085  11.654  26.905  0.00  0.00    +0.000 N 
ATOM     18  C   UNL     1      22.777  12.089  26.805  0.00  0.00    +0.000 C 
ATOM     19  H   UNL     1      24.799  12.288  27.251  0.00  0.00    +0.000 HD
BRANCH  18  22
ATOM     20  N   UNL     1      23.446  13.836  28.465  0.00  0.00    +0.000 NA
ATOM     21  C   UNL     1      23.946  15.482  26.928  0.00  0.00    +0.000 C 
ATOM     22  C   UNL     1      22.558  13.523  27.328  0.00  0.00    +0.000 C 
ATOM     23  C   UNL     1      22.902  14.579  26.268  0.00  0.00    +0.000 C 
ATOM     24  C   UNL     1      23.687  15.275  28.415  0.00  0.00    +0.000 C 
ATOM     25  C   UNL     1      22.911  13.400  29.746  0.00  0.00    +0.000 C 
BRANCH  21  26
ATOM     26  C   UNL     1      23.871  16.953  26.512  0.00  0.00    +0.000 C 
BRANCH  26  27
ATOM     27  C   UNL     1      22.527  17.311  25.875  0.00  0.00    +0.000 C 
ATOM     28  C   UNL     1      21.678  18.158  26.810  0.00  0.00    +0.000 C 
ENDBRANCH  26  27
ENDBRANCH  21  26
ENDBRANCH  18  22
ENDBRANCH   1  17
BRANCH   1  30
ATOM     29 CL   UNL     1      24.908  10.447  29.217  0.00  0.00    +0.000 Cl
ATOM     30  C   UNL     1      25.101   9.523  27.684  0.00  0.00    +0.000 C 
ATOM     31  C   UNL     1      24.436   8.158  27.856  0.00  0.00    +0.000 C 
ENDBRANCH   1  30
TORSDOF 10
ENDMDL
MODEL 6
REMARK VINA RESULT:      -4.8     25.857     27.537
REMARK  Name = 
REMARK  14 active torsions:
REMARK  status: ('A' for Active; 'I' for Inactive)
REMARK    1  A    between atoms: S_2  and  C_21
REMARK    2  A    between atoms: S_2  and  C_27
REMARK    3  A    between atoms: O_4  and  C_16
REMARK    4  A    between atoms: O_5  and  C_18
REMARK    5  A    between atoms: O_6  and  C_20
REMARK    6  A    between atoms: N_8  and  C_23
REMARK    7  A    between atoms: N_9  and  C_15
REMARK    8  A    between atoms: C_10  and  C_17
REMARK    9  A    between atoms: C_11  and  C_19
REMARK   10  A    between atoms: C_14  and  C_15
REMARK   11  A    between atoms: C_15  and  C_22
REMARK   12  A    between atoms: C_17  and  C_24
REMARK   13  A    between atoms: C_22  and  C_25
REMARK   14  A    between atoms: C_24  and  C_26
REMARK                            x       y       z     vdW  Elec       q    Type
REMARK                         _______ _______ _______ _____ _____    ______ ____
ROOT
ATOM      1  C   UNL     1      22.836  21.088  28.317  0.00  0.00    +0.000 C 
ENDROOT
BRANCH   1   3
ATOM      2  O   UNL     1      22.302  19.260  26.824  0.00  0.00    +0.000 OA
ATOM      3  C   UNL     1      23.126  20.440  26.928  0.00  0.00    +0.000 C 
ATOM      4  C   UNL     1      22.877  21.394  25.740  0.00  0.00    +0.000 C 
ATOM      5  C   UNL     1      23.068  20.659  24.407  0.00  0.00    +0.000 C 
ATOM      6  C   UNL     1      22.187  19.403  24.361  0.00  0.00    +0.000 C 
ATOM      7  C   UNL     1      22.435  18.524  25.605  0.00  0.00    +0.000 C 
BRANCH   7   8
ATOM      8  S   UNL     1      24.038  17.620  25.526  0.00  0.00    +0.000 S 
ATOM      9  C   UNL     1      23.786  16.504  26.926  0.00  0.00    +0.000 C 
ENDBRANCH   7   8
BRANCH   4  10
ATOM     10  O   UNL     1      21.538  21.918  25.754  0.00  0.00    +0.000 OA
ATOM     11  H   UNL     1      21.186  21.812  24.838  0.00  0.00    +0.000 HD
ENDBRANCH   4  10
BRANCH   5  12
ATOM     12  O   UNL     1      22.733  21.551  23.334  0.00  0.00    +0.000 OA
ATOM     13  H   UNL     1      21.761  21.483  23.238  0.00  0.00    +0.000 HD
ENDBRANCH   5  12
BRANCH   6  14
ATOM     14  O   UNL     1      22.376  18.664  23.145  0.00  0.00    +0.000 OA
ATOM     15  H   UNL     1      23.228  18.198  23.223  0.00  0.00    +0.000 HD
ENDBRANCH   6  14
ENDBRANCH   1   3
BRANCH   1  17
ATOM     16  O   UNL     1      21.717  20.023  30.671  0.00  0.00    +0.000 OA
ATOM     17  N   UNL     1      21.407  21.046  28.665  0.00  0.00    +0.000 N 
ATOM     18  C   UNL     1      20.944  20.536  29.864  0.00  0.00    +0.000 C 
ATOM     19  H   UNL     1      20.743  21.377  27.972  0.00  0.00    +0.000 HD
BRANCH  18  22
ATOM     20  N   UNL     1      18.932  19.783  31.143  0.00  0.00    +0.000 NA
ATOM     21  C   UNL     1      18.145  21.889  31.661  0.00  0.00    +0.000 C 
ATOM     22  C   UNL     1      19.413  20.612  30.021  0.00  0.00    +0.000 C 
ATOM     23  C   UNL     1      18.941  22.033  30.361  0.00  0.00    +0.000 C 
ATOM     24  C   UNL     1      17.719  20.426  31.641  0.00  0.00    +0.000 C 
ATOM     25  C   UNL     1      18.719  18.390  30.777  0.00  0.00    +0.000 C 
BRANCH  21  26
ATOM     26  C   UNL     1      16.962  22.849  31.793  0.00  0.00    +0.000 C 
BRANCH  26  27
ATOM     27  C   UNL     1      16.701  23.258  33.244  0.00  0.00    +0.000 C 
ATOM     28  C   UNL     1      15.506  22.518  33.824  0.00  0.00    +0.000 C 
ENDBRANCH  26  27
ENDBRANCH  21  26
ENDBRANCH  18  22
ENDBRANCH   1  17
BRANCH   1  30
ATOM     29 CL   UNL     1      22.025  23.719  28.600  0.00  0.00    +0.000 Cl
ATOM     30  C   UNL     1      23.374  22.543  28.404  0.00  0.00    +0.000 C 
ATOM     31  C   UNL     1      24.346  22.725  29.569  0.00  0.00    +0.000 C 
ENDBRANCH   1  30
TORSDOF 10
ENDMDL
MODEL 7
REMARK VINA RESULT:      -4.7     16.325     19.213
REMARK  Name = 
REMARK  14 active torsions:
REMARK  status: ('A' for Active; 'I' for Inactive)
REMARK    1  A    between atoms: S_2  and  C_21
REMARK    2  A    between atoms: S_2  and  C_27
REMARK    3  A    between atoms: O_4  and  C_16
REMARK    4  A    between atoms: O_5  and  C_18
REMARK    5  A    between atoms: O_6  and  C_20
REMARK    6  A    between atoms: N_8  and  C_23
REMARK    7  A    between atoms: N_9  and  C_15
REMARK    8  A    between atoms: C_10  and  C_17
REMARK    9  A    between atoms: C_11  and  C_19
REMARK   10  A    between atoms: C_14  and  C_15
REMARK   11  A    between atoms: C_15  and  C_22
REMARK   12  A    between atoms: C_17  and  C_24
REMARK   13  A    between atoms: C_22  and  C_25
REMARK   14  A    between atoms: C_24  and  C_26
REMARK                            x       y       z     vdW  Elec       q    Type
REMARK                         _______ _______ _______ _____ _____    ______ ____
ROOT
ATOM      1  C   UNL     1       9.023  25.539  30.501  0.00  0.00    +0.000 C 
ENDROOT
BRANCH   1   3
ATOM      2  O   UNL     1      10.575  27.064  29.441  0.00  0.00    +0.000 OA
ATOM      3  C   UNL     1       9.191  26.654  29.423  0.00  0.00    +0.000 C 
ATOM      4  C   UNL     1       8.763  26.212  28.007  0.00  0.00    +0.000 C 
ATOM      5  C   UNL     1       9.063  27.313  26.984  0.00  0.00    +0.000 C 
ATOM      6  C   UNL     1      10.540  27.726  27.062  0.00  0.00    +0.000 C 
ATOM      7  C   UNL     1      10.921  28.093  28.510  0.00  0.00    +0.000 C 
BRANCH   7   8
ATOM      8  S   UNL     1      10.253  29.730  29.026  0.00  0.00    +0.000 S 
ATOM      9  C   UNL     1      11.810  30.649  29.084  0.00  0.00    +0.000 C 
ENDBRANCH   7   8
BRANCH   4  10
ATOM     10  O   UNL     1       9.467  25.031  27.587  0.00  0.00    +0.000 OA
ATOM     11  H   UNL     1       8.849  24.274  27.718  0.00  0.00    +0.000 HD
ENDBRANCH   4  10
BRANCH   5  12
ATOM     12  O   UNL     1       8.743  26.826  25.672  0.00  0.00    +0.000 OA
ATOM     13  H   UNL     1       9.244  25.991  25.579  0.00  0.00    +0.000 HD
ENDBRANCH   5  12
BRANCH   6  14
ATOM     14  O   UNL     1      10.845  28.789  26.147  0.00  0.00    +0.000 OA
ATOM     15  H   UNL     1      11.691  29.177  26.433  0.00  0.00    +0.000 HD
ENDBRANCH   6  14
ENDBRANCH   1   3
BRANCH   1  17
ATOM     16  O   UNL     1       8.539  22.908  29.619  0.00  0.00    +0.000 OA
ATOM     17  N   UNL     1       7.714  24.872  30.414  0.00  0.00    +0.000 N 
ATOM     18  C   UNL     1       7.569  23.560  30.003  0.00  0.00    +0.000 C 
ATOM     19  H   UNL     1       6.889  25.421  30.636  0.00  0.00    +0.000 HD
BRANCH  18  22
ATOM     20  N   UNL     1       5.595  22.886  31.382  0.00  0.00    +0.000 NA
ATOM     21  C   UNL     1       4.097  24.367  30.439  0.00  0.00    +0.000 C 
ATOM     22  C   UNL     1       6.109  23.065  30.010  0.00  0.00    +0.000 C 
ATOM     23  C   UNL     1       5.155  24.083  29.370  0.00  0.00    +0.000 C 
ATOM     24  C   UNL     1       4.155  23.122  31.316  0.00  0.00    +0.000 C 
ATOM     25  C   UNL     1       5.926  21.589  31.953  0.00  0.00    +0.000 C 
BRANCH  21  26
ATOM     26  C   UNL     1       2.695  24.641  29.892  0.00  0.00    +0.000 C 
BRANCH  26  27
ATOM     27  C   UNL     1       2.069  23.405  29.243  0.00  0.00    +0.000 C 
ATOM     28  C   UNL     1       0.670  23.146  29.779  0.00  0.00    +0.000 C 
ENDBRANCH  26  27
ENDBRANCH  21  26
ENDBRANCH  18  22
ENDBRANCH   1  17
BRANCH   1  30
ATOM     29 CL   UNL     1       7.802  25.858  32.964  0.00  0.00    +0.000 Cl
ATOM     30  C   UNL     1       9.265  26.076  31.938  0.00  0.00    +0.000 C 
ATOM     31  C   UNL     1      10.442  25.379  32.619  0.00  0.00    +0.000 C 
ENDBRANCH   1  30
TORSDOF 10
ENDMDL
MODEL 8
REMARK VINA RESULT:      -4.7      4.546      9.100
REMARK  Name = 
REMARK  14 active torsions:
REMARK  status: ('A' for Active; 'I' for Inactive)
REMARK    1  A    between atoms: S_2  and  C_21
REMARK    2  A    between atoms: S_2  and  C_27
REMARK    3  A    between atoms: O_4  and  C_16
REMARK    4  A    between atoms: O_5  and  C_18
REMARK    5  A    between atoms: O_6  and  C_20
REMARK    6  A    between atoms: N_8  and  C_23
REMARK    7  A    between atoms: N_9  and  C_15
REMARK    8  A    between atoms: C_10  and  C_17
REMARK    9  A    between atoms: C_11  and  C_19
REMARK   10  A    between atoms: C_14  and  C_15
REMARK   11  A    between atoms: C_15  and  C_22
REMARK   12  A    between atoms: C_17  and  C_24
REMARK   13  A    between atoms: C_22  and  C_25
REMARK   14  A    between atoms: C_24  and  C_26
REMARK                            x       y       z     vdW  Elec       q    Type
REMARK                         _______ _______ _______ _____ _____    ______ ____
ROOT
ATOM      1  C   UNL     1      -3.838  27.860  15.902  0.00  0.00    +0.000 C 
ENDROOT
BRANCH   1   3
ATOM      2  O   UNL     1      -2.020  28.935  14.720  0.00  0.00    +0.000 OA
ATOM      3  C   UNL     1      -2.290  27.928  15.718  0.00  0.00    +0.000 C 
ATOM      4  C   UNL     1      -1.528  28.227  17.026  0.00  0.00    +0.000 C 
ATOM      5  C   UNL     1      -0.029  28.395  16.751  0.00  0.00    +0.000 C 
ATOM      6  C   UNL     1       0.199  29.459  15.669  0.00  0.00    +0.000 C 
ATOM      7  C   UNL     1      -0.638  29.139  14.413  0.00  0.00    +0.000 C 
BRANCH   7   8
ATOM      8  S   UNL     1       0.056  27.742  13.436  0.00  0.00    +0.000 S 
ATOM      9  C   UNL     1      -1.237  27.625  12.177  0.00  0.00    +0.000 C 
ENDBRANCH   7   8
BRANCH   4  10
ATOM     10  O   UNL     1      -1.990  29.441  17.642  0.00  0.00    +0.000 OA
ATOM     11  H   UNL     1      -1.325  29.678  18.331  0.00  0.00    +0.000 HD
ENDBRANCH   4  10
BRANCH   5  12
ATOM     12  O   UNL     1       0.628  28.768  17.973  0.00  0.00    +0.000 OA
ATOM     13  H   UNL     1       0.451  29.724  18.077  0.00  0.00    +0.000 HD
ENDBRANCH   5  12
BRANCH   6  14
ATOM     14  O   UNL     1       1.591  29.609  15.353  0.00  0.00    +0.000 OA
ATOM     15  H   UNL     1       2.068  28.902  15.823  0.00  0.00    +0.000 HD
ENDBRANCH   6  14
ENDBRANCH   1   3
BRANCH   1  17
ATOM     16  O   UNL     1      -5.019  28.875  18.248  0.00  0.00    +0.000 OA
ATOM     17  N   UNL     1      -4.225  27.086  17.092  0.00  0.00    +0.000 N 
ATOM     18  C   UNL     1      -4.836  27.660  18.191  0.00  0.00    +0.000 C 
ATOM     19  H   UNL     1      -3.996  26.096  17.106  0.00  0.00    +0.000 HD
BRANCH  18  22
ATOM     20  N   UNL     1      -6.564  26.180  19.228  0.00  0.00    +0.000 NA
ATOM     21  C   UNL     1      -5.331  24.232  19.140  0.00  0.00    +0.000 C 
ATOM     22  C   UNL     1      -5.169  26.655  19.312  0.00  0.00    +0.000 C 
ATOM     23  C   UNL     1      -4.321  25.380  19.210  0.00  0.00    +0.000 C 
ATOM     24  C   UNL     1      -6.574  24.831  19.787  0.00  0.00    +0.000 C 
ATOM     25  C   UNL     1      -7.511  27.068  19.887  0.00  0.00    +0.000 C 
BRANCH  21  26
ATOM     26  C   UNL     1      -4.875  22.939  19.818  0.00  0.00    +0.000 C 
BRANCH  26  27
ATOM     27  C   UNL     1      -4.226  23.192  21.181  0.00  0.00    +0.000 C 
ATOM     28  C   UNL     1      -3.159  22.153  21.489  0.00  0.00    +0.000 C 
ENDBRANCH  26  27
ENDBRANCH  21  26
ENDBRANCH  18  22
ENDBRANCH   1  17
BRANCH   1  30
ATOM     29 CL   UNL     1      -5.436  25.783  15.011  0.00  0.00    +0.000 Cl
ATOM     30  C   UNL     1      -4.550  27.304  14.637  0.00  0.00    +0.000 C 
ATOM     31  C   UNL     1      -5.541  28.309  14.051  0.00  0.00    +0.000 C 
ENDBRANCH   1  30
TORSDOF 10
ENDMDL
MODEL 9
REMARK VINA RESULT:      -4.7     27.894     30.209
REMARK  Name = 
REMARK  14 active torsions:
REMARK  status: ('A' for Active; 'I' for Inactive)
REMARK    1  A    between atoms: S_2  and  C_21
REMARK    2  A    between atoms: S_2  and  C_27
REMARK    3  A    between atoms: O_4  and  C_16
REMARK    4  A    between atoms: O_5  and  C_18
REMARK    5  A    between atoms: O_6  and  C_20
REMARK    6  A    between atoms: N_8  and  C_23
REMARK    7  A    between atoms: N_9  and  C_15
REMARK    8  A    between atoms: C_10  and  C_17
REMARK    9  A    between atoms: C_11  and  C_19
REMARK   10  A    between atoms: C_14  and  C_15
REMARK   11  A    between atoms: C_15  and  C_22
REMARK   12  A    between atoms: C_17  and  C_24
REMARK   13  A    between atoms: C_22  and  C_25
REMARK   14  A    between atoms: C_24  and  C_26
REMARK                            x       y       z     vdW  Elec       q    Type
REMARK                         _______ _______ _______ _____ _____    ______ ____
ROOT
ATOM      1  C   UNL     1      24.615  15.511  27.493  0.00  0.00    +0.000 C 
ENDROOT
BRANCH   1   3
ATOM      2  O   UNL     1      24.857  13.137  27.088  0.00  0.00    +0.000 OA
ATOM      3  C   UNL     1      24.084  14.287  26.685  0.00  0.00    +0.000 C 
ATOM      4  C   UNL     1      22.573  14.032  26.877  0.00  0.00    +0.000 C 
ATOM      5  C   UNL     1      22.145  12.751  26.151  0.00  0.00    +0.000 C 
ATOM      6  C   UNL     1      23.014  11.568  26.599  0.00  0.00    +0.000 C 
ATOM      7  C   UNL     1      24.510  11.908  26.444  0.00  0.00    +0.000 C 
BRANCH   7   8
ATOM      8  S   UNL     1      25.066  11.878  24.689  0.00  0.00    +0.000 S 
ATOM      9  C   UNL     1      26.078  10.381  24.753  0.00  0.00    +0.000 C 
ENDBRANCH   7   8
BRANCH   4  10
ATOM     10  O   UNL     1      22.236  13.872  28.265  0.00  0.00    +0.000 OA
ATOM     11  H   UNL     1      22.954  13.327  28.667  0.00  0.00    +0.000 HD
ENDBRANCH   4  10
BRANCH   5  12
ATOM     12  O   UNL     1      20.761  12.498  26.434  0.00  0.00    +0.000 OA
ATOM     13  H   UNL     1      20.746  11.631  26.886  0.00  0.00    +0.000 HD
ENDBRANCH   5  12
BRANCH   6  14
ATOM     14  O   UNL     1      22.670  10.361  25.904  0.00  0.00    +0.000 OA
ATOM     15  H   UNL     1      22.863  10.509  24.961  0.00  0.00    +0.000 HD
ENDBRANCH   6  14
ENDBRANCH   1   3
BRANCH   1  17
ATOM     16  O   UNL     1      23.081  16.612  29.581  0.00  0.00    +0.000 OA
ATOM     17  N   UNL     1      23.718  16.673  27.400  0.00  0.00    +0.000 N 
ATOM     18  C   UNL     1      23.026  17.173  28.488  0.00  0.00    +0.000 C 
ATOM     19  H   UNL     1      23.584  17.094  26.486  0.00  0.00    +0.000 HD
BRANCH  18  22
ATOM     20  N   UNL     1      22.334  19.479  29.161  0.00  0.00    +0.000 NA
ATOM     21  C   UNL     1      22.884  20.511  27.172  0.00  0.00    +0.000 C 
ATOM     22  C   UNL     1      22.162  18.407  28.161  0.00  0.00    +0.000 C 
ATOM     23  C   UNL     1      22.567  19.054  26.829  0.00  0.00    +0.000 C 
ATOM     24  C   UNL     1      22.101  20.739  28.458  0.00  0.00    +0.000 C 
ATOM     25  C   UNL     1      21.476  19.319  30.326  0.00  0.00    +0.000 C 
BRANCH  21  26
ATOM     26  C   UNL     1      22.528  21.516  26.075  0.00  0.00    +0.000 C 
BRANCH  26  27
ATOM     27  C   UNL     1      23.407  21.360  24.832  0.00  0.00    +0.000 C 
ATOM     28  C   UNL     1      22.595  20.894  23.634  0.00  0.00    +0.000 C 
ENDBRANCH  26  27
ENDBRANCH  21  26
ENDBRANCH  18  22
ENDBRANCH   1  17
BRANCH   1  30
ATOM     29 CL   UNL     1      26.039  16.991  25.637  0.00  0.00    +0.000 Cl
ATOM     30  C   UNL     1      26.058  15.904  27.072  0.00  0.00    +0.000 C 
ATOM     31  C   UNL     1      26.813  16.606  28.200  0.00  0.00    +0.000 C 
ENDBRANCH   1  30
TORSDOF 10
ENDMDL
