MODEL 1
REMARK VINA RESULT:      -5.8      0.000      0.000
REMARK  Name = 
REMARK  5 active torsions:
REMARK  status: ('A' for Active; 'I' for Inactive)
REMARK    1  A    between atoms: O_5  and  C_10
REMARK    2  A    between atoms: N_9  and  C_20
REMARK    3  A    between atoms: N_9  and  C_25
REMARK    4  A    between atoms: C_10  and  C_11
REMARK    5  A    between atoms: C_18  and  C_19
REMARK                            x       y       z     vdW  Elec       q    Type
REMARK                         _______ _______ _______ _____ _____    ______ ____
ROOT
ATOM      1  F   UNL     1      28.468   8.336  22.170  0.00  0.00    +0.000 F 
ATOM      2  F   UNL     1      29.231   7.322  24.553  0.00  0.00    +0.000 F 
ATOM      3  C   UNL     1      26.655  10.518  24.448  0.00  0.00    +0.000 A 
ATOM      4  C   UNL     1      27.115   9.990  23.222  0.00  0.00    +0.000 A 
ATOM      5  C   UNL     1      27.045   9.975  25.685  0.00  0.00    +0.000 A 
ATOM      6  C   UNL     1      28.000   8.905  23.291  0.00  0.00    +0.000 A 
ATOM      7  C   UNL     1      27.918   8.891  25.715  0.00  0.00    +0.000 A 
ATOM      8  C   UNL     1      28.388   8.364  24.518  0.00  0.00    +0.000 A 
ENDROOT
BRANCH   3  14
ATOM      9  O   UNL     1      26.230  12.810  24.336  0.00  0.00    +0.000 OA
ATOM     10  N   UNL     1      24.406  11.433  24.605  0.00  0.00    +0.000 N 
ATOM     11  C   UNL     1      23.019  11.501  26.163  0.00  0.00    +0.000 C 
ATOM     12  C   UNL     1      23.778  10.379  25.400  0.00  0.00    +0.000 C 
ATOM     13  C   UNL     1      23.397  12.426  24.968  0.00  0.00    +0.000 C 
ATOM     14  C   UNL     1      25.749  11.687  24.439  0.00  0.00    +0.000 C 
BRANCH  11  16
ATOM     15  N   UNL     1      22.608  12.707  28.291  0.00  0.00    +0.000 NA
ATOM     16  C   UNL     1      23.637  11.982  27.503  0.00  0.00    +0.000 C 
ATOM     17  C   UNL     1      24.173  10.803  28.334  0.00  0.00    +0.000 C 
ATOM     18  C   UNL     1      24.755  11.289  29.662  0.00  0.00    +0.000 C 
ATOM     19  C   UNL     1      23.211  13.276  29.504  0.00  0.00    +0.000 C 
ATOM     20  C   UNL     1      23.766  12.177  30.409  0.00  0.00    +0.000 C 
ATOM     21  H   UNL     1      21.910  12.024  28.598  0.00  0.00    +0.000 HD
ENDBRANCH  11  16
BRANCH  11  22
ATOM     22  O   UNL     1      21.589  11.271  26.326  0.00  0.00    +0.000 OA
ATOM     23  H   UNL     1      21.215  12.171  26.283  0.00  0.00    +0.000 HD
ENDBRANCH  11  22
ENDBRANCH   3  14
BRANCH   4  24
ATOM     24  N   UNL     1      26.746  10.607  22.007  0.00  0.00    +0.000 N 
ATOM     25  H   UNL     1      25.731  10.683  21.877  0.00  0.00    +0.000 HD
BRANCH  24  28
ATOM     26  I   UNL     1      30.065  13.658  17.604  0.00  0.00    +0.000 I 
ATOM     27  F   UNL     1      27.540   9.406  19.676  0.00  0.00    +0.000 F 
ATOM     28  C   UNL     1      27.479  11.337  21.052  0.00  0.00    +0.000 A 
ATOM     29  C   UNL     1      27.886  10.689  19.871  0.00  0.00    +0.000 A 
ATOM     30  C   UNL     1      27.857  12.672  21.215  0.00  0.00    +0.000 A 
ATOM     31  C   UNL     1      28.624  11.333  18.882  0.00  0.00    +0.000 A 
ATOM     32  C   UNL     1      28.600  13.336  20.229  0.00  0.00    +0.000 A 
ATOM     33  C   UNL     1      28.978  12.665  19.067  0.00  0.00    +0.000 A 
ENDBRANCH  24  28
ENDBRANCH   4  24
TORSDOF 5
ENDMDL
MODEL 2
REMARK VINA RESULT:      -5.8     14.951     18.813
REMARK  Name = 
REMARK  5 active torsions:
REMARK  status: ('A' for Active; 'I' for Inactive)
REMARK    1  A    between atoms: O_5  and  C_10
REMARK    2  A    between atoms: N_9  and  C_20
REMARK    3  A    between atoms: N_9  and  C_25
REMARK    4  A    between atoms: C_10  and  C_11
REMARK    5  A    between atoms: C_18  and  C_19
REMARK                            x       y       z     vdW  Elec       q    Type
REMARK                         _______ _______ _______ _____ _____    ______ ____
ROOT
ATOM      1  F   UNL     1       8.802  17.900  31.302  0.00  0.00    +0.000 F 
ATOM      2  F   UNL     1       9.623  15.576  30.202  0.00  0.00    +0.000 F 
ATOM      3  C   UNL     1      12.136  18.823  30.172  0.00  0.00    +0.000 A 
ATOM      4  C   UNL     1      10.860  18.970  30.761  0.00  0.00    +0.000 A 
ATOM      5  C   UNL     1      12.562  17.605  29.615  0.00  0.00    +0.000 A 
ATOM      6  C   UNL     1      10.023  17.846  30.748  0.00  0.00    +0.000 A 
ATOM      7  C   UNL     1      11.706  16.507  29.628  0.00  0.00    +0.000 A 
ATOM      8  C   UNL     1      10.444  16.636  30.194  0.00  0.00    +0.000 A 
ENDROOT
BRANCH   3  14
ATOM      9  O   UNL     1      13.235  20.550  29.050  0.00  0.00    +0.000 OA
ATOM     10  N   UNL     1      13.683  20.327  31.297  0.00  0.00    +0.000 N 
ATOM     11  C   UNL     1      15.557  20.028  32.165  0.00  0.00    +0.000 C 
ATOM     12  C   UNL     1      14.131  19.443  32.371  0.00  0.00    +0.000 C 
ATOM     13  C   UNL     1      14.857  21.192  31.403  0.00  0.00    +0.000 C 
ATOM     14  C   UNL     1      13.049  19.986  30.123  0.00  0.00    +0.000 C 
BRANCH  11  16
ATOM     15  N   UNL     1      17.919  19.406  31.731  0.00  0.00    +0.000 NA
ATOM     16  C   UNL     1      16.523  19.222  31.256  0.00  0.00    +0.000 C 
ATOM     17  C   UNL     1      16.181  17.722  31.257  0.00  0.00    +0.000 C 
ATOM     18  C   UNL     1      17.156  16.937  30.379  0.00  0.00    +0.000 C 
ATOM     19  C   UNL     1      18.855  18.751  30.806  0.00  0.00    +0.000 C 
ATOM     20  C   UNL     1      18.604  17.245  30.746  0.00  0.00    +0.000 C 
ATOM     21  H   UNL     1      18.008  18.929  32.632  0.00  0.00    +0.000 HD
ENDBRANCH  11  16
BRANCH  11  22
ATOM     22  O   UNL     1      16.239  20.427  33.390  0.00  0.00    +0.000 OA
ATOM     23  H   UNL     1      16.381  19.577  33.849  0.00  0.00    +0.000 HD
ENDBRANCH  11  22
ENDBRANCH   3  14
BRANCH   4  24
ATOM     24  N   UNL     1      10.452  20.229  31.252  0.00  0.00    +0.000 N 
ATOM     25  H   UNL     1      11.013  20.562  32.045  0.00  0.00    +0.000 HD
BRANCH  24  28
ATOM     26  I   UNL     1       6.770  24.813  28.985  0.00  0.00    +0.000 I 
ATOM     27  F   UNL     1      11.405  22.739  30.708  0.00  0.00    +0.000 F 
ATOM     28  C   UNL     1       9.589  21.215  30.738  0.00  0.00    +0.000 A 
ATOM     29  C   UNL     1      10.103  22.499  30.483  0.00  0.00    +0.000 A 
ATOM     30  C   UNL     1       8.230  21.005  30.488  0.00  0.00    +0.000 A 
ATOM     31  C   UNL     1       9.315  23.534  29.987  0.00  0.00    +0.000 A 
ATOM     32  C   UNL     1       7.422  22.036  29.990  0.00  0.00    +0.000 A 
ATOM     33  C   UNL     1       7.968  23.295  29.739  0.00  0.00    +0.000 A 
ENDBRANCH  24  28
ENDBRANCH   4  24
TORSDOF 5
ENDMDL
MODEL 3
REMARK VINA RESULT:      -5.8      3.975      7.410
REMARK  Name = 
REMARK  5 active torsions:
REMARK  status: ('A' for Active; 'I' for Inactive)
REMARK    1  A    between atoms: O_5  and  C_10
REMARK    2  A    between atoms: N_9  and  C_20
REMARK    3  A    between atoms: N_9  and  C_25
REMARK    4  A    between atoms: C_10  and  C_11
REMARK    5  A    between atoms: C_18  and  C_19
REMARK                            x       y       z     vdW  Elec       q    Type
REMARK                         _______ _______ _______ _____ _____    ______ ____
ROOT
ATOM      1  F   UNL     1      23.467  11.910  28.548  0.00  0.00    +0.000 F 
ATOM      2  F   UNL     1      24.701   9.641  29.333  0.00  0.00    +0.000 F 
ATOM      3  C   UNL     1      24.614  10.617  25.345  0.00  0.00    +0.000 A 
ATOM      4  C   UNL     1      23.986  11.491  26.261  0.00  0.00    +0.000 A 
ATOM      5  C   UNL     1      25.267   9.445  25.763  0.00  0.00    +0.000 A 
ATOM      6  C   UNL     1      24.026  11.125  27.614  0.00  0.00    +0.000 A 
ATOM      7  C   UNL     1      25.294   9.119  27.117  0.00  0.00    +0.000 A 
ATOM      8  C   UNL     1      24.674   9.962  28.031  0.00  0.00    +0.000 A 
ENDROOT
BRANCH   3  14
ATOM      9  O   UNL     1      23.610  10.557  23.239  0.00  0.00    +0.000 OA
ATOM     10  N   UNL     1      25.663  11.588  23.376  0.00  0.00    +0.000 N 
ATOM     11  C   UNL     1      27.380  11.081  22.302  0.00  0.00    +0.000 C 
ATOM     12  C   UNL     1      27.065  11.470  23.775  0.00  0.00    +0.000 C 
ATOM     13  C   UNL     1      25.986  11.686  21.954  0.00  0.00    +0.000 C 
ATOM     14  C   UNL     1      24.572  10.932  23.901  0.00  0.00    +0.000 C 
BRANCH  11  16
ATOM     15  N   UNL     1      27.530   9.379  20.505  0.00  0.00    +0.000 NA
ATOM     16  C   UNL     1      27.465   9.566  21.977  0.00  0.00    +0.000 C 
ATOM     17  C   UNL     1      28.701   8.918  22.625  0.00  0.00    +0.000 C 
ATOM     18  C   UNL     1      28.786   7.432  22.275  0.00  0.00    +0.000 C 
ATOM     19  C   UNL     1      27.485   7.947  20.178  0.00  0.00    +0.000 C 
ATOM     20  C   UNL     1      28.686   7.210  20.770  0.00  0.00    +0.000 C 
ATOM     21  H   UNL     1      28.437   9.729  20.185  0.00  0.00    +0.000 HD
ENDBRANCH  11  16
BRANCH  11  22
ATOM     22  O   UNL     1      28.512  11.784  21.712  0.00  0.00    +0.000 OA
ATOM     23  H   UNL     1      29.261  11.185  21.892  0.00  0.00    +0.000 HD
ENDBRANCH  11  22
ENDBRANCH   3  14
BRANCH   4  24
ATOM     24  N   UNL     1      23.288  12.624  25.789  0.00  0.00    +0.000 N 
ATOM     25  H   UNL     1      22.457  12.391  25.234  0.00  0.00    +0.000 HD
BRANCH  24  28
ATOM     26  I   UNL     1      23.862  18.763  27.085  0.00  0.00    +0.000 I 
ATOM     27  F   UNL     1      25.089  14.232  24.496  0.00  0.00    +0.000 F 
ATOM     28  C   UNL     1      23.370  13.991  26.111  0.00  0.00    +0.000 A 
ATOM     29  C   UNL     1      24.315  14.789  25.441  0.00  0.00    +0.000 A 
ATOM     30  C   UNL     1      22.582  14.610  27.085  0.00  0.00    +0.000 A 
ATOM     31  C   UNL     1      24.470  16.147  25.707  0.00  0.00    +0.000 A 
ATOM     32  C   UNL     1      22.725  15.976  27.367  0.00  0.00    +0.000 A 
ATOM     33  C   UNL     1      23.666  16.738  26.675  0.00  0.00    +0.000 A 
ENDBRANCH  24  28
ENDBRANCH   4  24
TORSDOF 5
ENDMDL
MODEL 4
REMARK VINA RESULT:      -5.6     33.070     35.514
REMARK  Name = 
REMARK  5 active torsions:
REMARK  status: ('A' for Active; 'I' for Inactive)
REMARK    1  A    between atoms: O_5  and  C_10
REMARK    2  A    between atoms: N_9  and  C_20
REMARK    3  A    between atoms: N_9  and  C_25
REMARK    4  A    between atoms: C_10  and  C_11
REMARK    5  A    between atoms: C_18  and  C_19
REMARK                            x       y       z     vdW  Elec       q    Type
REMARK                         _______ _______ _______ _____ _____    ______ ____
ROOT
ATOM      1  F   UNL     1      -5.289  23.640  20.215  0.00  0.00    +0.000 F 
ATOM      2  F   UNL     1      -5.174  22.043  18.041  0.00  0.00    +0.000 F 
ATOM      3  C   UNL     1      -4.338  26.045  17.655  0.00  0.00    +0.000 A 
ATOM      4  C   UNL     1      -4.682  25.554  18.934  0.00  0.00    +0.000 A 
ATOM      5  C   UNL     1      -4.266  25.204  16.531  0.00  0.00    +0.000 A 
ATOM      6  C   UNL     1      -4.970  24.185  19.032  0.00  0.00    +0.000 A 
ATOM      7  C   UNL     1      -4.549  23.848  16.667  0.00  0.00    +0.000 A 
ATOM      8  C   UNL     1      -4.899  23.349  17.916  0.00  0.00    +0.000 A 
ENDROOT
BRANCH   3  14
ATOM      9  O   UNL     1      -4.898  28.191  16.928  0.00  0.00    +0.000 OA
ATOM     10  N   UNL     1      -2.834  27.939  17.917  0.00  0.00    +0.000 N 
ATOM     11  C   UNL     1      -0.986  28.397  17.063  0.00  0.00    +0.000 C 
ATOM     12  C   UNL     1      -1.557  27.227  17.914  0.00  0.00    +0.000 C 
ATOM     13  C   UNL     1      -2.223  29.213  17.543  0.00  0.00    +0.000 C 
ATOM     14  C   UNL     1      -4.060  27.487  17.483  0.00  0.00    +0.000 C 
BRANCH  11  16
ATOM     15  N   UNL     1      -0.546  29.470  14.871  0.00  0.00    +0.000 NA
ATOM     16  C   UNL     1      -0.965  28.203  15.524  0.00  0.00    +0.000 C 
ATOM     17  C   UNL     1      -0.002  27.077  15.108  0.00  0.00    +0.000 C 
ATOM     18  C   UNL     1       0.027  26.915  13.588  0.00  0.00    +0.000 C 
ATOM     19  C   UNL     1      -0.643  29.339  13.410  0.00  0.00    +0.000 C 
ATOM     20  C   UNL     1       0.292  28.247  12.893  0.00  0.00    +0.000 C 
ATOM     21  H   UNL     1       0.441  29.624  15.091  0.00  0.00    +0.000 HD
ENDBRANCH  11  16
BRANCH  11  22
ATOM     22  O   UNL     1       0.298  28.916  17.519  0.00  0.00    +0.000 OA
ATOM     23  H   UNL     1       0.395  29.742  17.009  0.00  0.00    +0.000 HD
ENDBRANCH  11  22
ENDBRANCH   3  14
BRANCH   4  24
ATOM     24  N   UNL     1      -4.804  26.446  20.021  0.00  0.00    +0.000 N 
ATOM     25  H   UNL     1      -3.908  26.672  20.469  0.00  0.00    +0.000 HD
BRANCH  24  28
ATOM     26  I   UNL     1      -9.376  30.269  22.067  0.00  0.00    +0.000 I 
ATOM     27  F   UNL     1      -4.390  29.117  20.468  0.00  0.00    +0.000 F 
ATOM     28  C   UNL     1      -5.862  27.258  20.470  0.00  0.00    +0.000 A 
ATOM     29  C   UNL     1      -5.616  28.623  20.706  0.00  0.00    +0.000 A 
ATOM     30  C   UNL     1      -7.152  26.784  20.727  0.00  0.00    +0.000 A 
ATOM     31  C   UNL     1      -6.603  29.492  21.162  0.00  0.00    +0.000 A 
ATOM     32  C   UNL     1      -8.157  27.646  21.188  0.00  0.00    +0.000 A 
ATOM     33  C   UNL     1      -7.879  28.995  21.400  0.00  0.00    +0.000 A 
ENDBRANCH  24  28
ENDBRANCH   4  24
TORSDOF 5
ENDMDL
MODEL 5
REMARK VINA RESULT:      -5.5     14.407     18.296
REMARK  Name = 
REMARK  5 active torsions:
REMARK  status: ('A' for Active; 'I' for Inactive)
REMARK    1  A    between atoms: O_5  and  C_10
REMARK    2  A    between atoms: N_9  and  C_20
REMARK    3  A    between atoms: N_9  and  C_25
REMARK    4  A    between atoms: C_10  and  C_11
REMARK    5  A    between atoms: C_18  and  C_19
REMARK                            x       y       z     vdW  Elec       q    Type
REMARK                         _______ _______ _______ _____ _____    ______ ____
ROOT
ATOM      1  F   UNL     1       9.720  18.877  30.089  0.00  0.00    +0.000 F 
ATOM      2  F   UNL     1      10.760  16.699  28.878  0.00  0.00    +0.000 F 
ATOM      3  C   UNL     1      13.275  19.430  30.634  0.00  0.00    +0.000 A 
ATOM      4  C   UNL     1      11.884  19.672  30.685  0.00  0.00    +0.000 A 
ATOM      5  C   UNL     1      13.808  18.286  30.015  0.00  0.00    +0.000 A 
ATOM      6  C   UNL     1      11.053  18.727  30.069  0.00  0.00    +0.000 A 
ATOM      7  C   UNL     1      12.951  17.363  29.421  0.00  0.00    +0.000 A 
ATOM      8  C   UNL     1      11.581  17.590  29.454  0.00  0.00    +0.000 A 
ENDROOT
BRANCH   3  14
ATOM      9  O   UNL     1      14.546  21.387  30.572  0.00  0.00    +0.000 OA
ATOM     10  N   UNL     1      14.674  20.131  32.497  0.00  0.00    +0.000 N 
ATOM     11  C   UNL     1      16.405  19.325  33.340  0.00  0.00    +0.000 C 
ATOM     12  C   UNL     1      14.955  18.823  33.085  0.00  0.00    +0.000 C 
ATOM     13  C   UNL     1      15.835  20.759  33.126  0.00  0.00    +0.000 C 
ATOM     14  C   UNL     1      14.204  20.412  31.234  0.00  0.00    +0.000 C 
BRANCH  11  16
ATOM     15  N   UNL     1      18.820  18.962  32.910  0.00  0.00    +0.000 NA
ATOM     16  C   UNL     1      17.475  18.950  32.280  0.00  0.00    +0.000 C 
ATOM     17  C   UNL     1      17.211  17.558  31.678  0.00  0.00    +0.000 C 
ATOM     18  C   UNL     1      18.287  17.191  30.656  0.00  0.00    +0.000 C 
ATOM     19  C   UNL     1      19.854  18.731  31.892  0.00  0.00    +0.000 C 
ATOM     20  C   UNL     1      19.686  17.361  31.238  0.00  0.00    +0.000 C 
ATOM     21  H   UNL     1      18.867  18.177  33.565  0.00  0.00    +0.000 HD
ENDBRANCH  11  16
BRANCH  11  22
ATOM     22  O   UNL     1      16.916  19.067  34.680  0.00  0.00    +0.000 OA
ATOM     23  H   UNL     1      17.397  18.225  34.574  0.00  0.00    +0.000 HD
ENDBRANCH  11  22
ENDBRANCH   3  14
BRANCH   4  24
ATOM     24  N   UNL     1      11.398  20.866  31.262  0.00  0.00    +0.000 N 
ATOM     25  H   UNL     1      11.604  20.950  32.264  0.00  0.00    +0.000 HD
BRANCH  24  28
ATOM     26  I   UNL     1       8.906  26.090  28.773  0.00  0.00    +0.000 I 
ATOM     27  F   UNL     1       8.696  21.305  31.182  0.00  0.00    +0.000 F 
ATOM     28  C   UNL     1      10.894  22.055  30.703  0.00  0.00    +0.000 A 
ATOM     29  C   UNL     1       9.500  22.245  30.661  0.00  0.00    +0.000 A 
ATOM     30  C   UNL     1      11.696  23.058  30.153  0.00  0.00    +0.000 A 
ATOM     31  C   UNL     1       8.919  23.385  30.114  0.00  0.00    +0.000 A 
ATOM     32  C   UNL     1      11.127  24.212  29.597  0.00  0.00    +0.000 A 
ATOM     33  C   UNL     1       9.742  24.371  29.583  0.00  0.00    +0.000 A 
ENDBRANCH  24  28
ENDBRANCH   4  24
TORSDOF 5
ENDMDL
MODEL 6
REMARK VINA RESULT:      -5.4     16.115     20.068
REMARK  Name = 
REMARK  5 active torsions:
REMARK  status: ('A' for Active; 'I' for Inactive)
REMARK    1  A    between atoms: O_5  and  C_10
REMARK    2  A    between atoms: N_9  and  C_20
REMARK    3  A    between atoms: N_9  and  C_25
REMARK    4  A    between atoms: C_10  and  C_11
REMARK    5  A    between atoms: C_18  and  C_19
REMARK                            x       y       z     vdW  Elec       q    Type
REMARK                         _______ _______ _______ _____ _____    ______ ____
ROOT
ATOM      1  F   UNL     1       6.194  16.946  31.159  0.00  0.00    +0.000 F 
ATOM      2  F   UNL     1       6.986  19.526  31.079  0.00  0.00    +0.000 F 
ATOM      3  C   UNL     1       9.810  16.551  31.279  0.00  0.00    +0.000 A 
ATOM      4  C   UNL     1       8.447  16.179  31.258  0.00  0.00    +0.000 A 
ATOM      5  C   UNL     1      10.214  17.896  31.222  0.00  0.00    +0.000 A 
ATOM      6  C   UNL     1       7.507  17.218  31.198  0.00  0.00    +0.000 A 
ATOM      7  C   UNL     1       9.253  18.901  31.154  0.00  0.00    +0.000 A 
ATOM      8  C   UNL     1       7.908  18.554  31.142  0.00  0.00    +0.000 A 
ENDROOT
BRANCH   3  14
ATOM      9  O   UNL     1      11.029  14.949  32.459  0.00  0.00    +0.000 OA
ATOM     10  N   UNL     1      11.585  15.247  30.245  0.00  0.00    +0.000 N 
ATOM     11  C   UNL     1      13.462  15.768  29.497  0.00  0.00    +0.000 C 
ATOM     12  C   UNL     1      11.993  16.189  29.205  0.00  0.00    +0.000 C 
ATOM     13  C   UNL     1      12.854  14.523  30.209  0.00  0.00    +0.000 C 
ATOM     14  C   UNL     1      10.845  15.500  31.379  0.00  0.00    +0.000 C 
BRANCH  11  16
ATOM     15  N   UNL     1      15.710  16.625  30.099  0.00  0.00    +0.000 NA
ATOM     16  C   UNL     1      14.271  16.669  30.468  0.00  0.00    +0.000 C 
ATOM     17  C   UNL     1      13.783  18.127  30.426  0.00  0.00    +0.000 C 
ATOM     18  C   UNL     1      14.606  19.007  31.368  0.00  0.00    +0.000 C 
ATOM     19  C   UNL     1      16.504  17.372  31.085  0.00  0.00    +0.000 C 
ATOM     20  C   UNL     1      16.101  18.845  31.112  0.00  0.00    +0.000 C 
ATOM     21  H   UNL     1      15.818  17.106  29.203  0.00  0.00    +0.000 HD
ENDBRANCH  11  16
BRANCH  11  22
ATOM     22  O   UNL     1      14.258  15.464  28.314  0.00  0.00    +0.000 OA
ATOM     23  H   UNL     1      13.765  14.731  27.900  0.00  0.00    +0.000 HD
ENDBRANCH  11  22
ENDBRANCH   3  14
BRANCH   4  24
ATOM     24  N   UNL     1       8.086  14.820  31.380  0.00  0.00    +0.000 N 
ATOM     25  H   UNL     1       8.833  14.230  31.764  0.00  0.00    +0.000 HD
BRANCH  24  28
ATOM     26  I   UNL     1       2.538  11.834  31.268  0.00  0.00    +0.000 I 
ATOM     27  F   UNL     1       6.596  14.412  33.642  0.00  0.00    +0.000 F 
ATOM     28  C   UNL     1       6.848  14.155  31.299  0.00  0.00    +0.000 A 
ATOM     29  C   UNL     1       6.113  13.946  32.480  0.00  0.00    +0.000 A 
ATOM     30  C   UNL     1       6.309  13.656  30.109  0.00  0.00    +0.000 A 
ATOM     31  C   UNL     1       4.887  13.286  32.489  0.00  0.00    +0.000 A 
ATOM     32  C   UNL     1       5.077  12.989  30.101  0.00  0.00    +0.000 A 
ATOM     33  C   UNL     1       4.370  12.809  31.290  0.00  0.00    +0.000 A 
ENDBRANCH  24  28
ENDBRANCH   4  24
TORSDOF 5
ENDMDL
MODEL 7
REMARK VINA RESULT:      -5.3     26.070     28.477
REMARK  Name = 
REMARK  5 active torsions:
REMARK  status: ('A' for Active; 'I' for Inactive)
REMARK    1  A    between atoms: O_5  and  C_10
REMARK    2  A    between atoms: N_9  and  C_20
REMARK    3  A    between atoms: N_9  and  C_25
REMARK    4  A    between atoms: C_10  and  C_11
REMARK    5  A    between atoms: C_18  and  C_19
REMARK                            x       y       z     vdW  Elec       q    Type
REMARK                         _______ _______ _______ _____ _____    ______ ____
ROOT
ATOM      1  F   UNL     1       9.058  36.502  21.458  0.00  0.00    +0.000 F 
ATOM      2  F   UNL     1       8.994  38.244  19.397  0.00  0.00    +0.000 F 
ATOM      3  C   UNL     1      12.001  35.455  19.591  0.00  0.00    +0.000 A 
ATOM      4  C   UNL     1      11.032  35.467  20.619  0.00  0.00    +0.000 A 
ATOM      5  C   UNL     1      11.952  36.356  18.513  0.00  0.00    +0.000 A 
ATOM      6  C   UNL     1      10.024  36.436  20.529  0.00  0.00    +0.000 A 
ATOM      7  C   UNL     1      10.930  37.299  18.452  0.00  0.00    +0.000 A 
ATOM      8  C   UNL     1       9.974  37.332  19.460  0.00  0.00    +0.000 A 
ENDROOT
BRANCH   3  14
ATOM      9  O   UNL     1      12.861  33.286  19.504  0.00  0.00    +0.000 OA
ATOM     10  N   UNL     1      14.363  34.978  19.930  0.00  0.00    +0.000 N 
ATOM     11  C   UNL     1      15.607  35.142  21.597  0.00  0.00    +0.000 C 
ATOM     12  C   UNL     1      14.713  36.116  20.778  0.00  0.00    +0.000 C 
ATOM     13  C   UNL     1      15.510  34.186  20.371  0.00  0.00    +0.000 C 
ATOM     14  C   UNL     1      13.110  34.478  19.652  0.00  0.00    +0.000 C 
BRANCH  11  16
ATOM     15  N   UNL     1      15.057  33.044  22.800  0.00  0.00    +0.000 NA
ATOM     16  C   UNL     1      14.985  34.526  22.879  0.00  0.00    +0.000 C 
ATOM     17  C   UNL     1      15.716  35.002  24.147  0.00  0.00    +0.000 C 
ATOM     18  C   UNL     1      15.110  34.366  25.399  0.00  0.00    +0.000 C 
ATOM     19  C   UNL     1      14.361  32.446  23.948  0.00  0.00    +0.000 C 
ATOM     20  C   UNL     1      15.023  32.850  25.264  0.00  0.00    +0.000 C 
ATOM     21  H   UNL     1      16.041  32.774  22.875  0.00  0.00    +0.000 HD
ENDBRANCH  11  16
BRANCH  11  22
ATOM     22  O   UNL     1      16.950  35.635  21.879  0.00  0.00    +0.000 OA
ATOM     23  H   UNL     1      17.500  35.153  21.233  0.00  0.00    +0.000 HD
ENDBRANCH  11  22
ENDBRANCH   3  14
BRANCH   4  24
ATOM     24  N   UNL     1      11.158  34.584  21.714  0.00  0.00    +0.000 N 
ATOM     25  H   UNL     1      11.315  33.608  21.439  0.00  0.00    +0.000 HD
BRANCH  24  28
ATOM     26  I   UNL     1      11.843  35.334  27.933  0.00  0.00    +0.000 I 
ATOM     27  F   UNL     1      10.619  32.578  23.500  0.00  0.00    +0.000 F 
ATOM     28  C   UNL     1      11.336  34.801  23.094  0.00  0.00    +0.000 A 
ATOM     29  C   UNL     1      11.036  33.757  23.988  0.00  0.00    +0.000 A 
ATOM     30  C   UNL     1      11.770  36.012  23.641  0.00  0.00    +0.000 A 
ATOM     31  C   UNL     1      11.172  33.893  25.366  0.00  0.00    +0.000 A 
ATOM     32  C   UNL     1      11.912  36.165  25.027  0.00  0.00    +0.000 A 
ATOM     33  C   UNL     1      11.615  35.105  25.883  0.00  0.00    +0.000 A 
ENDBRANCH  24  28
ENDBRANCH   4  24
TORSDOF 5
ENDMDL
MODEL 8
REMARK VINA RESULT:      -5.3     25.399     27.254
REMARK  Name = 
REMARK  5 active torsions:
REMARK  status: ('A' for Active; 'I' for Inactive)
REMARK    1  A    between atoms: O_5  and  C_10
REMARK    2  A    between atoms: N_9  and  C_20
REMARK    3  A    between atoms: N_9  and  C_25
REMARK    4  A    between atoms: C_10  and  C_11
REMARK    5  A    between atoms: C_18  and  C_19
REMARK                            x       y       z     vdW  Elec       q    Type
REMARK                         _______ _______ _______ _____ _____    ______ ____
ROOT
ATOM      1  F   UNL     1      15.373  33.461  25.046  0.00  0.00    +0.000 F 
ATOM      2  F   UNL     1      13.172  32.277  26.067  0.00  0.00    +0.000 F 
ATOM      3  C   UNL     1      13.537  32.696  21.999  0.00  0.00    +0.000 A 
ATOM      4  C   UNL     1      14.579  33.186  22.818  0.00  0.00    +0.000 A 
ATOM      5  C   UNL     1      12.401  32.068  22.537  0.00  0.00    +0.000 A 
ATOM      6  C   UNL     1      14.421  33.036  24.202  0.00  0.00    +0.000 A 
ATOM      7  C   UNL     1      12.283  31.928  23.917  0.00  0.00    +0.000 A 
ATOM      8  C   UNL     1      13.293  32.413  24.739  0.00  0.00    +0.000 A 
ENDROOT
BRANCH   3  14
ATOM      9  O   UNL     1      14.336  32.087  19.892  0.00  0.00    +0.000 OA
ATOM     10  N   UNL     1      12.950  33.923  19.981  0.00  0.00    +0.000 N 
ATOM     11  C   UNL     1      13.402  35.851  19.324  0.00  0.00    +0.000 C 
ATOM     12  C   UNL     1      12.701  35.237  20.569  0.00  0.00    +0.000 C 
ATOM     13  C   UNL     1      13.176  34.468  18.643  0.00  0.00    +0.000 C 
ATOM     14  C   UNL     1      13.631  32.860  20.532  0.00  0.00    +0.000 C 
BRANCH  11  16
ATOM     15  N   UNL     1      15.638  35.747  18.254  0.00  0.00    +0.000 NA
ATOM     16  C   UNL     1      14.908  36.201  19.466  0.00  0.00    +0.000 C 
ATOM     17  C   UNL     1      15.122  37.714  19.648  0.00  0.00    +0.000 C 
ATOM     18  C   UNL     1      16.610  38.047  19.760  0.00  0.00    +0.000 C 
ATOM     19  C   UNL     1      17.082  35.959  18.428  0.00  0.00    +0.000 C 
ATOM     20  C   UNL     1      17.402  37.442  18.606  0.00  0.00    +0.000 C 
ATOM     21  H   UNL     1      15.343  36.337  17.472  0.00  0.00    +0.000 HD
ENDBRANCH  11  16
BRANCH  11  22
ATOM     22  O   UNL     1      12.688  36.959  18.702  0.00  0.00    +0.000 OA
ATOM     23  H   UNL     1      11.767  36.637  18.673  0.00  0.00    +0.000 HD
ENDBRANCH  11  22
ENDBRANCH   3  14
BRANCH   4  24
ATOM     24  N   UNL     1      15.671  33.867  22.236  0.00  0.00    +0.000 N 
ATOM     25  H   UNL     1      15.918  33.522  21.301  0.00  0.00    +0.000 HD
BRANCH  24  28
ATOM     26  I   UNL     1      18.431  39.314  23.786  0.00  0.00    +0.000 I 
ATOM     27  F   UNL     1      14.252  36.010  23.182  0.00  0.00    +0.000 F 
ATOM     28  C   UNL     1      16.338  35.058  22.576  0.00  0.00    +0.000 A 
ATOM     29  C   UNL     1      15.581  36.148  23.045  0.00  0.00    +0.000 A 
ATOM     30  C   UNL     1      17.718  35.241  22.450  0.00  0.00    +0.000 A 
ATOM     31  C   UNL     1      16.160  37.365  23.391  0.00  0.00    +0.000 A 
ATOM     32  C   UNL     1      18.317  36.461  22.793  0.00  0.00    +0.000 A 
ATOM     33  C   UNL     1      17.536  37.516  23.264  0.00  0.00    +0.000 A 
ENDBRANCH  24  28
ENDBRANCH   4  24
TORSDOF 5
ENDMDL
MODEL 9
REMARK VINA RESULT:      -5.3     10.091     13.011
REMARK  Name = 
REMARK  5 active torsions:
REMARK  status: ('A' for Active; 'I' for Inactive)
REMARK    1  A    between atoms: O_5  and  C_10
REMARK    2  A    between atoms: N_9  and  C_20
REMARK    3  A    between atoms: N_9  and  C_25
REMARK    4  A    between atoms: C_10  and  C_11
REMARK    5  A    between atoms: C_18  and  C_19
REMARK                            x       y       z     vdW  Elec       q    Type
REMARK                         _______ _______ _______ _____ _____    ______ ____
ROOT
ATOM      1  F   UNL     1      19.171  20.883  30.269  0.00  0.00    +0.000 F 
ATOM      2  F   UNL     1      17.888  18.676  31.147  0.00  0.00    +0.000 F 
ATOM      3  C   UNL     1      21.455  18.281  29.151  0.00  0.00    +0.000 A 
ATOM      4  C   UNL     1      20.940  19.581  29.349  0.00  0.00    +0.000 A 
ATOM      5  C   UNL     1      20.789  17.137  29.624  0.00  0.00    +0.000 A 
ATOM      6  C   UNL     1      19.717  19.682  30.026  0.00  0.00    +0.000 A 
ATOM      7  C   UNL     1      19.580  17.277  30.301  0.00  0.00    +0.000 A 
ATOM      8  C   UNL     1      19.054  18.547  30.497  0.00  0.00    +0.000 A 
ENDROOT
BRANCH   3  14
ATOM      9  O   UNL     1      23.784  18.209  29.018  0.00  0.00    +0.000 OA
ATOM     10  N   UNL     1      22.627  17.899  27.053  0.00  0.00    +0.000 N 
ATOM     11  C   UNL     1      22.808  19.039  25.314  0.00  0.00    +0.000 C 
ATOM     12  C   UNL     1      21.629  18.431  26.126  0.00  0.00    +0.000 C 
ATOM     13  C   UNL     1      23.721  18.048  26.095  0.00  0.00    +0.000 C 
ATOM     14  C   UNL     1      22.724  18.109  28.410  0.00  0.00    +0.000 C 
BRANCH  11  16
ATOM     15  N   UNL     1      24.411  20.585  26.404  0.00  0.00    +0.000 NA
ATOM     16  C   UNL     1      23.166  20.522  25.597  0.00  0.00    +0.000 C 
ATOM     17  C   UNL     1      23.368  21.314  24.293  0.00  0.00    +0.000 C 
ATOM     18  C   UNL     1      23.746  22.766  24.588  0.00  0.00    +0.000 C 
ATOM     19  C   UNL     1      24.694  21.976  26.786  0.00  0.00    +0.000 C 
ATOM     20  C   UNL     1      24.924  22.848  25.553  0.00  0.00    +0.000 C 
ATOM     21  H   UNL     1      25.185  20.276  25.810  0.00  0.00    +0.000 HD
ENDBRANCH  11  16
BRANCH  11  22
ATOM     22  O   UNL     1      22.746  18.805  23.876  0.00  0.00    +0.000 OA
ATOM     23  H   UNL     1      21.911  18.310  23.770  0.00  0.00    +0.000 HD
ENDBRANCH  11  22
ENDBRANCH   3  14
BRANCH   4  24
ATOM     24  N   UNL     1      21.612  20.696  28.801  0.00  0.00    +0.000 N 
ATOM     25  H   UNL     1      21.787  20.614  27.793  0.00  0.00    +0.000 HD
BRANCH  24  28
ATOM     26  I   UNL     1      22.814  26.543  30.818  0.00  0.00    +0.000 I 
ATOM     27  F   UNL     1      21.283  22.894  27.201  0.00  0.00    +0.000 F 
ATOM     28  C   UNL     1      21.886  21.981  29.304  0.00  0.00    +0.000 A 
ATOM     29  C   UNL     1      21.723  23.090  28.454  0.00  0.00    +0.000 A 
ATOM     30  C   UNL     1      22.344  22.228  30.602  0.00  0.00    +0.000 A 
ATOM     31  C   UNL     1      21.984  24.393  28.868  0.00  0.00    +0.000 A 
ATOM     32  C   UNL     1      22.613  23.534  31.034  0.00  0.00    +0.000 A 
ATOM     33  C   UNL     1      22.429  24.610  30.167  0.00  0.00    +0.000 A 
ENDBRANCH  24  28
ENDBRANCH   4  24
TORSDOF 5
ENDMDL
