MODEL 1
REMARK VINA RESULT:      -6.2      0.000      0.000
REMARK  Name = COUMESTROL.pdbqt.pdb
REMARK  2 active torsions:
REMARK  status: ('A' for Active; 'I' for Inactive)
REMARK    1  A    between atoms: C_16  and  O_19
REMARK    2  A    between atoms: C_18  and  O_21
REMARK                            x       y       z     vdW  Elec       q    Type
REMARK                         _______ _______ _______ _____ _____    ______ ____
ROOT
ATOM      1  O   UNL     1      10.140  16.116  29.825  0.00  0.00    +0.000 OA
ATOM      2  O   UNL     1      11.180  12.378  31.104  0.00  0.00    +0.000 OA
ATOM      3  O   UNL     1      13.370  13.110  31.179  0.00  0.00    +0.000 OA
ATOM      4  C   UNL     1      11.731  14.652  30.487  0.00  0.00    +0.000 A 
ATOM      5  C   UNL     1      10.398  14.857  30.243  0.00  0.00    +0.000 A 
ATOM      6  C   UNL     1      12.371  15.883  30.199  0.00  0.00    +0.000 A 
ATOM      7  C   UNL     1       9.362  13.882  30.399  0.00  0.00    +0.000 A 
ATOM      8  C   UNL     1      11.351  16.751  29.797  0.00  0.00    +0.000 A 
ATOM      9  C   UNL     1       9.796  12.623  30.841  0.00  0.00    +0.000 A 
ATOM     10  C   UNL     1      12.195  13.361  30.943  0.00  0.00    +0.000 A 
ATOM     11  C   UNL     1      13.690  16.364  30.232  0.00  0.00    +0.000 A 
ATOM     12  C   UNL     1       8.013  14.103  30.149  0.00  0.00    +0.000 A 
ATOM     13  C   UNL     1      11.552  18.079  29.420  0.00  0.00    +0.000 A 
ATOM     14  C   UNL     1       8.905  11.576  31.039  0.00  0.00    +0.000 A 
ATOM     15  C   UNL     1      13.927  17.691  29.860  0.00  0.00    +0.000 A 
ATOM     16  C   UNL     1      12.877  18.518  29.466  0.00  0.00    +0.000 A 
ATOM     17  C   UNL     1       7.107  13.060  30.343  0.00  0.00    +0.000 A 
ATOM     18  C   UNL     1       7.559  11.813  30.784  0.00  0.00    +0.000 A 
ENDROOT
BRANCH  16  19
ATOM     19  O   UNL     1      13.182  19.806  29.116  0.00  0.00    +0.000 OA
ATOM     20  H   UNL     1      12.604  20.406  29.618  0.00  0.00    +0.000 HD
ENDBRANCH  16  19
BRANCH  18  21
ATOM     21  O   UNL     1       6.677  10.787  30.976  0.00  0.00    +0.000 OA
ATOM     22  H   UNL     1       5.872  10.973  30.461  0.00  0.00    +0.000 HD
ENDBRANCH  18  21
TORSDOF 2
ENDMDL
MODEL 2
REMARK VINA RESULT:      -6.2     22.031     24.456
REMARK  Name = COUMESTROL.pdbqt.pdb
REMARK  2 active torsions:
REMARK  status: ('A' for Active; 'I' for Inactive)
REMARK    1  A    between atoms: C_16  and  O_19
REMARK    2  A    between atoms: C_18  and  O_21
REMARK                            x       y       z     vdW  Elec       q    Type
REMARK                         _______ _______ _______ _____ _____    ______ ____
ROOT
ATOM      1  O   UNL     1       0.115  27.504  12.836  0.00  0.00    +0.000 OA
ATOM      2  O   UNL     1       1.082  30.276  15.677  0.00  0.00    +0.000 OA
ATOM      3  O   UNL     1       0.156  28.857  17.249  0.00  0.00    +0.000 OA
ATOM      4  C   UNL     1       0.130  28.157  15.001  0.00  0.00    +0.000 A 
ATOM      5  C   UNL     1       0.469  28.471  13.711  0.00  0.00    +0.000 A 
ATOM      6  C   UNL     1      -0.491  26.884  14.938  0.00  0.00    +0.000 A 
ATOM      7  C   UNL     1       1.124  29.673  13.290  0.00  0.00    +0.000 A 
ATOM      8  C   UNL     1      -0.476  26.525  13.587  0.00  0.00    +0.000 A 
ATOM      9  C   UNL     1       1.423  30.575  14.322  0.00  0.00    +0.000 A 
ATOM     10  C   UNL     1       0.431  29.075  16.075  0.00  0.00    +0.000 A 
ATOM     11  C   UNL     1      -1.062  25.996  15.864  0.00  0.00    +0.000 A 
ATOM     12  C   UNL     1       1.462  29.980  11.979  0.00  0.00    +0.000 A 
ATOM     13  C   UNL     1      -0.995  25.332  13.085  0.00  0.00    +0.000 A 
ATOM     14  C   UNL     1       2.058  31.784  14.067  0.00  0.00    +0.000 A 
ATOM     15  C   UNL     1      -1.592  24.790  15.394  0.00  0.00    +0.000 A 
ATOM     16  C   UNL     1      -1.553  24.477  14.037  0.00  0.00    +0.000 A 
ATOM     17  C   UNL     1       2.100  31.191  11.708  0.00  0.00    +0.000 A 
ATOM     18  C   UNL     1       2.390  32.077  12.749  0.00  0.00    +0.000 A 
ENDROOT
BRANCH  16  19
ATOM     19  O   UNL     1      -2.091  23.279  13.647  0.00  0.00    +0.000 OA
ATOM     20  H   UNL     1      -2.909  23.456  13.152  0.00  0.00    +0.000 HD
ENDBRANCH  16  19
BRANCH  18  21
ATOM     21  O   UNL     1       3.014  33.265  12.491  0.00  0.00    +0.000 OA
ATOM     22  H   UNL     1       2.858  33.864  13.242  0.00  0.00    +0.000 HD
ENDBRANCH  18  21
TORSDOF 2
ENDMDL
MODEL 3
REMARK VINA RESULT:      -5.9      3.596      6.652
REMARK  Name = COUMESTROL.pdbqt.pdb
REMARK  2 active torsions:
REMARK  status: ('A' for Active; 'I' for Inactive)
REMARK    1  A    between atoms: C_16  and  O_19
REMARK    2  A    between atoms: C_18  and  O_21
REMARK                            x       y       z     vdW  Elec       q    Type
REMARK                         _______ _______ _______ _____ _____    ______ ____
ROOT
ATOM      1  O   UNL     1      10.647  17.769  29.836  0.00  0.00    +0.000 OA
ATOM      2  O   UNL     1      11.771  21.606  30.669  0.00  0.00    +0.000 OA
ATOM      3  O   UNL     1      13.966  20.912  30.468  0.00  0.00    +0.000 OA
ATOM      4  C   UNL     1      12.281  19.300  30.143  0.00  0.00    +0.000 A 
ATOM      5  C   UNL     1      10.932  19.059  30.117  0.00  0.00    +0.000 A 
ATOM      6  C   UNL     1      12.902  18.059  29.854  0.00  0.00    +0.000 A 
ATOM      7  C   UNL     1       9.907  20.029  30.355  0.00  0.00    +0.000 A 
ATOM      8  C   UNL     1      11.856  17.149  29.672  0.00  0.00    +0.000 A 
ATOM      9  C   UNL     1      10.371  21.323  30.634  0.00  0.00    +0.000 A 
ATOM     10  C   UNL     1      12.775  20.628  30.430  0.00  0.00    +0.000 A 
ATOM     11  C   UNL     1      14.222  17.600  29.724  0.00  0.00    +0.000 A 
ATOM     12  C   UNL     1       8.542  19.771  30.326  0.00  0.00    +0.000 A 
ATOM     13  C   UNL     1      12.031  15.800  29.368  0.00  0.00    +0.000 A 
ATOM     14  C   UNL     1       9.493  22.370  30.886  0.00  0.00    +0.000 A 
ATOM     15  C   UNL     1      14.435  16.252  29.419  0.00  0.00    +0.000 A 
ATOM     16  C   UNL     1      13.359  15.384  29.247  0.00  0.00    +0.000 A 
ATOM     17  C   UNL     1       7.649  20.813  30.577  0.00  0.00    +0.000 A 
ATOM     18  C   UNL     1       8.130  22.096  30.853  0.00  0.00    +0.000 A 
ENDROOT
BRANCH  16  19
ATOM     19  O   UNL     1      13.640  14.077  28.950  0.00  0.00    +0.000 OA
ATOM     20  H   UNL     1      13.992  14.037  28.044  0.00  0.00    +0.000 HD
ENDBRANCH  16  19
BRANCH  18  21
ATOM     21  O   UNL     1       7.261  23.121  31.100  0.00  0.00    +0.000 OA
ATOM     22  H   UNL     1       7.254  23.712  30.326  0.00  0.00    +0.000 HD
ENDBRANCH  18  21
TORSDOF 2
ENDMDL
MODEL 4
REMARK VINA RESULT:      -5.9      2.958      5.049
REMARK  Name = COUMESTROL.pdbqt.pdb
REMARK  2 active torsions:
REMARK  status: ('A' for Active; 'I' for Inactive)
REMARK    1  A    between atoms: C_16  and  O_19
REMARK    2  A    between atoms: C_18  and  O_21
REMARK                            x       y       z     vdW  Elec       q    Type
REMARK                         _______ _______ _______ _____ _____    ______ ____
ROOT
ATOM      1  O   UNL     1       8.688  16.809  31.285  0.00  0.00    +0.000 OA
ATOM      2  O   UNL     1      12.343  16.929  29.466  0.00  0.00    +0.000 OA
ATOM      3  O   UNL     1      11.910  19.137  28.941  0.00  0.00    +0.000 OA
ATOM      4  C   UNL     1      10.259  17.959  30.137  0.00  0.00    +0.000 A 
ATOM      5  C   UNL     1       9.907  16.764  30.707  0.00  0.00    +0.000 A 
ATOM      6  C   UNL     1       9.171  18.836  30.374  0.00  0.00    +0.000 A 
ATOM      7  C   UNL     1      10.707  15.576  30.713  0.00  0.00    +0.000 A 
ATOM      8  C   UNL     1       8.230  18.083  31.084  0.00  0.00    +0.000 A 
ATOM      9  C   UNL     1      11.948  15.695  30.070  0.00  0.00    +0.000 A 
ATOM     10  C   UNL     1      11.533  18.098  29.470  0.00  0.00    +0.000 A 
ATOM     11  C   UNL     1       8.872  20.174  30.074  0.00  0.00    +0.000 A 
ATOM     12  C   UNL     1      10.339  14.369  31.295  0.00  0.00    +0.000 A 
ATOM     13  C   UNL     1       6.999  18.572  31.520  0.00  0.00    +0.000 A 
ATOM     14  C   UNL     1      12.832  14.626  29.995  0.00  0.00    +0.000 A 
ATOM     15  C   UNL     1       7.646  20.697  30.496  0.00  0.00    +0.000 A 
ATOM     16  C   UNL     1       6.741  19.907  31.201  0.00  0.00    +0.000 A 
ATOM     17  C   UNL     1      11.217  13.288  31.228  0.00  0.00    +0.000 A 
ATOM     18  C   UNL     1      12.449  13.425  30.582  0.00  0.00    +0.000 A 
ENDROOT
BRANCH  16  19
ATOM     19  O   UNL     1       5.559  20.484  31.583  0.00  0.00    +0.000 OA
ATOM     20  H   UNL     1       5.336  21.181  30.943  0.00  0.00    +0.000 HD
ENDBRANCH  16  19
BRANCH  18  21
ATOM     21  O   UNL     1      13.314  12.370  30.513  0.00  0.00    +0.000 OA
ATOM     22  H   UNL     1      14.190  12.669  30.814  0.00  0.00    +0.000 HD
ENDBRANCH  18  21
TORSDOF 2
ENDMDL
MODEL 5
REMARK VINA RESULT:      -5.7     28.033     29.452
REMARK  Name = COUMESTROL.pdbqt.pdb
REMARK  2 active torsions:
REMARK  status: ('A' for Active; 'I' for Inactive)
REMARK    1  A    between atoms: C_16  and  O_19
REMARK    2  A    between atoms: C_18  and  O_21
REMARK                            x       y       z     vdW  Elec       q    Type
REMARK                         _______ _______ _______ _____ _____    ______ ____
ROOT
ATOM      1  O   UNL     1      19.314  30.365   7.317  0.00  0.00    +0.000 OA
ATOM      2  O   UNL     1      21.616  32.392  10.015  0.00  0.00    +0.000 OA
ATOM      3  O   UNL     1      23.467  31.421   9.031  0.00  0.00    +0.000 OA
ATOM      4  C   UNL     1      21.354  30.875   8.148  0.00  0.00    +0.000 A 
ATOM      5  C   UNL     1      20.000  31.069   8.243  0.00  0.00    +0.000 A 
ATOM      6  C   UNL     1      21.540  29.971   7.072  0.00  0.00    +0.000 A 
ATOM      7  C   UNL     1      19.344  31.912   9.196  0.00  0.00    +0.000 A 
ATOM      8  C   UNL     1      20.258  29.687   6.594  0.00  0.00    +0.000 A 
ATOM      9  C   UNL     1      20.200  32.574  10.088  0.00  0.00    +0.000 A 
ATOM     10  C   UNL     1      22.249  31.550   9.060  0.00  0.00    +0.000 A 
ATOM     11  C   UNL     1      22.641  29.362   6.448  0.00  0.00    +0.000 A 
ATOM     12  C   UNL     1      17.970  32.101   9.281  0.00  0.00    +0.000 A 
ATOM     13  C   UNL     1      19.988  28.831   5.527  0.00  0.00    +0.000 A 
ATOM     14  C   UNL     1      19.708  33.426  11.069  0.00  0.00    +0.000 A 
ATOM     15  C   UNL     1      22.407  28.497   5.375  0.00  0.00    +0.000 A 
ATOM     16  C   UNL     1      21.109  28.245   4.934  0.00  0.00    +0.000 A 
ATOM     17  C   UNL     1      17.462  32.953  10.262  0.00  0.00    +0.000 A 
ATOM     18  C   UNL     1      18.330  33.604  11.142  0.00  0.00    +0.000 A 
ENDROOT
BRANCH  16  19
ATOM     19  O   UNL     1      20.954  27.388   3.878  0.00  0.00    +0.000 OA
ATOM     20  H   UNL     1      20.204  27.696   3.340  0.00  0.00    +0.000 HD
ENDBRANCH  16  19
BRANCH  18  21
ATOM     21  O   UNL     1      17.840  34.441  12.105  0.00  0.00    +0.000 OA
ATOM     22  H   UNL     1      18.497  35.139  12.270  0.00  0.00    +0.000 HD
ENDBRANCH  18  21
TORSDOF 2
ENDMDL
MODEL 6
REMARK VINA RESULT:      -5.6     21.983     23.091
REMARK  Name = COUMESTROL.pdbqt.pdb
REMARK  2 active torsions:
REMARK  status: ('A' for Active; 'I' for Inactive)
REMARK    1  A    between atoms: C_16  and  O_19
REMARK    2  A    between atoms: C_18  and  O_21
REMARK                            x       y       z     vdW  Elec       q    Type
REMARK                         _______ _______ _______ _____ _____    ______ ____
ROOT
ATOM      1  O   UNL     1      -1.825  24.016  14.060  0.00  0.00    +0.000 OA
ATOM      2  O   UNL     1      -2.570  26.267  17.386  0.00  0.00    +0.000 OA
ATOM      3  O   UNL     1      -4.249  24.770  17.914  0.00  0.00    +0.000 OA
ATOM      4  C   UNL     1      -3.019  24.375  15.945  0.00  0.00    +0.000 A 
ATOM      5  C   UNL     1      -2.006  24.814  15.134  0.00  0.00    +0.000 A 
ATOM      6  C   UNL     1      -3.523  23.200  15.334  0.00  0.00    +0.000 A 
ATOM      7  C   UNL     1      -1.203  25.979  15.358  0.00  0.00    +0.000 A 
ATOM      8  C   UNL     1      -2.757  23.020  14.178  0.00  0.00    +0.000 A 
ATOM      9  C   UNL     1      -1.519  26.699  16.520  0.00  0.00    +0.000 A 
ATOM     10  C   UNL     1      -3.356  25.106  17.146  0.00  0.00    +0.000 A 
ATOM     11  C   UNL     1      -4.534  22.270  15.621  0.00  0.00    +0.000 A 
ATOM     12  C   UNL     1      -0.178  26.414  14.527  0.00  0.00    +0.000 A 
ATOM     13  C   UNL     1      -2.926  21.970  13.277  0.00  0.00    +0.000 A 
ATOM     14  C   UNL     1      -0.826  27.852  16.869  0.00  0.00    +0.000 A 
ATOM     15  C   UNL     1      -4.732  21.203  14.739  0.00  0.00    +0.000 A 
ATOM     16  C   UNL     1      -3.942  21.067  13.599  0.00  0.00    +0.000 A 
ATOM     17  C   UNL     1       0.526  27.569  14.866  0.00  0.00    +0.000 A 
ATOM     18  C   UNL     1       0.198  28.274  16.027  0.00  0.00    +0.000 A 
ENDROOT
BRANCH  16  19
ATOM     19  O   UNL     1      -4.191  19.998  12.780  0.00  0.00    +0.000 OA
ATOM     20  H   UNL     1      -3.339  19.627  12.492  0.00  0.00    +0.000 HD
ENDBRANCH  16  19
BRANCH  18  21
ATOM     21  O   UNL     1       0.883  29.407  16.365  0.00  0.00    +0.000 OA
ATOM     22  H   UNL     1       1.793  29.327  16.029  0.00  0.00    +0.000 HD
ENDBRANCH  18  21
TORSDOF 2
ENDMDL
MODEL 7
REMARK VINA RESULT:      -5.6      4.219      6.807
REMARK  Name = COUMESTROL.pdbqt.pdb
REMARK  2 active torsions:
REMARK  status: ('A' for Active; 'I' for Inactive)
REMARK    1  A    between atoms: C_16  and  O_19
REMARK    2  A    between atoms: C_18  and  O_21
REMARK                            x       y       z     vdW  Elec       q    Type
REMARK                         _______ _______ _______ _____ _____    ______ ____
ROOT
ATOM      1  O   UNL     1      12.223  20.010  31.559  0.00  0.00    +0.000 OA
ATOM      2  O   UNL     1      13.209  16.728  29.336  0.00  0.00    +0.000 OA
ATOM      3  O   UNL     1      11.008  16.650  28.638  0.00  0.00    +0.000 OA
ATOM      4  C   UNL     1      11.617  18.368  30.128  0.00  0.00    +0.000 A 
ATOM      5  C   UNL     1      12.633  18.933  30.854  0.00  0.00    +0.000 A 
ATOM      6  C   UNL     1      10.467  19.154  30.395  0.00  0.00    +0.000 A 
ATOM      7  C   UNL     1      13.987  18.470  30.892  0.00  0.00    +0.000 A 
ATOM      8  C   UNL     1      10.891  20.150  31.280  0.00  0.00    +0.000 A 
ATOM      9  C   UNL     1      14.248  17.340  30.104  0.00  0.00    +0.000 A 
ATOM     10  C   UNL     1      11.869  17.203  29.311  0.00  0.00    +0.000 A 
ATOM     11  C   UNL     1       9.122  19.139  29.994  0.00  0.00    +0.000 A 
ATOM     12  C   UNL     1      15.008  19.052  31.633  0.00  0.00    +0.000 A 
ATOM     13  C   UNL     1      10.063  21.144  31.800  0.00  0.00    +0.000 A 
ATOM     14  C   UNL     1      15.516  16.776  30.041  0.00  0.00    +0.000 A 
ATOM     15  C   UNL     1       8.263  20.121  30.496  0.00  0.00    +0.000 A 
ATOM     16  C   UNL     1       8.733  21.094  31.376  0.00  0.00    +0.000 A 
ATOM     17  C   UNL     1      16.286  18.497  31.579  0.00  0.00    +0.000 A 
ATOM     18  C   UNL     1      16.528  17.370  30.787  0.00  0.00    +0.000 A 
ENDROOT
BRANCH  16  19
ATOM     19  O   UNL     1       7.837  22.025  31.828  0.00  0.00    +0.000 OA
ATOM     20  H   UNL     1       7.320  21.629  32.551  0.00  0.00    +0.000 HD
ENDBRANCH  16  19
BRANCH  18  21
ATOM     21  O   UNL     1      17.778  16.821  30.730  0.00  0.00    +0.000 OA
ATOM     22  H   UNL     1      18.427  17.509  30.959  0.00  0.00    +0.000 HD
ENDBRANCH  18  21
TORSDOF 2
ENDMDL
MODEL 8
REMARK VINA RESULT:      -5.5     27.454     28.214
REMARK  Name = COUMESTROL.pdbqt.pdb
REMARK  2 active torsions:
REMARK  status: ('A' for Active; 'I' for Inactive)
REMARK    1  A    between atoms: C_16  and  O_19
REMARK    2  A    between atoms: C_18  and  O_21
REMARK                            x       y       z     vdW  Elec       q    Type
REMARK                         _______ _______ _______ _____ _____    ______ ____
ROOT
ATOM      1  O   UNL     1      21.114  32.953  11.640  0.00  0.00    +0.000 OA
ATOM      2  O   UNL     1      17.446  32.644   9.869  0.00  0.00    +0.000 OA
ATOM      3  O   UNL     1      16.606  33.939  11.588  0.00  0.00    +0.000 OA
ATOM      4  C   UNL     1      18.907  33.442  11.625  0.00  0.00    +0.000 A 
ATOM      5  C   UNL     1      19.939  32.801  10.991  0.00  0.00    +0.000 A 
ATOM      6  C   UNL     1      19.476  34.051  12.771  0.00  0.00    +0.000 A 
ATOM      7  C   UNL     1      19.833  32.046   9.779  0.00  0.00    +0.000 A 
ATOM      8  C   UNL     1      20.834  33.722  12.737  0.00  0.00    +0.000 A 
ATOM      9  C   UNL     1      18.543  31.985   9.231  0.00  0.00    +0.000 A 
ATOM     10  C   UNL     1      17.572  33.390  11.073  0.00  0.00    +0.000 A 
ATOM     11  C   UNL     1      19.002  34.840  13.832  0.00  0.00    +0.000 A 
ATOM     12  C   UNL     1      20.888  31.400   9.146  0.00  0.00    +0.000 A 
ATOM     13  C   UNL     1      21.766  34.126  13.692  0.00  0.00    +0.000 A 
ATOM     14  C   UNL     1      18.285  31.289   8.058  0.00  0.00    +0.000 A 
ATOM     15  C   UNL     1      19.910  35.263  14.808  0.00  0.00    +0.000 A 
ATOM     16  C   UNL     1      21.255  34.909  14.730  0.00  0.00    +0.000 A 
ATOM     17  C   UNL     1      20.644  30.697   7.967  0.00  0.00    +0.000 A 
ATOM     18  C   UNL     1      19.352  30.647   7.436  0.00  0.00    +0.000 A 
ENDROOT
BRANCH  16  19
ATOM     19  O   UNL     1      22.087  35.357  15.720  0.00  0.00    +0.000 OA
ATOM     20  H   UNL     1      22.659  34.621  15.997  0.00  0.00    +0.000 HD
ENDBRANCH  16  19
BRANCH  18  21
ATOM     21  O   UNL     1      19.105  29.960   6.281  0.00  0.00    +0.000 OA
ATOM     22  H   UNL     1      19.475  30.467   5.537  0.00  0.00    +0.000 HD
ENDBRANCH  18  21
TORSDOF 2
ENDMDL
MODEL 9
REMARK VINA RESULT:      -5.5     21.973     22.796
REMARK  Name = COUMESTROL.pdbqt.pdb
REMARK  2 active torsions:
REMARK  status: ('A' for Active; 'I' for Inactive)
REMARK    1  A    between atoms: C_16  and  O_19
REMARK    2  A    between atoms: C_18  and  O_21
REMARK                            x       y       z     vdW  Elec       q    Type
REMARK                         _______ _______ _______ _____ _____    ______ ____
ROOT
ATOM      1  O   UNL     1      29.418  15.149  17.677  0.00  0.00    +0.000 OA
ATOM      2  O   UNL     1      28.647  11.194  17.004  0.00  0.00    +0.000 OA
ATOM      3  O   UNL     1      27.949  11.783  14.882  0.00  0.00    +0.000 OA
ATOM      4  C   UNL     1      28.696  13.508  16.299  0.00  0.00    +0.000 A 
ATOM      5  C   UNL     1      29.191  13.824  17.537  0.00  0.00    +0.000 A 
ATOM      6  C   UNL     1      28.602  14.735  15.595  0.00  0.00    +0.000 A 
ATOM      7  C   UNL     1      29.453  12.893  18.593  0.00  0.00    +0.000 A 
ATOM      8  C   UNL     1      29.057  15.714  16.484  0.00  0.00    +0.000 A 
ATOM      9  C   UNL     1      29.164  11.555  18.287  0.00  0.00    +0.000 A 
ATOM     10  C   UNL     1      28.393  12.135  15.968  0.00  0.00    +0.000 A 
ATOM     11  C   UNL     1      28.186  15.131  14.314  0.00  0.00    +0.000 A 
ATOM     12  C   UNL     1      29.955  13.227  19.845  0.00  0.00    +0.000 A 
ATOM     13  C   UNL     1      29.129  17.074  16.187  0.00  0.00    +0.000 A 
ATOM     14  C   UNL     1      29.367  10.539  19.212  0.00  0.00    +0.000 A 
ATOM     15  C   UNL     1      28.245  16.488  13.982  0.00  0.00    +0.000 A 
ATOM     16  C   UNL     1      28.706  17.426  14.903  0.00  0.00    +0.000 A 
ATOM     17  C   UNL     1      30.164  12.217  20.783  0.00  0.00    +0.000 A 
ATOM     18  C   UNL     1      29.869  10.889  20.461  0.00  0.00    +0.000 A 
ENDROOT
BRANCH  16  19
ATOM     19  O   UNL     1      28.737  18.738  14.510  0.00  0.00    +0.000 OA
ATOM     20  H   UNL     1      27.901  19.158  14.777  0.00  0.00    +0.000 HD
ENDBRANCH  16  19
BRANCH  18  21
ATOM     21  O   UNL     1      30.072   9.894  21.375  0.00  0.00    +0.000 OA
ATOM     22  H   UNL     1      31.002   9.613  21.323  0.00  0.00    +0.000 HD
ENDBRANCH  18  21
TORSDOF 2
ENDMDL
