MODEL 1
REMARK VINA RESULT:      -6.2      0.000      0.000
REMARK  Name = CP466722.pdbqt.pdb
REMARK  3 active torsions:
REMARK  status: ('A' for Active; 'I' for Inactive)
REMARK    1  A    between atoms: C_5  and  C_23
REMARK    2  A    between atoms: C_14  and  O_16
REMARK    3  A    between atoms: C_15  and  O_18
REMARK                            x       y       z     vdW  Elec       q    Type
REMARK                         _______ _______ _______ _____ _____    ______ ____
ROOT
ATOM      1  N   UNL     1      10.712  15.148  30.352  0.00  0.00    +0.000 N 
ATOM      2  N   UNL     1       9.520  15.786  30.393  0.00  0.00    +0.000 NA
ATOM      3  N   UNL     1       9.212  13.536  30.558  0.00  0.00    +0.000 NA
ATOM      4  C   UNL     1      10.496  13.773  30.470  0.00  0.00    +0.000 A 
ATOM      5  C   UNL     1       8.636  14.785  30.515  0.00  0.00    +0.000 A 
ATOM      6  C   UNL     1      11.961  15.832  30.172  0.00  0.00    +0.000 A 
ATOM      7  N   UNL     1      13.067  15.058  30.014  0.00  0.00    +0.000 NA
ATOM      8  C   UNL     1      14.226  15.698  29.823  0.00  0.00    +0.000 A 
ATOM      9  N   UNL     1      14.381  17.024  29.767  0.00  0.00    +0.000 NA
ATOM     10  C   UNL     1      13.291  17.778  29.924  0.00  0.00    +0.000 A 
ATOM     11  C   UNL     1      12.016  17.240  30.143  0.00  0.00    +0.000 A 
ATOM     12  C   UNL     1      13.438  19.157  29.858  0.00  0.00    +0.000 A 
ATOM     13  C   UNL     1      10.934  18.133  30.328  0.00  0.00    +0.000 A 
ATOM     14  C   UNL     1      11.100  19.513  30.299  0.00  0.00    +0.000 A 
ATOM     15  C   UNL     1      12.357  20.028  30.005  0.00  0.00    +0.000 A 
ATOM     16  N   UNL     1      11.467  12.839  30.495  0.00  0.00    +0.000 N 
ATOM     17  H   UNL     1      11.205  11.871  30.342  0.00  0.00    +0.000 HD
ATOM     18  H   UNL     1      12.410  13.088  30.199  0.00  0.00    +0.000 HD
ENDROOT
BRANCH   5  19
ATOM     19  C   UNL     1       7.184  14.975  30.591  0.00  0.00    +0.000 A 
ATOM     20  N   UNL     1       6.391  14.132  29.875  0.00  0.00    +0.000 NA
ATOM     21  C   UNL     1       5.057  14.329  29.961  0.00  0.00    +0.000 A 
ATOM     22  C   UNL     1       4.465  15.319  30.724  0.00  0.00    +0.000 A 
ATOM     23  C   UNL     1       5.299  16.162  31.447  0.00  0.00    +0.000 A 
ATOM     24  C   UNL     1       6.677  15.996  31.386  0.00  0.00    +0.000 A 
ENDBRANCH   5  19
BRANCH  14  25
ATOM     25  O   UNL     1       9.995  20.304  30.465  0.00  0.00    +0.000 OA
ATOM     26  C   UNL     1       8.821  19.556  30.275  0.00  0.00    +0.000 C 
ENDBRANCH  14  25
BRANCH  15  27
ATOM     27  O   UNL     1      12.569  21.379  29.944  0.00  0.00    +0.000 OA
ATOM     28  C   UNL     1      13.698  21.727  30.707  0.00  0.00    +0.000 C 
ENDBRANCH  15  27
TORSDOF 3
ENDMDL
MODEL 2
REMARK VINA RESULT:      -6.1     13.495     17.414
REMARK  Name = CP466722.pdbqt.pdb
REMARK  3 active torsions:
REMARK  status: ('A' for Active; 'I' for Inactive)
REMARK    1  A    between atoms: C_5  and  C_23
REMARK    2  A    between atoms: C_14  and  O_16
REMARK    3  A    between atoms: C_15  and  O_18
REMARK                            x       y       z     vdW  Elec       q    Type
REMARK                         _______ _______ _______ _____ _____    ______ ____
ROOT
ATOM      1  N   UNL     1      24.430  11.614  24.322  0.00  0.00    +0.000 N 
ATOM      2  N   UNL     1      25.525  12.054  23.659  0.00  0.00    +0.000 NA
ATOM      3  N   UNL     1      25.100   9.883  23.120  0.00  0.00    +0.000 NA
ATOM      4  C   UNL     1      24.184  10.287  23.962  0.00  0.00    +0.000 A 
ATOM      5  C   UNL     1      25.906  10.984  22.945  0.00  0.00    +0.000 A 
ATOM      6  C   UNL     1      23.707  12.422  25.263  0.00  0.00    +0.000 A 
ATOM      7  N   UNL     1      22.710  11.812  25.956  0.00  0.00    +0.000 NA
ATOM      8  C   UNL     1      22.053  12.560  26.849  0.00  0.00    +0.000 A 
ATOM      9  N   UNL     1      22.302  13.845  27.117  0.00  0.00    +0.000 NA
ATOM     10  C   UNL     1      23.282  14.439  26.434  0.00  0.00    +0.000 A 
ATOM     11  C   UNL     1      24.042  13.776  25.460  0.00  0.00    +0.000 A 
ATOM     12  C   UNL     1      23.557  15.771  26.711  0.00  0.00    +0.000 A 
ATOM     13  C   UNL     1      25.036  14.511  24.771  0.00  0.00    +0.000 A 
ATOM     14  C   UNL     1      25.277  15.855  25.031  0.00  0.00    +0.000 A 
ATOM     15  C   UNL     1      24.565  16.475  26.051  0.00  0.00    +0.000 A 
ATOM     16  N   UNL     1      23.153   9.545  24.412  0.00  0.00    +0.000 N 
ATOM     17  H   UNL     1      23.195   8.540  24.286  0.00  0.00    +0.000 HD
ATOM     18  H   UNL     1      22.625   9.860  25.226  0.00  0.00    +0.000 HD
ENDROOT
BRANCH   5  19
ATOM     19  C   UNL     1      27.072  10.962  22.058  0.00  0.00    +0.000 A 
ATOM     20  N   UNL     1      27.857   9.849  22.063  0.00  0.00    +0.000 NA
ATOM     21  C   UNL     1      28.927   9.854  21.238  0.00  0.00    +0.000 A 
ATOM     22  C   UNL     1      29.261  10.905  20.403  0.00  0.00    +0.000 A 
ATOM     23  C   UNL     1      28.440  12.025  20.417  0.00  0.00    +0.000 A 
ATOM     24  C   UNL     1      27.330  12.064  21.252  0.00  0.00    +0.000 A 
ENDBRANCH   5  19
BRANCH  14  25
ATOM     25  O   UNL     1      26.272  16.484  24.334  0.00  0.00    +0.000 OA
ATOM     26  C   UNL     1      27.283  15.571  23.988  0.00  0.00    +0.000 C 
ENDBRANCH  14  25
BRANCH  15  27
ATOM     27  O   UNL     1      24.778  17.792  26.360  0.00  0.00    +0.000 OA
ATOM     28  C   UNL     1      23.750  18.588  25.824  0.00  0.00    +0.000 C 
ENDBRANCH  15  27
TORSDOF 3
ENDMDL
MODEL 3
REMARK VINA RESULT:      -6.1      2.741      6.450
REMARK  Name = CP466722.pdbqt.pdb
REMARK  3 active torsions:
REMARK  status: ('A' for Active; 'I' for Inactive)
REMARK    1  A    between atoms: C_5  and  C_23
REMARK    2  A    between atoms: C_14  and  O_16
REMARK    3  A    between atoms: C_15  and  O_18
REMARK                            x       y       z     vdW  Elec       q    Type
REMARK                         _______ _______ _______ _____ _____    ______ ____
ROOT
ATOM      1  N   UNL     1      12.958  16.806  30.228  0.00  0.00    +0.000 N 
ATOM      2  N   UNL     1      12.131  17.869  30.358  0.00  0.00    +0.000 NA
ATOM      3  N   UNL     1      14.246  18.572  29.894  0.00  0.00    +0.000 NA
ATOM      4  C   UNL     1      14.243  17.265  29.930  0.00  0.00    +0.000 A 
ATOM      5  C   UNL     1      12.940  18.919  30.153  0.00  0.00    +0.000 A 
ATOM      6  C   UNL     1      12.527  15.451  30.421  0.00  0.00    +0.000 A 
ATOM      7  N   UNL     1      13.490  14.491  30.393  0.00  0.00    +0.000 NA
ATOM      8  C   UNL     1      13.089  13.232  30.595  0.00  0.00    +0.000 A 
ATOM      9  N   UNL     1      11.832  12.845  30.830  0.00  0.00    +0.000 NA
ATOM     10  C   UNL     1      10.891  13.792  30.856  0.00  0.00    +0.000 A 
ATOM     11  C   UNL     1      11.169  15.149  30.647  0.00  0.00    +0.000 A 
ATOM     12  C   UNL     1       9.583  13.403  31.108  0.00  0.00    +0.000 A 
ATOM     13  C   UNL     1      10.090  16.065  30.663  0.00  0.00    +0.000 A 
ATOM     14  C   UNL     1       8.778  15.659  30.879  0.00  0.00    +0.000 A 
ATOM     15  C   UNL     1       8.531  14.321  31.159  0.00  0.00    +0.000 A 
ATOM     16  N   UNL     1      15.311  16.473  29.706  0.00  0.00    +0.000 N 
ATOM     17  H   UNL     1      16.233  16.894  29.736  0.00  0.00    +0.000 HD
ATOM     18  H   UNL     1      15.271  15.490  29.972  0.00  0.00    +0.000 HD
ENDROOT
BRANCH   5  19
ATOM     19  C   UNL     1      12.501  20.317  30.201  0.00  0.00    +0.000 A 
ATOM     20  N   UNL     1      13.324  21.264  29.673  0.00  0.00    +0.000 NA
ATOM     21  C   UNL     1      12.897  22.544  29.731  0.00  0.00    +0.000 A 
ATOM     22  C   UNL     1      11.692  22.938  30.284  0.00  0.00    +0.000 A 
ATOM     23  C   UNL     1      10.872  21.949  30.812  0.00  0.00    +0.000 A 
ATOM     24  C   UNL     1      11.273  20.620  30.775  0.00  0.00    +0.000 A 
ENDBRANCH   5  19
BRANCH  14  25
ATOM     25  O   UNL     1       7.798  16.614  30.901  0.00  0.00    +0.000 OA
ATOM     26  C   UNL     1       8.347  17.876  31.187  0.00  0.00    +0.000 C 
ENDBRANCH  14  25
BRANCH  15  27
ATOM     27  O   UNL     1       7.260  13.873  31.398  0.00  0.00    +0.000 OA
ATOM     28  C   UNL     1       7.277  12.869  32.382  0.00  0.00    +0.000 C 
ENDBRANCH  15  27
TORSDOF 3
ENDMDL
MODEL 4
REMARK VINA RESULT:      -6.0      3.282      6.087
REMARK  Name = CP466722.pdbqt.pdb
REMARK  3 active torsions:
REMARK  status: ('A' for Active; 'I' for Inactive)
REMARK    1  A    between atoms: C_5  and  C_23
REMARK    2  A    between atoms: C_14  and  O_16
REMARK    3  A    between atoms: C_15  and  O_18
REMARK                            x       y       z     vdW  Elec       q    Type
REMARK                         _______ _______ _______ _____ _____    ______ ____
ROOT
ATOM      1  N   UNL     1      12.293  19.715  30.566  0.00  0.00    +0.000 N 
ATOM      2  N   UNL     1      10.952  19.865  30.676  0.00  0.00    +0.000 NA
ATOM      3  N   UNL     1      11.971  21.901  30.656  0.00  0.00    +0.000 NA
ATOM      4  C   UNL     1      12.891  20.978  30.541  0.00  0.00    +0.000 A 
ATOM      5  C   UNL     1      10.793  21.196  30.730  0.00  0.00    +0.000 A 
ATOM      6  C   UNL     1      12.937  18.433  30.528  0.00  0.00    +0.000 A 
ATOM      7  N   UNL     1      14.296  18.429  30.552  0.00  0.00    +0.000 NA
ATOM      8  C   UNL     1      14.894  17.232  30.540  0.00  0.00    +0.000 A 
ATOM      9  N   UNL     1      14.267  16.052  30.514  0.00  0.00    +0.000 NA
ATOM     10  C   UNL     1      12.933  16.063  30.490  0.00  0.00    +0.000 A 
ATOM     11  C   UNL     1      12.180  17.245  30.487  0.00  0.00    +0.000 A 
ATOM     12  C   UNL     1      12.272  14.843  30.474  0.00  0.00    +0.000 A 
ATOM     13  C   UNL     1      10.770  17.142  30.427  0.00  0.00    +0.000 A 
ATOM     14  C   UNL     1      10.120  15.914  30.372  0.00  0.00    +0.000 A 
ATOM     15  C   UNL     1      10.878  14.753  30.452  0.00  0.00    +0.000 A 
ATOM     16  N   UNL     1      14.213  21.202  30.411  0.00  0.00    +0.000 N 
ATOM     17  H   UNL     1      14.568  22.123  30.643  0.00  0.00    +0.000 HD
ATOM     18  H   UNL     1      14.868  20.434  30.552  0.00  0.00    +0.000 HD
ENDROOT
BRANCH   5  19
ATOM     19  C   UNL     1       9.494  21.862  30.863  0.00  0.00    +0.000 A 
ATOM     20  N   UNL     1       9.452  23.058  31.513  0.00  0.00    +0.000 NA
ATOM     21  C   UNL     1       8.244  23.651  31.624  0.00  0.00    +0.000 A 
ATOM     22  C   UNL     1       7.069  23.122  31.120  0.00  0.00    +0.000 A 
ATOM     23  C   UNL     1       7.142  21.903  30.459  0.00  0.00    +0.000 A 
ATOM     24  C   UNL     1       8.365  21.257  30.324  0.00  0.00    +0.000 A 
ENDBRANCH   5  19
BRANCH  14  25
ATOM     25  O   UNL     1       8.751  15.905  30.338  0.00  0.00    +0.000 OA
ATOM     26  C   UNL     1       8.233  16.954  31.116  0.00  0.00    +0.000 C 
ENDBRANCH  14  25
BRANCH  15  27
ATOM     27  O   UNL     1      10.285  13.519  30.423  0.00  0.00    +0.000 OA
ATOM     28  C   UNL     1      11.032  12.604  31.185  0.00  0.00    +0.000 C 
ENDBRANCH  15  27
TORSDOF 3
ENDMDL
MODEL 5
REMARK VINA RESULT:      -5.9     13.472     16.589
REMARK  Name = CP466722.pdbqt.pdb
REMARK  3 active torsions:
REMARK  status: ('A' for Active; 'I' for Inactive)
REMARK    1  A    between atoms: C_5  and  C_23
REMARK    2  A    between atoms: C_14  and  O_16
REMARK    3  A    between atoms: C_15  and  O_18
REMARK                            x       y       z     vdW  Elec       q    Type
REMARK                         _______ _______ _______ _____ _____    ______ ____
ROOT
ATOM      1  N   UNL     1      23.442  12.738  25.549  0.00  0.00    +0.000 N 
ATOM      2  N   UNL     1      23.898  14.012  25.567  0.00  0.00    +0.000 NA
ATOM      3  N   UNL     1      21.991  13.842  26.800  0.00  0.00    +0.000 NA
ATOM      4  C   UNL     1      22.282  12.659  26.323  0.00  0.00    +0.000 A 
ATOM      5  C   UNL     1      22.998  14.652  26.328  0.00  0.00    +0.000 A 
ATOM      6  C   UNL     1      24.075  11.691  24.799  0.00  0.00    +0.000 A 
ATOM      7  N   UNL     1      23.436  10.491  24.761  0.00  0.00    +0.000 NA
ATOM      8  C   UNL     1      24.016   9.524  24.042  0.00  0.00    +0.000 A 
ATOM      9  N   UNL     1      25.157   9.644  23.358  0.00  0.00    +0.000 NA
ATOM     10  C   UNL     1      25.779  10.823  23.399  0.00  0.00    +0.000 A 
ATOM     11  C   UNL     1      25.290  11.918  24.123  0.00  0.00    +0.000 A 
ATOM     12  C   UNL     1      26.961  10.962  22.684  0.00  0.00    +0.000 A 
ATOM     13  C   UNL     1      26.048  13.114  24.125  0.00  0.00    +0.000 A 
ATOM     14  C   UNL     1      27.250  13.229  23.435  0.00  0.00    +0.000 A 
ATOM     15  C   UNL     1      27.681  12.158  22.662  0.00  0.00    +0.000 A 
ATOM     16  N   UNL     1      21.580  11.531  26.547  0.00  0.00    +0.000 N 
ATOM     17  H   UNL     1      20.638  11.618  26.914  0.00  0.00    +0.000 HD
ATOM     18  H   UNL     1      21.747  10.712  25.963  0.00  0.00    +0.000 HD
ENDROOT
BRANCH   5  19
ATOM     19  C   UNL     1      23.055  16.084  26.639  0.00  0.00    +0.000 A 
ATOM     20  N   UNL     1      22.318  16.540  27.689  0.00  0.00    +0.000 NA
ATOM     21  C   UNL     1      22.387  17.862  27.955  0.00  0.00    +0.000 A 
ATOM     22  C   UNL     1      23.152  18.761  27.233  0.00  0.00    +0.000 A 
ATOM     23  C   UNL     1      23.895  18.267  26.169  0.00  0.00    +0.000 A 
ATOM     24  C   UNL     1      23.852  16.913  25.860  0.00  0.00    +0.000 A 
ENDBRANCH   5  19
BRANCH  14  25
ATOM     25  O   UNL     1      27.908  14.429  23.472  0.00  0.00    +0.000 OA
ATOM     26  C   UNL     1      27.116  15.404  24.102  0.00  0.00    +0.000 C 
ENDBRANCH  14  25
BRANCH  15  27
ATOM     27  O   UNL     1      28.847  12.227  21.949  0.00  0.00    +0.000 OA
ATOM     28  C   UNL     1      28.569  12.402  20.582  0.00  0.00    +0.000 C 
ENDBRANCH  15  27
TORSDOF 3
ENDMDL
MODEL 6
REMARK VINA RESULT:      -5.8     14.225     16.702
REMARK  Name = CP466722.pdbqt.pdb
REMARK  3 active torsions:
REMARK  status: ('A' for Active; 'I' for Inactive)
REMARK    1  A    between atoms: C_5  and  C_23
REMARK    2  A    between atoms: C_14  and  O_16
REMARK    3  A    between atoms: C_15  and  O_18
REMARK                            x       y       z     vdW  Elec       q    Type
REMARK                         _______ _______ _______ _____ _____    ______ ____
ROOT
ATOM      1  N   UNL     1      24.432  24.745  24.454  0.00  0.00    +0.000 N 
ATOM      2  N   UNL     1      23.808  23.746  25.121  0.00  0.00    +0.000 NA
ATOM      3  N   UNL     1      24.699  22.958  23.180  0.00  0.00    +0.000 NA
ATOM      4  C   UNL     1      24.981  24.232  23.277  0.00  0.00    +0.000 A 
ATOM      5  C   UNL     1      23.986  22.683  24.324  0.00  0.00    +0.000 A 
ATOM      6  C   UNL     1      24.453  26.103  24.919  0.00  0.00    +0.000 A 
ATOM      7  N   UNL     1      24.998  27.028  24.085  0.00  0.00    +0.000 NA
ATOM      8  C   UNL     1      24.995  28.296  24.510  0.00  0.00    +0.000 A 
ATOM      9  N   UNL     1      24.496  28.724  25.674  0.00  0.00    +0.000 NA
ATOM     10  C   UNL     1      23.963  27.811  26.488  0.00  0.00    +0.000 A 
ATOM     11  C   UNL     1      23.912  26.446  26.174  0.00  0.00    +0.000 A 
ATOM     12  C   UNL     1      23.433  28.245  27.695  0.00  0.00    +0.000 A 
ATOM     13  C   UNL     1      23.353  25.560  27.125  0.00  0.00    +0.000 A 
ATOM     14  C   UNL     1      22.859  26.001  28.348  0.00  0.00    +0.000 A 
ATOM     15  C   UNL     1      22.850  27.366  28.610  0.00  0.00    +0.000 A 
ATOM     16  N   UNL     1      25.697  24.945  22.386  0.00  0.00    +0.000 N 
ATOM     17  H   UNL     1      25.844  24.550  21.463  0.00  0.00    +0.000 HD
ATOM     18  H   UNL     1      25.677  25.963  22.426  0.00  0.00    +0.000 HD
ENDROOT
BRANCH   5  19
ATOM     19  C   UNL     1      23.473  21.341  24.617  0.00  0.00    +0.000 A 
ATOM     20  N   UNL     1      22.942  20.622  23.591  0.00  0.00    +0.000 NA
ATOM     21  C   UNL     1      22.475  19.389  23.886  0.00  0.00    +0.000 A 
ATOM     22  C   UNL     1      22.508  18.828  25.151  0.00  0.00    +0.000 A 
ATOM     23  C   UNL     1      23.058  19.585  26.178  0.00  0.00    +0.000 A 
ATOM     24  C   UNL     1      23.549  20.858  25.917  0.00  0.00    +0.000 A 
ENDBRANCH   5  19
BRANCH  14  25
ATOM     25  O   UNL     1      22.316  25.079  29.200  0.00  0.00    +0.000 OA
ATOM     26  C   UNL     1      21.772  24.002  28.479  0.00  0.00    +0.000 C 
ENDBRANCH  14  25
BRANCH  15  27
ATOM     27  O   UNL     1      22.358  27.854  29.790  0.00  0.00    +0.000 OA
ATOM     28  C   UNL     1      21.477  28.922  29.543  0.00  0.00    +0.000 C 
ENDBRANCH  15  27
TORSDOF 3
ENDMDL
MODEL 7
REMARK VINA RESULT:      -5.6      2.304      4.439
REMARK  Name = CP466722.pdbqt.pdb
REMARK  3 active torsions:
REMARK  status: ('A' for Active; 'I' for Inactive)
REMARK    1  A    between atoms: C_5  and  C_23
REMARK    2  A    between atoms: C_14  and  O_16
REMARK    3  A    between atoms: C_15  and  O_18
REMARK                            x       y       z     vdW  Elec       q    Type
REMARK                         _______ _______ _______ _____ _____    ______ ____
ROOT
ATOM      1  N   UNL     1      12.008  15.624  30.309  0.00  0.00    +0.000 N 
ATOM      2  N   UNL     1      11.021  14.776  30.682  0.00  0.00    +0.000 NA
ATOM      3  N   UNL     1      12.963  13.631  30.366  0.00  0.00    +0.000 NA
ATOM      4  C   UNL     1      13.189  14.899  30.137  0.00  0.00    +0.000 A 
ATOM      5  C   UNL     1      11.631  13.581  30.704  0.00  0.00    +0.000 A 
ATOM      6  C   UNL     1      11.796  17.028  30.102  0.00  0.00    +0.000 A 
ATOM      7  N   UNL     1      12.841  17.738  29.599  0.00  0.00    +0.000 NA
ATOM      8  C   UNL     1      12.634  19.042  29.385  0.00  0.00    +0.000 A 
ATOM      9  N   UNL     1      11.491  19.695  29.615  0.00  0.00    +0.000 NA
ATOM     10  C   UNL     1      10.470  18.993  30.109  0.00  0.00    +0.000 A 
ATOM     11  C   UNL     1      10.552  17.623  30.393  0.00  0.00    +0.000 A 
ATOM     12  C   UNL     1       9.275  19.658  30.343  0.00  0.00    +0.000 A 
ATOM     13  C   UNL     1       9.417  16.983  30.946  0.00  0.00    +0.000 A 
ATOM     14  C   UNL     1       8.238  17.668  31.211  0.00  0.00    +0.000 A 
ATOM     15  C   UNL     1       8.149  19.008  30.854  0.00  0.00    +0.000 A 
ATOM     16  N   UNL     1      14.378  15.432  29.794  0.00  0.00    +0.000 N 
ATOM     17  H   UNL     1      15.106  14.808  29.464  0.00  0.00    +0.000 HD
ATOM     18  H   UNL     1      14.413  16.380  29.421  0.00  0.00    +0.000 HD
ENDROOT
BRANCH   5  19
ATOM     19  C   UNL     1      10.961  12.324  31.046  0.00  0.00    +0.000 A 
ATOM     20  N   UNL     1      11.737  11.237  31.311  0.00  0.00    +0.000 NA
ATOM     21  C   UNL     1      11.096  10.090  31.623  0.00  0.00    +0.000 A 
ATOM     22  C   UNL     1       9.720   9.962  31.690  0.00  0.00    +0.000 A 
ATOM     23  C   UNL     1       8.953  11.087  31.417  0.00  0.00    +0.000 A 
ATOM     24  C   UNL     1       9.572  12.287  31.091  0.00  0.00    +0.000 A 
ENDBRANCH   5  19
BRANCH  14  25
ATOM     25  O   UNL     1       7.181  16.968  31.726  0.00  0.00    +0.000 OA
ATOM     26  C   UNL     1       7.517  15.612  31.879  0.00  0.00    +0.000 C 
ENDBRANCH  14  25
BRANCH  15  27
ATOM     27  O   UNL     1       7.003  19.724  31.076  0.00  0.00    +0.000 OA
ATOM     28  C   UNL     1       7.208  21.078  30.758  0.00  0.00    +0.000 C 
ENDBRANCH  15  27
TORSDOF 3
ENDMDL
MODEL 8
REMARK VINA RESULT:      -5.5     16.017     19.339
REMARK  Name = CP466722.pdbqt.pdb
REMARK  3 active torsions:
REMARK  status: ('A' for Active; 'I' for Inactive)
REMARK    1  A    between atoms: C_5  and  C_23
REMARK    2  A    between atoms: C_14  and  O_16
REMARK    3  A    between atoms: C_15  and  O_18
REMARK                            x       y       z     vdW  Elec       q    Type
REMARK                         _______ _______ _______ _____ _____    ______ ____
ROOT
ATOM      1  N   UNL     1      26.640  10.960  22.457  0.00  0.00    +0.000 N 
ATOM      2  N   UNL     1      26.165  12.145  22.908  0.00  0.00    +0.000 NA
ATOM      3  N   UNL     1      25.223  10.427  24.068  0.00  0.00    +0.000 NA
ATOM      4  C   UNL     1      26.058   9.927  23.194  0.00  0.00    +0.000 A 
ATOM      5  C   UNL     1      25.310  11.786  23.878  0.00  0.00    +0.000 A 
ATOM      6  C   UNL     1      27.563  10.854  21.363  0.00  0.00    +0.000 A 
ATOM      7  N   UNL     1      27.853   9.599  20.926  0.00  0.00    +0.000 NA
ATOM      8  C   UNL     1      28.696   9.503  19.892  0.00  0.00    +0.000 A 
ATOM      9  N   UNL     1      29.262  10.531  19.254  0.00  0.00    +0.000 NA
ATOM     10  C   UNL     1      28.974  11.759  19.688  0.00  0.00    +0.000 A 
ATOM     11  C   UNL     1      28.118  12.005  20.769  0.00  0.00    +0.000 A 
ATOM     12  C   UNL     1      29.549  12.835  19.026  0.00  0.00    +0.000 A 
ATOM     13  C   UNL     1      27.907  13.347  21.166  0.00  0.00    +0.000 A 
ATOM     14  C   UNL     1      28.519  14.415  20.520  0.00  0.00    +0.000 A 
ATOM     15  C   UNL     1      29.305  14.157  19.404  0.00  0.00    +0.000 A 
ATOM     16  N   UNL     1      26.327   8.617  23.029  0.00  0.00    +0.000 N 
ATOM     17  H   UNL     1      25.688   7.942  23.436  0.00  0.00    +0.000 HD
ATOM     18  H   UNL     1      26.812   8.306  22.188  0.00  0.00    +0.000 HD
ENDROOT
BRANCH   5  19
ATOM     19  C   UNL     1      24.525  12.736  24.673  0.00  0.00    +0.000 A 
ATOM     20  N   UNL     1      23.316  12.326  25.146  0.00  0.00    +0.000 NA
ATOM     21  C   UNL     1      22.611  13.219  25.874  0.00  0.00    +0.000 A 
ATOM     22  C   UNL     1      23.043  14.501  26.162  0.00  0.00    +0.000 A 
ATOM     23  C   UNL     1      24.282  14.891  25.668  0.00  0.00    +0.000 A 
ATOM     24  C   UNL     1      25.039  14.004  24.913  0.00  0.00    +0.000 A 
ENDBRANCH   5  19
BRANCH  14  25
ATOM     25  O   UNL     1      28.242  15.683  20.956  0.00  0.00    +0.000 OA
ATOM     26  C   UNL     1      28.326  15.751  22.357  0.00  0.00    +0.000 C 
ENDBRANCH  14  25
BRANCH  15  27
ATOM     27  O   UNL     1      29.914  15.175  18.720  0.00  0.00    +0.000 OA
ATOM     28  C   UNL     1      29.687  15.035  17.339  0.00  0.00    +0.000 C 
ENDBRANCH  15  27
TORSDOF 3
ENDMDL
MODEL 9
REMARK VINA RESULT:      -5.5     11.207     14.681
REMARK  Name = CP466722.pdbqt.pdb
REMARK  3 active torsions:
REMARK  status: ('A' for Active; 'I' for Inactive)
REMARK    1  A    between atoms: C_5  and  C_23
REMARK    2  A    between atoms: C_14  and  O_16
REMARK    3  A    between atoms: C_15  and  O_18
REMARK                            x       y       z     vdW  Elec       q    Type
REMARK                         _______ _______ _______ _____ _____    ______ ____
ROOT
ATOM      1  N   UNL     1      -0.892  14.082  21.734  0.00  0.00    +0.000 N 
ATOM      2  N   UNL     1      -0.343  14.415  22.926  0.00  0.00    +0.000 NA
ATOM      3  N   UNL     1      -1.388  16.219  22.010  0.00  0.00    +0.000 NA
ATOM      4  C   UNL     1      -1.537  15.201  21.203  0.00  0.00    +0.000 A 
ATOM      5  C   UNL     1      -0.659  15.712  23.061  0.00  0.00    +0.000 A 
ATOM      6  C   UNL     1      -0.758  12.779  21.148  0.00  0.00    +0.000 A 
ATOM      7  N   UNL     1      -1.242  12.621  19.888  0.00  0.00    +0.000 NA
ATOM      8  C   UNL     1      -1.096  11.412  19.335  0.00  0.00    +0.000 A 
ATOM      9  N   UNL     1      -0.509  10.360  19.913  0.00  0.00    +0.000 NA
ATOM     10  C   UNL     1      -0.036  10.521  21.150  0.00  0.00    +0.000 A 
ATOM     11  C   UNL     1      -0.134  11.730  21.852  0.00  0.00    +0.000 A 
ATOM     12  C   UNL     1       0.584   9.438  21.757  0.00  0.00    +0.000 A 
ATOM     13  C   UNL     1       0.373  11.781  23.173  0.00  0.00    +0.000 A 
ATOM     14  C   UNL     1       0.958  10.678  23.785  0.00  0.00    +0.000 A 
ATOM     15  C   UNL     1       1.113   9.511  23.047  0.00  0.00    +0.000 A 
ATOM     16  N   UNL     1      -2.215  15.218  20.038  0.00  0.00    +0.000 N 
ATOM     17  H   UNL     1      -2.438  16.119  19.627  0.00  0.00    +0.000 HD
ATOM     18  H   UNL     1      -2.092  14.454  19.375  0.00  0.00    +0.000 HD
ENDROOT
BRANCH   5  19
ATOM     19  C   UNL     1      -0.270  16.537  24.209  0.00  0.00    +0.000 A 
ATOM     20  N   UNL     1       0.829  16.164  24.920  0.00  0.00    +0.000 NA
ATOM     21  C   UNL     1       1.166  16.940  25.974  0.00  0.00    +0.000 A 
ATOM     22  C   UNL     1       0.470  18.071  26.360  0.00  0.00    +0.000 A 
ATOM     23  C   UNL     1      -0.645  18.429  25.614  0.00  0.00    +0.000 A 
ATOM     24  C   UNL     1      -1.028  17.658  24.523  0.00  0.00    +0.000 A 
ENDBRANCH   5  19
BRANCH  14  25
ATOM     25  O   UNL     1       1.442  10.821  25.057  0.00  0.00    +0.000 OA
ATOM     26  C   UNL     1       2.451  11.799  25.092  0.00  0.00    +0.000 C 
ENDBRANCH  14  25
BRANCH  15  27
ATOM     27  O   UNL     1       1.701   8.403  23.596  0.00  0.00    +0.000 OA
ATOM     28  C   UNL     1       0.717   7.493  24.021  0.00  0.00    +0.000 C 
ENDBRANCH  15  27
TORSDOF 3
ENDMDL
