MODEL 1
REMARK VINA RESULT:      -6.0      0.000      0.000
REMARK  Name = Curcumin.pdbqt.pdb
REMARK  8 active torsions:
REMARK  status: ('A' for Active; 'I' for Inactive)
REMARK    1  A    between atoms: C_2  and  C_4
REMARK    2  A    between atoms: C_5  and  C_6
REMARK    3  A    between atoms: C_8  and  O_12
REMARK    4  A    between atoms: C_9  and  O_14
REMARK    5  A    between atoms: C_16  and  C_18
REMARK    6  A    between atoms: C_19  and  C_20
REMARK    7  A    between atoms: C_22  and  O_26
REMARK    8  A    between atoms: C_23  and  O_28
REMARK                            x       y       z     vdW  Elec       q    Type
REMARK                         _______ _______ _______ _____ _____    ______ ____
ROOT
ATOM      1  C   UNL     1       9.386  18.878  29.980  0.00  0.00    +0.000 C 
ATOM      2  C   UNL     1      10.479  18.128  29.457  0.00  0.00    +0.000 C 
ATOM      3  O   UNL     1      11.251  18.653  28.669  0.00  0.00    +0.000 OA
ATOM      4  C   UNL     1       8.291  19.628  30.499  0.00  0.00    +0.000 C 
ATOM      5  O   UNL     1       7.354  19.047  31.027  0.00  0.00    +0.000 OA
ENDROOT
BRANCH   2   6
ATOM      6  C   UNL     1      10.669  16.759  29.863  0.00  0.00    +0.000 C 
ATOM      7  C   UNL     1      10.825  15.616  30.201  0.00  0.00    +0.000 C 
BRANCH   7   8
ATOM      8  C   UNL     1      11.012  14.260  30.600  0.00  0.00    +0.000 A 
ATOM      9  C   UNL     1       9.906  13.437  30.804  0.00  0.00    +0.000 A 
ATOM     10  C   UNL     1      10.070  12.104  31.195  0.00  0.00    +0.000 A 
ATOM     11  C   UNL     1      11.367  11.614  31.379  0.00  0.00    +0.000 A 
ATOM     12  C   UNL     1      12.475  12.435  31.176  0.00  0.00    +0.000 A 
ATOM     13  C   UNL     1      12.297  13.760  30.786  0.00  0.00    +0.000 A 
BRANCH  10  14
ATOM     14  O   UNL     1       9.031  11.236  31.413  0.00  0.00    +0.000 OA
ATOM     15  C   UNL     1       8.115  11.095  30.364  0.00  0.00    +0.000 C 
ENDBRANCH  10  14
BRANCH  11  16
ATOM     16  O   UNL     1      11.627  10.327  31.761  0.00  0.00    +0.000 OA
ATOM     17  H   UNL     1      11.425  10.200  32.703  0.00  0.00    +0.000 HD
ENDBRANCH  11  16
ENDBRANCH   7   8
ENDBRANCH   2   6
BRANCH   4  18
ATOM     18  C   UNL     1       8.298  21.065  30.400  0.00  0.00    +0.000 C 
ATOM     19  C   UNL     1       8.306  22.265  30.320  0.00  0.00    +0.000 C 
BRANCH  19  20
ATOM     20  C   UNL     1       8.319  23.687  30.228  0.00  0.00    +0.000 A 
ATOM     21  C   UNL     1       8.788  24.303  29.068  0.00  0.00    +0.000 A 
ATOM     22  C   UNL     1       8.807  25.696  28.962  0.00  0.00    +0.000 A 
ATOM     23  C   UNL     1       8.346  26.458  30.039  0.00  0.00    +0.000 A 
ATOM     24  C   UNL     1       7.876  25.847  31.201  0.00  0.00    +0.000 A 
ATOM     25  C   UNL     1       7.863  24.459  31.294  0.00  0.00    +0.000 A 
BRANCH  22  26
ATOM     26  O   UNL     1       9.252  26.383  27.858  0.00  0.00    +0.000 OA
ATOM     27  C   UNL     1       8.687  25.992  26.634  0.00  0.00    +0.000 C 
ENDBRANCH  22  26
BRANCH  23  28
ATOM     28  O   UNL     1       8.357  27.823  29.955  0.00  0.00    +0.000 OA
ATOM     29  H   UNL     1       7.455  28.153  30.120  0.00  0.00    +0.000 HD
ENDBRANCH  23  28
ENDBRANCH  19  20
ENDBRANCH   4  18
TORSDOF 8
ENDMDL
MODEL 2
REMARK VINA RESULT:      -5.9      0.282     11.767
REMARK  Name = Curcumin.pdbqt.pdb
REMARK  8 active torsions:
REMARK  status: ('A' for Active; 'I' for Inactive)
REMARK    1  A    between atoms: C_2  and  C_4
REMARK    2  A    between atoms: C_5  and  C_6
REMARK    3  A    between atoms: C_8  and  O_12
REMARK    4  A    between atoms: C_9  and  O_14
REMARK    5  A    between atoms: C_16  and  C_18
REMARK    6  A    between atoms: C_19  and  C_20
REMARK    7  A    between atoms: C_22  and  O_26
REMARK    8  A    between atoms: C_23  and  O_28
REMARK                            x       y       z     vdW  Elec       q    Type
REMARK                         _______ _______ _______ _____ _____    ______ ____
ROOT
ATOM      1  C   UNL     1       9.388  18.849  29.990  0.00  0.00    +0.000 C 
ATOM      2  C   UNL     1       8.289  19.589  30.515  0.00  0.00    +0.000 C 
ATOM      3  O   UNL     1       7.357  18.998  31.040  0.00  0.00    +0.000 OA
ATOM      4  C   UNL     1      10.484  18.108  29.462  0.00  0.00    +0.000 C 
ATOM      5  O   UNL     1      11.254  18.639  28.675  0.00  0.00    +0.000 OA
ENDROOT
BRANCH   2   6
ATOM      6  C   UNL     1       8.285  21.027  30.427  0.00  0.00    +0.000 C 
ATOM      7  C   UNL     1       8.280  22.226  30.353  0.00  0.00    +0.000 C 
BRANCH   7   8
ATOM      8  C   UNL     1       8.275  23.650  30.267  0.00  0.00    +0.000 A 
ATOM      9  C   UNL     1       8.555  24.274  29.053  0.00  0.00    +0.000 A 
ATOM     10  C   UNL     1       8.554  25.669  28.950  0.00  0.00    +0.000 A 
ATOM     11  C   UNL     1       8.267  26.426  30.090  0.00  0.00    +0.000 A 
ATOM     12  C   UNL     1       7.986  25.804  31.306  0.00  0.00    +0.000 A 
ATOM     13  C   UNL     1       7.991  24.415  31.394  0.00  0.00    +0.000 A 
BRANCH  10  14
ATOM     14  O   UNL     1       8.819  26.352  27.790  0.00  0.00    +0.000 OA
ATOM     15  C   UNL     1       8.401  25.737  26.604  0.00  0.00    +0.000 C 
ENDBRANCH  10  14
BRANCH  11  16
ATOM     16  O   UNL     1       8.242  27.793  30.088  0.00  0.00    +0.000 OA
ATOM     17  H   UNL     1       8.484  28.142  30.962  0.00  0.00    +0.000 HD
ENDBRANCH  11  16
ENDBRANCH   7   8
ENDBRANCH   2   6
BRANCH   4  18
ATOM     18  C   UNL     1      10.678  16.737  29.861  0.00  0.00    +0.000 C 
ATOM     19  C   UNL     1      10.840  15.594  30.197  0.00  0.00    +0.000 C 
BRANCH  19  20
ATOM     20  C   UNL     1      11.030  14.240  30.600  0.00  0.00    +0.000 A 
ATOM     21  C   UNL     1       9.925  13.419  30.819  0.00  0.00    +0.000 A 
ATOM     22  C   UNL     1      10.094  12.089  31.214  0.00  0.00    +0.000 A 
ATOM     23  C   UNL     1      11.393  11.600  31.383  0.00  0.00    +0.000 A 
ATOM     24  C   UNL     1      12.501  12.417  31.165  0.00  0.00    +0.000 A 
ATOM     25  C   UNL     1      12.318  13.739  30.773  0.00  0.00    +0.000 A 
BRANCH  22  26
ATOM     26  O   UNL     1       9.062  11.214  31.451  0.00  0.00    +0.000 OA
ATOM     27  C   UNL     1       7.773  11.761  31.361  0.00  0.00    +0.000 C 
ENDBRANCH  22  26
BRANCH  23  28
ATOM     28  O   UNL     1      11.580  10.301  31.770  0.00  0.00    +0.000 OA
ATOM     29  H   UNL     1      12.049  10.294  32.624  0.00  0.00    +0.000 HD
ENDBRANCH  23  28
ENDBRANCH  19  20
ENDBRANCH   4  18
TORSDOF 8
ENDMDL
MODEL 3
REMARK VINA RESULT:      -5.6     24.288     29.852
REMARK  Name = Curcumin.pdbqt.pdb
REMARK  8 active torsions:
REMARK  status: ('A' for Active; 'I' for Inactive)
REMARK    1  A    between atoms: C_2  and  C_4
REMARK    2  A    between atoms: C_5  and  C_6
REMARK    3  A    between atoms: C_8  and  O_12
REMARK    4  A    between atoms: C_9  and  O_14
REMARK    5  A    between atoms: C_16  and  C_18
REMARK    6  A    between atoms: C_19  and  C_20
REMARK    7  A    between atoms: C_22  and  O_26
REMARK    8  A    between atoms: C_23  and  O_28
REMARK                            x       y       z     vdW  Elec       q    Type
REMARK                         _______ _______ _______ _____ _____    ______ ____
ROOT
ATOM      1  C   UNL     1      20.493  29.033   6.645  0.00  0.00    +0.000 C 
ATOM      2  C   UNL     1      20.191  29.171   8.031  0.00  0.00    +0.000 C 
ATOM      3  O   UNL     1      20.562  28.314   8.819  0.00  0.00    +0.000 OA
ATOM      4  C   UNL     1      20.794  28.893   5.259  0.00  0.00    +0.000 C 
ATOM      5  O   UNL     1      20.178  29.554   4.435  0.00  0.00    +0.000 OA
ENDROOT
BRANCH   2   6
ATOM      6  C   UNL     1      19.452  30.319   8.493  0.00  0.00    +0.000 C 
ATOM      7  C   UNL     1      18.837  31.277   8.876  0.00  0.00    +0.000 C 
BRANCH   7   8
ATOM      8  C   UNL     1      18.105  32.413   9.332  0.00  0.00    +0.000 A 
ATOM      9  C   UNL     1      16.966  32.237  10.115  0.00  0.00    +0.000 A 
ATOM     10  C   UNL     1      16.236  33.340  10.571  0.00  0.00    +0.000 A 
ATOM     11  C   UNL     1      16.671  34.623  10.224  0.00  0.00    +0.000 A 
ATOM     12  C   UNL     1      17.810  34.801   9.440  0.00  0.00    +0.000 A 
ATOM     13  C   UNL     1      18.527  33.695   8.993  0.00  0.00    +0.000 A 
BRANCH  10  14
ATOM     14  O   UNL     1      15.108  33.244  11.346  0.00  0.00    +0.000 OA
ATOM     15  C   UNL     1      14.652  31.948  11.614  0.00  0.00    +0.000 C 
ENDBRANCH  10  14
BRANCH  11  16
ATOM     16  O   UNL     1      16.023  35.759  10.622  0.00  0.00    +0.000 OA
ATOM     17  H   UNL     1      15.099  35.752  10.320  0.00  0.00    +0.000 HD
ENDBRANCH  11  16
ENDBRANCH   7   8
ENDBRANCH   2   6
BRANCH   4  18
ATOM     18  C   UNL     1      21.820  27.973   4.839  0.00  0.00    +0.000 C 
ATOM     19  C   UNL     1      22.679  27.209   4.488  0.00  0.00    +0.000 C 
BRANCH  19  20
ATOM     20  C   UNL     1      23.699  26.306   4.071  0.00  0.00    +0.000 A 
ATOM     21  C   UNL     1      24.905  26.251   4.769  0.00  0.00    +0.000 A 
ATOM     22  C   UNL     1      25.917  25.371   4.373  0.00  0.00    +0.000 A 
ATOM     23  C   UNL     1      25.694  24.548   3.266  0.00  0.00    +0.000 A 
ATOM     24  C   UNL     1      24.490  24.599   2.565  0.00  0.00    +0.000 A 
ATOM     25  C   UNL     1      23.492  25.480   2.969  0.00  0.00    +0.000 A 
BRANCH  22  26
ATOM     26  O   UNL     1      27.132  25.254   5.003  0.00  0.00    +0.000 OA
ATOM     27  C   UNL     1      27.411  26.236   5.966  0.00  0.00    +0.000 C 
ENDBRANCH  22  26
BRANCH  23  28
ATOM     28  O   UNL     1      26.672  23.680   2.863  0.00  0.00    +0.000 OA
ATOM     29  H   UNL     1      26.319  22.773   2.902  0.00  0.00    +0.000 HD
ENDBRANCH  23  28
ENDBRANCH  19  20
ENDBRANCH   4  18
TORSDOF 8
ENDMDL
MODEL 4
REMARK VINA RESULT:      -5.6     14.114     15.044
REMARK  Name = Curcumin.pdbqt.pdb
REMARK  8 active torsions:
REMARK  status: ('A' for Active; 'I' for Inactive)
REMARK    1  A    between atoms: C_2  and  C_4
REMARK    2  A    between atoms: C_5  and  C_6
REMARK    3  A    between atoms: C_8  and  O_12
REMARK    4  A    between atoms: C_9  and  O_14
REMARK    5  A    between atoms: C_16  and  C_18
REMARK    6  A    between atoms: C_19  and  C_20
REMARK    7  A    between atoms: C_22  and  O_26
REMARK    8  A    between atoms: C_23  and  O_28
REMARK                            x       y       z     vdW  Elec       q    Type
REMARK                         _______ _______ _______ _____ _____    ______ ____
ROOT
ATOM      1  C   UNL     1      23.198  18.970  26.549  0.00  0.00    +0.000 C 
ATOM      2  C   UNL     1      22.319  17.979  26.022  0.00  0.00    +0.000 C 
ATOM      3  O   UNL     1      21.341  18.321  25.373  0.00  0.00    +0.000 OA
ATOM      4  C   UNL     1      24.074  19.961  27.079  0.00  0.00    +0.000 C 
ATOM      5  O   UNL     1      24.857  19.666  27.970  0.00  0.00    +0.000 OA
ENDROOT
BRANCH   2   6
ATOM      6  C   UNL     1      22.590  16.583  26.254  0.00  0.00    +0.000 C 
ATOM      7  C   UNL     1      22.819  15.420  26.448  0.00  0.00    +0.000 C 
BRANCH   7   8
ATOM      8  C   UNL     1      23.088  14.039  26.681  0.00  0.00    +0.000 A 
ATOM      9  C   UNL     1      23.163  13.155  25.606  0.00  0.00    +0.000 A 
ATOM     10  C   UNL     1      23.427  11.798  25.815  0.00  0.00    +0.000 A 
ATOM     11  C   UNL     1      23.613  11.344  27.124  0.00  0.00    +0.000 A 
ATOM     12  C   UNL     1      23.538  12.226  28.202  0.00  0.00    +0.000 A 
ATOM     13  C   UNL     1      23.275  13.575  27.979  0.00  0.00    +0.000 A 
BRANCH  10  14
ATOM     14  O   UNL     1      23.516  10.871  24.807  0.00  0.00    +0.000 OA
ATOM     15  C   UNL     1      24.348  11.207  23.733  0.00  0.00    +0.000 C 
ENDBRANCH  10  14
BRANCH  11  16
ATOM     16  O   UNL     1      23.875  10.037  27.427  0.00  0.00    +0.000 OA
ATOM     17  H   UNL     1      23.928   9.501  26.618  0.00  0.00    +0.000 HD
ENDBRANCH  11  16
ENDBRANCH   7   8
ENDBRANCH   2   6
BRANCH   4  18
ATOM     18  C   UNL     1      24.030  21.305  26.560  0.00  0.00    +0.000 C 
ATOM     19  C   UNL     1      23.990  22.425  26.126  0.00  0.00    +0.000 C 
BRANCH  19  20
ATOM     20  C   UNL     1      23.938  23.753  25.611  0.00  0.00    +0.000 A 
ATOM     21  C   UNL     1      24.649  24.077  24.456  0.00  0.00    +0.000 A 
ATOM     22  C   UNL     1      24.609  25.374  23.937  0.00  0.00    +0.000 A 
ATOM     23  C   UNL     1      23.843  26.338  24.598  0.00  0.00    +0.000 A 
ATOM     24  C   UNL     1      23.130  26.019  25.753  0.00  0.00    +0.000 A 
ATOM     25  C   UNL     1      23.179  24.724  26.259  0.00  0.00    +0.000 A 
BRANCH  22  26
ATOM     26  O   UNL     1      25.279  25.777  22.807  0.00  0.00    +0.000 OA
ATOM     27  C   UNL     1      26.677  25.831  22.918  0.00  0.00    +0.000 C 
ENDBRANCH  22  26
BRANCH  23  28
ATOM     28  O   UNL     1      23.791  27.613  24.106  0.00  0.00    +0.000 OA
ATOM     29  H   UNL     1      24.667  27.845  23.748  0.00  0.00    +0.000 HD
ENDBRANCH  23  28
ENDBRANCH  19  20
ENDBRANCH   4  18
TORSDOF 8
ENDMDL
MODEL 5
REMARK VINA RESULT:      -5.6     13.362     18.520
REMARK  Name = Curcumin.pdbqt.pdb
REMARK  8 active torsions:
REMARK  status: ('A' for Active; 'I' for Inactive)
REMARK    1  A    between atoms: C_2  and  C_4
REMARK    2  A    between atoms: C_5  and  C_6
REMARK    3  A    between atoms: C_8  and  O_12
REMARK    4  A    between atoms: C_9  and  O_14
REMARK    5  A    between atoms: C_16  and  C_18
REMARK    6  A    between atoms: C_19  and  C_20
REMARK    7  A    between atoms: C_22  and  O_26
REMARK    8  A    between atoms: C_23  and  O_28
REMARK                            x       y       z     vdW  Elec       q    Type
REMARK                         _______ _______ _______ _____ _____    ______ ____
ROOT
ATOM      1  C   UNL     1      -1.673  16.962  22.209  0.00  0.00    +0.000 C 
ATOM      2  C   UNL     1      -1.369  18.141  21.468  0.00  0.00    +0.000 C 
ATOM      3  O   UNL     1      -0.458  18.126  20.654  0.00  0.00    +0.000 OA
ATOM      4  C   UNL     1      -1.974  15.784  22.952  0.00  0.00    +0.000 C 
ATOM      5  O   UNL     1      -2.652  15.862  23.967  0.00  0.00    +0.000 OA
ENDROOT
BRANCH   2   6
ATOM      6  C   UNL     1      -2.138  19.340  21.682  0.00  0.00    +0.000 C 
ATOM      7  C   UNL     1      -2.782  20.339  21.859  0.00  0.00    +0.000 C 
BRANCH   7   8
ATOM      8  C   UNL     1      -3.545  21.526  22.073  0.00  0.00    +0.000 A 
ATOM      9  C   UNL     1      -3.645  22.478  21.061  0.00  0.00    +0.000 A 
ATOM     10  C   UNL     1      -4.389  23.647  21.252  0.00  0.00    +0.000 A 
ATOM     11  C   UNL     1      -5.030  23.841  22.479  0.00  0.00    +0.000 A 
ATOM     12  C   UNL     1      -4.931  22.890  23.494  0.00  0.00    +0.000 A 
ATOM     13  C   UNL     1      -4.187  21.730  23.290  0.00  0.00    +0.000 A 
BRANCH  10  14
ATOM     14  O   UNL     1      -4.533  24.627  20.303  0.00  0.00    +0.000 OA
ATOM     15  C   UNL     1      -4.525  24.200  18.970  0.00  0.00    +0.000 C 
ENDBRANCH  10  14
BRANCH  11  16
ATOM     16  O   UNL     1      -5.779  24.951  22.759  0.00  0.00    +0.000 OA
ATOM     17  H   UNL     1      -5.269  25.583  23.293  0.00  0.00    +0.000 HD
ENDBRANCH  11  16
ENDBRANCH   7   8
ENDBRANCH   2   6
BRANCH   4  18
ATOM     18  C   UNL     1      -1.478  14.508  22.502  0.00  0.00    +0.000 C 
ATOM     19  C   UNL     1      -1.064  13.446  22.122  0.00  0.00    +0.000 C 
BRANCH  19  20
ATOM     20  C   UNL     1      -0.574  12.187  21.668  0.00  0.00    +0.000 A 
ATOM     21  C   UNL     1       0.286  11.445  22.476  0.00  0.00    +0.000 A 
ATOM     22  C   UNL     1       0.776  10.208  22.046  0.00  0.00    +0.000 A 
ATOM     23  C   UNL     1       0.386   9.732  20.791  0.00  0.00    +0.000 A 
ATOM     24  C   UNL     1      -0.474  10.470  19.979  0.00  0.00    +0.000 A 
ATOM     25  C   UNL     1      -0.954  11.700  20.419  0.00  0.00    +0.000 A 
BRANCH  22  26
ATOM     26  O   UNL     1       1.625   9.414  22.778  0.00  0.00    +0.000 OA
ATOM     27  C   UNL     1       2.081   9.968  23.984  0.00  0.00    +0.000 C 
ENDBRANCH  22  26
BRANCH  23  28
ATOM     28  O   UNL     1       0.854   8.524  20.352  0.00  0.00    +0.000 OA
ATOM     29  H   UNL     1       0.740   8.478  19.385  0.00  0.00    +0.000 HD
ENDBRANCH  23  28
ENDBRANCH  19  20
ENDBRANCH   4  18
TORSDOF 8
ENDMDL
MODEL 6
REMARK VINA RESULT:      -5.5     24.272     28.277
REMARK  Name = Curcumin.pdbqt.pdb
REMARK  8 active torsions:
REMARK  status: ('A' for Active; 'I' for Inactive)
REMARK    1  A    between atoms: C_2  and  C_4
REMARK    2  A    between atoms: C_5  and  C_6
REMARK    3  A    between atoms: C_8  and  O_12
REMARK    4  A    between atoms: C_9  and  O_14
REMARK    5  A    between atoms: C_16  and  C_18
REMARK    6  A    between atoms: C_19  and  C_20
REMARK    7  A    between atoms: C_22  and  O_26
REMARK    8  A    between atoms: C_23  and  O_28
REMARK                            x       y       z     vdW  Elec       q    Type
REMARK                         _______ _______ _______ _____ _____    ______ ____
ROOT
ATOM      1  C   UNL     1      20.771  29.050   6.789  0.00  0.00    +0.000 C 
ATOM      2  C   UNL     1      21.225  28.953   5.442  0.00  0.00    +0.000 C 
ATOM      3  O   UNL     1      20.736  29.675   4.585  0.00  0.00    +0.000 OA
ATOM      4  C   UNL     1      20.314  29.145   8.135  0.00  0.00    +0.000 C 
ATOM      5  O   UNL     1      20.555  28.242   8.924  0.00  0.00    +0.000 OA
ENDROOT
BRANCH   2   6
ATOM      6  C   UNL     1      22.258  28.009   5.099  0.00  0.00    +0.000 C 
ATOM      7  C   UNL     1      23.120  27.223   4.814  0.00  0.00    +0.000 C 
BRANCH   7   8
ATOM      8  C   UNL     1      24.144  26.288   4.478  0.00  0.00    +0.000 A 
ATOM      9  C   UNL     1      25.310  26.231   5.237  0.00  0.00    +0.000 A 
ATOM     10  C   UNL     1      26.324  25.320   4.922  0.00  0.00    +0.000 A 
ATOM     11  C   UNL     1      26.144  24.467   3.828  0.00  0.00    +0.000 A 
ATOM     12  C   UNL     1      24.977  24.522   3.066  0.00  0.00    +0.000 A 
ATOM     13  C   UNL     1      23.976  25.434   3.392  0.00  0.00    +0.000 A 
BRANCH  10  14
ATOM     14  O   UNL     1      27.497  25.206   5.624  0.00  0.00    +0.000 OA
ATOM     15  C   UNL     1      27.386  25.231   7.018  0.00  0.00    +0.000 C 
ENDBRANCH  10  14
BRANCH  11  16
ATOM     16  O   UNL     1      27.077  23.546   3.443  0.00  0.00    +0.000 OA
ATOM     17  H   UNL     1      27.756  23.437   4.130  0.00  0.00    +0.000 HD
ENDBRANCH  11  16
ENDBRANCH   7   8
ENDBRANCH   2   6
BRANCH   4  18
ATOM     18  C   UNL     1      19.571  30.305   8.558  0.00  0.00    +0.000 C 
ATOM     19  C   UNL     1      18.951  31.274   8.906  0.00  0.00    +0.000 C 
BRANCH  19  20
ATOM     20  C   UNL     1      18.215  32.424   9.316  0.00  0.00    +0.000 A 
ATOM     21  C   UNL     1      17.079  32.275  10.110  0.00  0.00    +0.000 A 
ATOM     22  C   UNL     1      16.347  33.393  10.520  0.00  0.00    +0.000 A 
ATOM     23  C   UNL     1      16.777  34.661  10.120  0.00  0.00    +0.000 A 
ATOM     24  C   UNL     1      17.912  34.815   9.326  0.00  0.00    +0.000 A 
ATOM     25  C   UNL     1      18.632  33.694   8.924  0.00  0.00    +0.000 A 
BRANCH  22  26
ATOM     26  O   UNL     1      15.218  33.335  11.301  0.00  0.00    +0.000 OA
ATOM     27  C   UNL     1      14.796  32.045  11.661  0.00  0.00    +0.000 C 
ENDBRANCH  22  26
BRANCH  23  28
ATOM     28  O   UNL     1      16.074  35.767  10.511  0.00  0.00    +0.000 OA
ATOM     29  H   UNL     1      15.212  35.765  10.056  0.00  0.00    +0.000 HD
ENDBRANCH  23  28
ENDBRANCH  19  20
ENDBRANCH   4  18
TORSDOF 8
ENDMDL
MODEL 7
REMARK VINA RESULT:      -5.5     13.319     14.495
REMARK  Name = Curcumin.pdbqt.pdb
REMARK  8 active torsions:
REMARK  status: ('A' for Active; 'I' for Inactive)
REMARK    1  A    between atoms: C_2  and  C_4
REMARK    2  A    between atoms: C_5  and  C_6
REMARK    3  A    between atoms: C_8  and  O_12
REMARK    4  A    between atoms: C_9  and  O_14
REMARK    5  A    between atoms: C_16  and  C_18
REMARK    6  A    between atoms: C_19  and  C_20
REMARK    7  A    between atoms: C_22  and  O_26
REMARK    8  A    between atoms: C_23  and  O_28
REMARK                            x       y       z     vdW  Elec       q    Type
REMARK                         _______ _______ _______ _____ _____    ______ ____
ROOT
ATOM      1  C   UNL     1      -1.639  17.157  22.227  0.00  0.00    +0.000 C 
ATOM      2  C   UNL     1      -1.842  16.018  23.059  0.00  0.00    +0.000 C 
ATOM      3  O   UNL     1      -2.418  16.145  24.129  0.00  0.00    +0.000 OA
ATOM      4  C   UNL     1      -1.434  18.298  21.398  0.00  0.00    +0.000 C 
ATOM      5  O   UNL     1      -0.606  18.254  20.499  0.00  0.00    +0.000 OA
ENDROOT
BRANCH   2   6
ATOM      6  C   UNL     1      -1.369  14.725  22.632  0.00  0.00    +0.000 C 
ATOM      7  C   UNL     1      -0.977  13.647  22.276  0.00  0.00    +0.000 C 
BRANCH   7   8
ATOM      8  C   UNL     1      -0.510  12.368  21.851  0.00  0.00    +0.000 A 
ATOM      9  C   UNL     1       0.075  11.501  22.771  0.00  0.00    +0.000 A 
ATOM     10  C   UNL     1       0.538  10.243  22.373  0.00  0.00    +0.000 A 
ATOM     11  C   UNL     1       0.403   9.872  21.031  0.00  0.00    +0.000 A 
ATOM     12  C   UNL     1      -0.182  10.738  20.108  0.00  0.00    +0.000 A 
ATOM     13  C   UNL     1      -0.639  11.987  20.519  0.00  0.00    +0.000 A 
BRANCH  10  14
ATOM     14  O   UNL     1       1.122   9.337  23.222  0.00  0.00    +0.000 OA
ATOM     15  C   UNL     1       2.321   9.740  23.822  0.00  0.00    +0.000 C 
ENDBRANCH  10  14
BRANCH  11  16
ATOM     16  O   UNL     1       0.825   8.665  20.548  0.00  0.00    +0.000 OA
ATOM     17  H   UNL     1       1.794   8.645  20.473  0.00  0.00    +0.000 HD
ENDBRANCH  11  16
ENDBRANCH   7   8
ENDBRANCH   2   6
BRANCH   4  18
ATOM     18  C   UNL     1      -2.202  19.495  21.625  0.00  0.00    +0.000 C 
ATOM     19  C   UNL     1      -2.846  20.493  21.811  0.00  0.00    +0.000 C 
BRANCH  19  20
ATOM     20  C   UNL     1      -3.610  21.676  22.027  0.00  0.00    +0.000 A 
ATOM     21  C   UNL     1      -3.765  22.601  20.995  0.00  0.00    +0.000 A 
ATOM     22  C   UNL     1      -4.511  23.766  21.191  0.00  0.00    +0.000 A 
ATOM     23  C   UNL     1      -5.099  23.985  22.440  0.00  0.00    +0.000 A 
ATOM     24  C   UNL     1      -4.947  23.064  23.475  0.00  0.00    +0.000 A 
ATOM     25  C   UNL     1      -4.201  21.908  23.267  0.00  0.00    +0.000 A 
BRANCH  22  26
ATOM     26  O   UNL     1      -4.713  24.727  20.230  0.00  0.00    +0.000 OA
ATOM     27  C   UNL     1      -4.495  24.315  18.906  0.00  0.00    +0.000 C 
ENDBRANCH  22  26
BRANCH  23  28
ATOM     28  O   UNL     1      -5.833  25.120  22.652  0.00  0.00    +0.000 OA
ATOM     29  H   UNL     1      -5.224  25.850  22.865  0.00  0.00    +0.000 HD
ENDBRANCH  23  28
ENDBRANCH  19  20
ENDBRANCH   4  18
TORSDOF 8
ENDMDL
MODEL 8
REMARK VINA RESULT:      -5.5      5.971      7.821
REMARK  Name = Curcumin.pdbqt.pdb
REMARK  8 active torsions:
REMARK  status: ('A' for Active; 'I' for Inactive)
REMARK    1  A    between atoms: C_2  and  C_4
REMARK    2  A    between atoms: C_5  and  C_6
REMARK    3  A    between atoms: C_8  and  O_12
REMARK    4  A    between atoms: C_9  and  O_14
REMARK    5  A    between atoms: C_16  and  C_18
REMARK    6  A    between atoms: C_19  and  C_20
REMARK    7  A    between atoms: C_22  and  O_26
REMARK    8  A    between atoms: C_23  and  O_28
REMARK                            x       y       z     vdW  Elec       q    Type
REMARK                         _______ _______ _______ _____ _____    ______ ____
ROOT
ATOM      1  C   UNL     1       5.151  22.261  30.560  0.00  0.00    +0.000 C 
ATOM      2  C   UNL     1       5.720  21.191  31.310  0.00  0.00    +0.000 C 
ATOM      3  O   UNL     1       5.085  20.688  32.225  0.00  0.00    +0.000 OA
ATOM      4  C   UNL     1       4.582  23.333  29.814  0.00  0.00    +0.000 C 
ATOM      5  O   UNL     1       5.302  24.040  29.123  0.00  0.00    +0.000 OA
ENDROOT
BRANCH   2   6
ATOM      6  C   UNL     1       7.038  20.708  30.983  0.00  0.00    +0.000 C 
ATOM      7  C   UNL     1       8.137  20.305  30.713  0.00  0.00    +0.000 C 
BRANCH   7   8
ATOM      8  C   UNL     1       9.441  19.825  30.391  0.00  0.00    +0.000 A 
ATOM      9  C   UNL     1       9.590  18.614  29.719  0.00  0.00    +0.000 A 
ATOM     10  C   UNL     1      10.860  18.128  29.395  0.00  0.00    +0.000 A 
ATOM     11  C   UNL     1      11.980  18.882  29.760  0.00  0.00    +0.000 A 
ATOM     12  C   UNL     1      11.834  20.095  30.432  0.00  0.00    +0.000 A 
ATOM     13  C   UNL     1      10.563  20.567  30.748  0.00  0.00    +0.000 A 
BRANCH  10  14
ATOM     14  O   UNL     1      11.084  16.946  28.735  0.00  0.00    +0.000 OA
ATOM     15  C   UNL     1      10.988  15.782  29.506  0.00  0.00    +0.000 C 
ENDBRANCH  10  14
BRANCH  11  16
ATOM     16  O   UNL     1      13.261  18.490  29.487  0.00  0.00    +0.000 OA
ATOM     17  H   UNL     1      13.276  17.579  29.147  0.00  0.00    +0.000 HD
ENDBRANCH  11  16
ENDBRANCH   7   8
ENDBRANCH   2   6
BRANCH   4  18
ATOM     18  C   UNL     1       3.164  23.576  29.878  0.00  0.00    +0.000 C 
ATOM     19  C   UNL     1       1.980  23.776  29.936  0.00  0.00    +0.000 C 
BRANCH  19  20
ATOM     20  C   UNL     1       0.576  24.011  30.007  0.00  0.00    +0.000 A 
ATOM     21  C   UNL     1       0.087  25.316  29.954  0.00  0.00    +0.000 A 
ATOM     22  C   UNL     1      -1.287  25.564  30.023  0.00  0.00    +0.000 A 
ATOM     23  C   UNL     1      -2.159  24.479  30.144  0.00  0.00    +0.000 A 
ATOM     24  C   UNL     1      -1.675  23.172  30.198  0.00  0.00    +0.000 A 
ATOM     25  C   UNL     1      -0.305  22.939  30.129  0.00  0.00    +0.000 A 
BRANCH  22  26
ATOM     26  O   UNL     1      -1.851  26.816  29.978  0.00  0.00    +0.000 OA
ATOM     27  C   UNL     1      -1.167  27.814  30.689  0.00  0.00    +0.000 C 
ENDBRANCH  22  26
BRANCH  23  28
ATOM     28  O   UNL     1      -3.507  24.700  30.213  0.00  0.00    +0.000 OA
ATOM     29  H   UNL     1      -3.785  25.185  29.415  0.00  0.00    +0.000 HD
ENDBRANCH  23  28
ENDBRANCH  19  20
ENDBRANCH   4  18
TORSDOF 8
ENDMDL
MODEL 9
REMARK VINA RESULT:      -5.4     24.615     28.694
REMARK  Name = Curcumin.pdbqt.pdb
REMARK  8 active torsions:
REMARK  status: ('A' for Active; 'I' for Inactive)
REMARK    1  A    between atoms: C_2  and  C_4
REMARK    2  A    between atoms: C_5  and  C_6
REMARK    3  A    between atoms: C_8  and  O_12
REMARK    4  A    between atoms: C_9  and  O_14
REMARK    5  A    between atoms: C_16  and  C_18
REMARK    6  A    between atoms: C_19  and  C_20
REMARK    7  A    between atoms: C_22  and  O_26
REMARK    8  A    between atoms: C_23  and  O_28
REMARK                            x       y       z     vdW  Elec       q    Type
REMARK                         _______ _______ _______ _____ _____    ______ ____
ROOT
ATOM      1  C   UNL     1      20.799  31.063   8.699  0.00  0.00    +0.000 C 
ATOM      2  C   UNL     1      21.085  32.424   9.006  0.00  0.00    +0.000 C 
ATOM      3  O   UNL     1      21.413  33.191   8.113  0.00  0.00    +0.000 OA
ATOM      4  C   UNL     1      20.517  29.700   8.391  0.00  0.00    +0.000 C 
ATOM      5  O   UNL     1      20.497  28.867   9.285  0.00  0.00    +0.000 OA
ENDROOT
BRANCH   2   6
ATOM      6  C   UNL     1      20.983  32.889  10.367  0.00  0.00    +0.000 C 
ATOM      7  C   UNL     1      20.896  33.277  11.500  0.00  0.00    +0.000 C 
BRANCH   7   8
ATOM      8  C   UNL     1      20.792  33.736  12.847  0.00  0.00    +0.000 A 
ATOM      9  C   UNL     1      21.944  34.054  13.563  0.00  0.00    +0.000 A 
ATOM     10  C   UNL     1      21.862  34.506  14.884  0.00  0.00    +0.000 A 
ATOM     11  C   UNL     1      20.600  34.631  15.473  0.00  0.00    +0.000 A 
ATOM     12  C   UNL     1      19.445  34.313  14.759  0.00  0.00    +0.000 A 
ATOM     13  C   UNL     1      19.542  33.864  13.444  0.00  0.00    +0.000 A 
BRANCH  10  14
ATOM     14  O   UNL     1      22.951  34.839  15.649  0.00  0.00    +0.000 OA
ATOM     15  C   UNL     1      23.707  33.770  16.144  0.00  0.00    +0.000 C 
ENDBRANCH  10  14
BRANCH  11  16
ATOM     16  O   UNL     1      20.419  35.064  16.757  0.00  0.00    +0.000 OA
ATOM     17  H   UNL     1      20.345  34.310  17.366  0.00  0.00    +0.000 HD
ENDBRANCH  11  16
ENDBRANCH   7   8
ENDBRANCH   2   6
BRANCH   4  18
ATOM     18  C   UNL     1      20.258  29.314   7.027  0.00  0.00    +0.000 C 
ATOM     19  C   UNL     1      20.046  28.994   5.888  0.00  0.00    +0.000 C 
BRANCH  19  20
ATOM     20  C   UNL     1      19.798  28.616   4.537  0.00  0.00    +0.000 A 
ATOM     21  C   UNL     1      18.686  29.126   3.867  0.00  0.00    +0.000 A 
ATOM     22  C   UNL     1      18.428  28.765   2.541  0.00  0.00    +0.000 A 
ATOM     23  C   UNL     1      19.306  27.886   1.902  0.00  0.00    +0.000 A 
ATOM     24  C   UNL     1      20.419  27.373   2.567  0.00  0.00    +0.000 A 
ATOM     25  C   UNL     1      20.664  27.740   3.887  0.00  0.00    +0.000 A 
BRANCH  22  26
ATOM     26  O   UNL     1      17.358  29.220   1.809  0.00  0.00    +0.000 OA
ATOM     27  C   UNL     1      17.259  30.615   1.685  0.00  0.00    +0.000 C 
ENDBRANCH  22  26
BRANCH  23  28
ATOM     28  O   UNL     1      19.071  27.521   0.605  0.00  0.00    +0.000 OA
ATOM     29  H   UNL     1      19.424  26.623   0.464  0.00  0.00    +0.000 HD
ENDBRANCH  23  28
ENDBRANCH  19  20
ENDBRANCH   4  18
TORSDOF 8
ENDMDL
