MODEL 1
REMARK VINA RESULT:      -9.2      0.000      0.000
REMARK  Name = Cyclosporin_A.pdbqt.pdb
REMARK  4 active torsions:
REMARK  status: ('A' for Active; 'I' for Inactive)
REMARK    1  A    between atoms: N_13  and  C_36
REMARK    2  A    between atoms: C_36  and  O_70
REMARK    3  A    between atoms: C_72  and  C_73
REMARK    4  A    between atoms: C_75  and  C_76
REMARK                            x       y       z     vdW  Elec       q    Type
REMARK                         _______ _______ _______ _____ _____    ______ ____
ROOT
ATOM      1  O   UNL     1      15.899  31.380  32.289  0.00  0.00    +0.000 OA
ATOM      2  O   UNL     1      13.009  34.766  29.740  0.00  0.00    +0.000 OA
ATOM      3  O   UNL     1      11.048  31.985  26.372  0.00  0.00    +0.000 OA
ATOM      4  O   UNL     1      17.950  27.684  29.812  0.00  0.00    +0.000 OA
ATOM      5  O   UNL     1       9.349  33.156  31.006  0.00  0.00    +0.000 OA
ATOM      6  O   UNL     1       6.486  22.297  32.007  0.00  0.00    +0.000 OA
ATOM      7  O   UNL     1      15.719  26.611  34.808  0.00  0.00    +0.000 OA
ATOM      8  O   UNL     1      11.126  21.440  30.591  0.00  0.00    +0.000 OA
ATOM      9  O   UNL     1       4.525  26.631  31.086  0.00  0.00    +0.000 OA
ATOM     10  O   UNL     1      14.137  22.899  32.973  0.00  0.00    +0.000 OA
ATOM     11  O   UNL     1       6.967  29.873  32.548  0.00  0.00    +0.000 OA
ATOM     12  N   UNL     1      13.872  33.059  30.047  0.00  0.00    +0.000 NA
ATOM     13  N   UNL     1      15.329  30.324  30.205  0.00  0.00    +0.000 NA
ATOM     14  N   UNL     1      11.627  33.308  27.733  0.00  0.00    +0.000 NA
ATOM     15  N   UNL     1       8.939  31.948  28.752  0.00  0.00    +0.000 NA
ATOM     16  N   UNL     1      15.898  27.429  31.105  0.00  0.00    +0.000 NA
ATOM     17  N   UNL     1       6.787  23.686  30.130  0.00  0.00    +0.000 N 
ATOM     18  N   UNL     1       9.754  23.302  30.953  0.00  0.00    +0.000 N 
ATOM     19  N   UNL     1      12.364  23.337  32.228  0.00  0.00    +0.000 NA
ATOM     20  N   UNL     1      14.001  26.530  33.319  0.00  0.00    +0.000 NA
ATOM     21  N   UNL     1       8.596  29.701  30.682  0.00  0.00    +0.000 NA
ATOM     22  N   UNL     1       6.940  26.622  31.131  0.00  0.00    +0.000 NA
ATOM     23  C   UNL     1      14.326  32.479  31.196  0.00  0.00    +0.000 C 
ATOM     24  C   UNL     1      12.560  32.674  28.448  0.00  0.00    +0.000 C 
ATOM     25  C   UNL     1      16.506  29.618  30.049  0.00  0.00    +0.000 C 
ATOM     26  C   UNL     1      14.614  33.191  32.346  0.00  0.00    +0.000 C 
ATOM     27  C   UNL     1      13.381  32.214  27.305  0.00  0.00    +0.000 C 
ATOM     28  C   UNL     1      15.124  31.357  31.125  0.00  0.00    +0.000 C 
ATOM     29  C   UNL     1      12.712  33.545  29.473  0.00  0.00    +0.000 C 
ATOM     30  C   UNL     1       9.631  32.893  28.178  0.00  0.00    +0.000 C 
ATOM     31  C   UNL     1      10.723  32.336  27.580  0.00  0.00    +0.000 C 
ATOM     32  C   UNL     1      16.615  28.129  30.111  0.00  0.00    +0.000 C 
ATOM     33  C   UNL     1      14.430  34.526  31.869  0.00  0.00    +0.000 C 
ATOM     34  C   UNL     1      15.702  32.603  32.901  0.00  0.00    +0.000 C 
ATOM     35  C   UNL     1      13.888  34.322  30.609  0.00  0.00    +0.000 C 
ATOM     36  C   UNL     1      12.091  32.936  26.442  0.00  0.00    +0.000 C 
ATOM     37  C   UNL     1      16.374  27.144  32.410  0.00  0.00    +0.000 C 
ATOM     38  C   UNL     1       8.653  22.724  31.530  0.00  0.00    +0.000 A 
ATOM     39  C   UNL     1       9.384  32.169  29.985  0.00  0.00    +0.000 C 
ATOM     40  C   UNL     1       5.798  24.665  30.405  0.00  0.00    +0.000 C 
ATOM     41  C   UNL     1      12.254  23.071  30.904  0.00  0.00    +0.000 C 
ATOM     42  C   UNL     1       7.693  32.642  28.333  0.00  0.00    +0.000 C 
ATOM     43  C   UNL     1       8.575  21.816  32.630  0.00  0.00    +0.000 A 
ATOM     44  C   UNL     1       4.350  23.790  29.756  0.00  0.00    +0.000 C 
ATOM     45  C   UNL     1       8.992  30.936  30.726  0.00  0.00    +0.000 C 
ATOM     46  C   UNL     1      12.531  21.596  30.799  0.00  0.00    +0.000 C 
ATOM     47  C   UNL     1      17.778  27.350  32.561  0.00  0.00    +0.000 C 
ATOM     48  C   UNL     1       7.334  22.973  31.163  0.00  0.00    +0.000 A 
ATOM     49  C   UNL     1      15.507  26.802  33.396  0.00  0.00    +0.000 C 
ATOM     50  C   UNL     1      10.919  22.709  30.817  0.00  0.00    +0.000 C 
ATOM     51  C   UNL     1       5.757  25.941  30.915  0.00  0.00    +0.000 C 
ATOM     52  C   UNL     1      13.753  25.238  32.672  0.00  0.00    +0.000 C 
ATOM     53  C   UNL     1       9.685  21.259  33.482  0.00  0.00    +0.000 C 
ATOM     54  C   UNL     1       7.247  21.591  32.887  0.00  0.00    +0.000 A 
ATOM     55  C   UNL     1      13.607  23.913  32.187  0.00  0.00    +0.000 C 
ATOM     56  C   UNL     1       7.039  27.824  31.599  0.00  0.00    +0.000 C 
ATOM     57  C   UNL     1       9.058  32.052  31.515  0.00  0.00    +0.000 C 
ATOM     58  C   UNL     1       5.598  23.226  29.679  0.00  0.00    +0.000 C 
ATOM     59  C   UNL     1      18.759  27.736  31.992  0.00  0.00    +0.000 C 
ATOM     60  C   UNL     1       7.701  29.185  31.512  0.00  0.00    +0.000 C 
ATOM     61  C   UNL     1      13.021  21.995  32.701  0.00  0.00    +0.000 C 
ATOM     62  C   UNL     1      14.527  26.440  34.526  0.00  0.00    +0.000 C 
ATOM     63  C   UNL     1       6.517  28.717  32.474  0.00  0.00    +0.000 C 
ATOM     64  H   UNL     1      14.935  27.761  31.170  0.00  0.00    +0.000 HD
ATOM     65  H   UNL     1       9.719  24.311  30.830  0.00  0.00    +0.000 HD
ATOM     66  H   UNL     1       8.790  29.182  29.830  0.00  0.00    +0.000 HD
ATOM     67  H   UNL     1       7.688  26.248  30.554  0.00  0.00    +0.000 HD
ATOM     68  C   UNL     1      17.680  30.162  30.215  0.00  0.00    +0.000 C 
ATOM     69  C   UNL     1      18.995  29.710  30.518  0.00  0.00    +0.000 C 
ATOM     70  C   UNL     1      18.967  28.241  30.667  0.00  0.00    +0.000 C 
ATOM     71  C   UNL     1      14.571  32.799  26.285  0.00  0.00    +0.000 C 
ATOM     72  C   UNL     1      15.603  32.115  25.793  0.00  0.00    +0.000 C 
ATOM     73  C   UNL     1      13.278  33.085  25.840  0.00  0.00    +0.000 C 
ATOM     74  C   UNL     1       8.473  33.599  27.614  0.00  0.00    +0.000 C 
ATOM     75  C   UNL     1       7.295  34.078  28.170  0.00  0.00    +0.000 C 
ATOM     76  C   UNL     1       6.123  34.554  27.285  0.00  0.00    +0.000 C 
ATOM     77  C   UNL     1       6.842  33.288  29.210  0.00  0.00    +0.000 C 
ATOM     78  C   UNL     1      13.704  20.510  30.709  0.00  0.00    +0.000 C 
ATOM     79  C   UNL     1      13.826  19.304  30.161  0.00  0.00    +0.000 C 
ATOM     80  C   UNL     1      13.666  21.006  32.013  0.00  0.00    +0.000 C 
ATOM     81  C   UNL     1       3.300  24.585  29.973  0.00  0.00    +0.000 C 
ATOM     82  C   UNL     1       1.916  24.206  29.563  0.00  0.00    +0.000 C 
ATOM     83  C   UNL     1       3.584  25.827  30.593  0.00  0.00    +0.000 C 
ENDROOT
BRANCH  69  84
ATOM     84  C   UNL     1      20.058  30.505  31.007  0.00  0.00    +0.000 C 
ATOM     85  C   UNL     1      20.961  31.184  31.415  0.00  0.00    +0.000 C 
BRANCH  85  86
ATOM     86  C   UNL     1      22.115  32.050  31.931  0.00  0.00    +0.000 C 
ATOM     87  C   UNL     1      23.119  32.804  32.374  0.00  0.00    +0.000 C 
ENDBRANCH  85  86
ENDBRANCH  69  84
BRANCH  13  88
ATOM     88  C   UNL     1      14.144  29.776  29.565  0.00  0.00    +0.000 C 
BRANCH  88  89
ATOM     89  O   UNL     1      13.074  29.254  28.980  0.00  0.00    +0.000 OA
ATOM     90  H   UNL     1      13.002  29.582  28.066  0.00  0.00    +0.000 HD
ENDBRANCH  88  89
ENDBRANCH  13  88
TORSDOF 4
ENDMDL
MODEL 2
REMARK VINA RESULT:      -9.1      9.561     15.647
REMARK  Name = Cyclosporin_A.pdbqt.pdb
REMARK  4 active torsions:
REMARK  status: ('A' for Active; 'I' for Inactive)
REMARK    1  A    between atoms: N_13  and  C_36
REMARK    2  A    between atoms: C_36  and  O_70
REMARK    3  A    between atoms: C_72  and  C_73
REMARK    4  A    between atoms: C_75  and  C_76
REMARK                            x       y       z     vdW  Elec       q    Type
REMARK                         _______ _______ _______ _____ _____    ______ ____
ROOT
ATOM      1  O   UNL     1      10.170  13.518  34.840  0.00  0.00    +0.000 OA
ATOM      2  O   UNL     1      11.283  18.437  33.907  0.00  0.00    +0.000 OA
ATOM      3  O   UNL     1      10.218  18.780  29.253  0.00  0.00    +0.000 OA
ATOM      4  O   UNL     1      10.899  10.216  31.294  0.00  0.00    +0.000 OA
ATOM      5  O   UNL     1       7.300  19.613  33.317  0.00  0.00    +0.000 OA
ATOM      6  O   UNL     1      -0.848  14.103  27.808  0.00  0.00    +0.000 OA
ATOM      7  O   UNL     1       6.259   9.831  34.362  0.00  0.00    +0.000 OA
ATOM      8  O   UNL     1       2.586  10.626  27.186  0.00  0.00    +0.000 OA
ATOM      9  O   UNL     1       0.560  18.606  28.914  0.00  0.00    +0.000 OA
ATOM     10  O   UNL     1       4.179   8.906  30.559  0.00  0.00    +0.000 OA
ATOM     11  O   UNL     1       3.170  18.705  32.346  0.00  0.00    +0.000 OA
ATOM     12  N   UNL     1      10.819  16.615  33.447  0.00  0.00    +0.000 NA
ATOM     13  N   UNL     1      10.297  13.724  32.447  0.00  0.00    +0.000 NA
ATOM     14  N   UNL     1      10.607  18.925  31.193  0.00  0.00    +0.000 NA
ATOM     15  N   UNL     1       7.544  19.647  30.739  0.00  0.00    +0.000 NA
ATOM     16  N   UNL     1       8.707  11.165  31.785  0.00  0.00    +0.000 NA
ATOM     17  N   UNL     1       1.046  15.284  27.060  0.00  0.00    +0.000 N 
ATOM     18  N   UNL     1       2.442  12.745  28.170  0.00  0.00    +0.000 N 
ATOM     19  N   UNL     1       3.583  10.625  29.797  0.00  0.00    +0.000 NA
ATOM     20  N   UNL     1       5.810  11.347  32.726  0.00  0.00    +0.000 NA
ATOM     21  N   UNL     1       5.145  17.908  31.070  0.00  0.00    +0.000 NA
ATOM     22  N   UNL     1       2.175  16.896  29.463  0.00  0.00    +0.000 NA
ATOM     23  C   UNL     1      10.235  15.626  34.183  0.00  0.00    +0.000 C 
ATOM     24  C   UNL     1      10.544  17.670  31.647  0.00  0.00    +0.000 C 
ATOM     25  C   UNL     1      10.808  12.465  32.199  0.00  0.00    +0.000 C 
ATOM     26  C   UNL     1      10.215  15.617  35.566  0.00  0.00    +0.000 C 
ATOM     27  C   UNL     1      11.448  17.068  30.640  0.00  0.00    +0.000 C 
ATOM     28  C   UNL     1      10.227  14.332  33.704  0.00  0.00    +0.000 C 
ATOM     29  C   UNL     1      10.579  17.895  32.981  0.00  0.00    +0.000 C 
ATOM     30  C   UNL     1       8.804  19.936  30.912  0.00  0.00    +0.000 C 
ATOM     31  C   UNL     1       9.562  18.946  30.361  0.00  0.00    +0.000 C 
ATOM     32  C   UNL     1      10.070  11.376  31.489  0.00  0.00    +0.000 C 
ATOM     33  C   UNL     1      11.033  16.757  35.837  0.00  0.00    +0.000 C 
ATOM     34  C   UNL     1      10.363  14.324  35.945  0.00  0.00    +0.000 C 
ATOM     35  C   UNL     1      11.204  17.311  34.577  0.00  0.00    +0.000 C 
ATOM     36  C   UNL     1      11.390  18.668  30.034  0.00  0.00    +0.000 C 
ATOM     37  C   UNL     1       8.212  10.320  32.810  0.00  0.00    +0.000 C 
ATOM     38  C   UNL     1       1.094  12.988  28.105  0.00  0.00    +0.000 A 
ATOM     39  C   UNL     1       7.331  19.180  31.965  0.00  0.00    +0.000 C 
ATOM     40  C   UNL     1       0.745  16.565  27.590  0.00  0.00    +0.000 C 
ATOM     41  C   UNL     1       4.047  10.851  28.543  0.00  0.00    +0.000 C 
ATOM     42  C   UNL     1       7.275  21.087  30.493  0.00  0.00    +0.000 C 
ATOM     43  C   UNL     1       0.003  12.163  28.514  0.00  0.00    +0.000 A 
ATOM     44  C   UNL     1      -0.366  17.154  26.285  0.00  0.00    +0.000 C 
ATOM     45  C   UNL     1       6.038  18.446  31.841  0.00  0.00    +0.000 C 
ATOM     46  C   UNL     1       3.517   9.695  27.739  0.00  0.00    +0.000 C 
ATOM     47  C   UNL     1       9.198   9.437  33.344  0.00  0.00    +0.000 C 
ATOM     48  C   UNL     1       0.516  14.169  27.652  0.00  0.00    +0.000 A 
ATOM     49  C   UNL     1       6.938  10.455  33.255  0.00  0.00    +0.000 C 
ATOM     50  C   UNL     1       2.994  11.565  27.995  0.00  0.00    +0.000 C 
ATOM     51  C   UNL     1       1.124  17.322  28.673  0.00  0.00    +0.000 C 
ATOM     52  C   UNL     1       5.297  10.816  31.461  0.00  0.00    +0.000 C 
ATOM     53  C   UNL     1       0.029  10.803  29.159  0.00  0.00    +0.000 C 
ATOM     54  C   UNL     1      -1.151  12.880  28.323  0.00  0.00    +0.000 A 
ATOM     55  C   UNL     1       4.752  10.150  30.332  0.00  0.00    +0.000 C 
ATOM     56  C   UNL     1       2.632  17.516  30.502  0.00  0.00    +0.000 C 
ATOM     57  C   UNL     1       6.263  18.953  33.092  0.00  0.00    +0.000 C 
ATOM     58  C   UNL     1       0.227  15.921  26.192  0.00  0.00    +0.000 C 
ATOM     59  C   UNL     1      10.360   9.147  33.288  0.00  0.00    +0.000 C 
ATOM     60  C   UNL     1       3.840  17.986  31.289  0.00  0.00    +0.000 C 
ATOM     61  C   UNL     1       3.085   9.151  29.619  0.00  0.00    +0.000 C 
ATOM     62  C   UNL     1       5.502  10.621  33.785  0.00  0.00    +0.000 C 
ATOM     63  C   UNL     1       2.296  18.265  31.580  0.00  0.00    +0.000 C 
ATOM     64  H   UNL     1       8.192  12.046  31.807  0.00  0.00    +0.000 HD
ATOM     65  H   UNL     1       3.010  13.476  28.593  0.00  0.00    +0.000 HD
ATOM     66  H   UNL     1       5.441  17.634  30.137  0.00  0.00    +0.000 HD
ATOM     67  H   UNL     1       2.784  16.264  28.952  0.00  0.00    +0.000 HD
ATOM     68  C   UNL     1      11.807  11.965  32.874  0.00  0.00    +0.000 C 
ATOM     69  C   UNL     1      12.309  10.666  33.166  0.00  0.00    +0.000 C 
ATOM     70  C   UNL     1      11.445   9.665  32.509  0.00  0.00    +0.000 C 
ATOM     71  C   UNL     1      13.086  16.877  30.364  0.00  0.00    +0.000 C 
ATOM     72  C   UNL     1      13.683  15.817  29.820  0.00  0.00    +0.000 C 
ATOM     73  C   UNL     1      12.584  18.084  29.871  0.00  0.00    +0.000 C 
ATOM     74  C   UNL     1       8.675  21.360  30.573  0.00  0.00    +0.000 C 
ATOM     75  C   UNL     1       7.839  22.369  31.030  0.00  0.00    +0.000 C 
ATOM     76  C   UNL     1       7.745  23.726  30.302  0.00  0.00    +0.000 C 
ATOM     77  C   UNL     1       6.584  21.901  31.372  0.00  0.00    +0.000 C 
ATOM     78  C   UNL     1       3.793   8.168  27.345  0.00  0.00    +0.000 C 
ATOM     79  C   UNL     1       3.525   7.410  26.285  0.00  0.00    +0.000 C 
ATOM     80  C   UNL     1       3.358   8.205  28.670  0.00  0.00    +0.000 C 
ATOM     81  C   UNL     1      -0.775  18.368  26.658  0.00  0.00    +0.000 C 
ATOM     82  C   UNL     1      -1.706  19.186  25.825  0.00  0.00    +0.000 C 
ATOM     83  C   UNL     1      -0.249  18.848  27.882  0.00  0.00    +0.000 C 
ENDROOT
BRANCH  69  84
ATOM     84  C   UNL     1      13.198  10.334  34.215  0.00  0.00    +0.000 C 
ATOM     85  C   UNL     1      13.959  10.051  35.100  0.00  0.00    +0.000 C 
BRANCH  85  86
ATOM     86  C   UNL     1      14.933   9.689  36.226  0.00  0.00    +0.000 C 
ATOM     87  C   UNL     1      15.778   9.368  37.205  0.00  0.00    +0.000 C 
ENDBRANCH  85  86
ENDBRANCH  69  84
BRANCH  13  88
ATOM     88  C   UNL     1       9.531  14.345  31.378  0.00  0.00    +0.000 C 
BRANCH  88  89
ATOM     89  O   UNL     1       8.820  14.890  30.400  0.00  0.00    +0.000 OA
ATOM     90  H   UNL     1       9.146  15.788  30.213  0.00  0.00    +0.000 HD
ENDBRANCH  88  89
ENDBRANCH  13  88
TORSDOF 4
ENDMDL
MODEL 3
REMARK VINA RESULT:      -8.9      4.048     12.831
REMARK  Name = Cyclosporin_A.pdbqt.pdb
REMARK  4 active torsions:
REMARK  status: ('A' for Active; 'I' for Inactive)
REMARK    1  A    between atoms: N_13  and  C_36
REMARK    2  A    between atoms: C_36  and  O_70
REMARK    3  A    between atoms: C_72  and  C_73
REMARK    4  A    between atoms: C_75  and  C_76
REMARK                            x       y       z     vdW  Elec       q    Type
REMARK                         _______ _______ _______ _____ _____    ______ ____
ROOT
ATOM      1  O   UNL     1      12.154  18.192  33.827  0.00  0.00    +0.000 OA
ATOM      2  O   UNL     1      16.791  18.522  35.995  0.00  0.00    +0.000 OA
ATOM      3  O   UNL     1      18.963  21.659  33.105  0.00  0.00    +0.000 OA
ATOM      4  O   UNL     1      11.786  18.616  28.959  0.00  0.00    +0.000 OA
ATOM      5  O   UNL     1      16.291  22.464  37.340  0.00  0.00    +0.000 OA
ATOM      6  O   UNL     1      11.513  31.121  31.926  0.00  0.00    +0.000 OA
ATOM      7  O   UNL     1       7.977  21.163  32.138  0.00  0.00    +0.000 OA
ATOM      8  O   UNL     1      10.671  27.812  28.375  0.00  0.00    +0.000 OA
ATOM      9  O   UNL     1      14.926  30.179  35.234  0.00  0.00    +0.000 OA
ATOM     10  O   UNL     1       8.338  24.566  29.320  0.00  0.00    +0.000 OA
ATOM     11  O   UNL     1      14.358  26.342  37.120  0.00  0.00    +0.000 OA
ATOM     12  N   UNL     1      15.461  18.817  34.619  0.00  0.00    +0.000 NA
ATOM     13  N   UNL     1      13.578  19.224  32.186  0.00  0.00    +0.000 NA
ATOM     14  N   UNL     1      18.250  20.450  34.507  0.00  0.00    +0.000 NA
ATOM     15  N   UNL     1      17.730  23.449  35.426  0.00  0.00    +0.000 NA
ATOM     16  N   UNL     1      11.323  20.462  30.485  0.00  0.00    +0.000 NA
ATOM     17  N   UNL     1      13.580  30.028  31.646  0.00  0.00    +0.000 N 
ATOM     18  N   UNL     1      11.700  27.855  30.477  0.00  0.00    +0.000 N 
ATOM     19  N   UNL     1       9.764  25.738  30.015  0.00  0.00    +0.000 NA
ATOM     20  N   UNL     1       9.757  22.576  32.030  0.00  0.00    +0.000 NA
ATOM     21  N   UNL     1      15.242  25.075  35.177  0.00  0.00    +0.000 NA
ATOM     22  N   UNL     1      14.045  28.221  34.129  0.00  0.00    +0.000 NA
ATOM     23  C   UNL     1      14.098  18.810  34.675  0.00  0.00    +0.000 C 
ATOM     24  C   UNL     1      17.051  20.074  34.054  0.00  0.00    +0.000 C 
ATOM     25  C   UNL     1      12.975  18.673  31.073  0.00  0.00    +0.000 C 
ATOM     26  C   UNL     1      13.380  18.187  35.680  0.00  0.00    +0.000 C 
ATOM     27  C   UNL     1      17.492  19.648  32.707  0.00  0.00    +0.000 C 
ATOM     28  C   UNL     1      13.366  18.811  33.505  0.00  0.00    +0.000 C 
ATOM     29  C   UNL     1      16.556  19.467  35.158  0.00  0.00    +0.000 C 
ATOM     30  C   UNL     1      18.390  22.325  35.411  0.00  0.00    +0.000 C 
ATOM     31  C   UNL     1      18.247  21.746  34.185  0.00  0.00    +0.000 C 
ATOM     32  C   UNL     1      12.207  19.450  30.053  0.00  0.00    +0.000 C 
ATOM     33  C   UNL     1      14.443  17.552  36.392  0.00  0.00    +0.000 C 
ATOM     34  C   UNL     1      12.279  17.656  35.094  0.00  0.00    +0.000 C 
ATOM     35  C   UNL     1      15.571  18.083  35.785  0.00  0.00    +0.000 C 
ATOM     36  C   UNL     1      18.977  20.260  33.300  0.00  0.00    +0.000 C 
ATOM     37  C   UNL     1       9.959  20.269  30.818  0.00  0.00    +0.000 C 
ATOM     38  C   UNL     1      11.346  29.099  30.931  0.00  0.00    +0.000 A 
ATOM     39  C   UNL     1      16.666  22.985  36.074  0.00  0.00    +0.000 C 
ATOM     40  C   UNL     1      14.145  30.271  32.924  0.00  0.00    +0.000 C 
ATOM     41  C   UNL     1      10.766  25.954  29.128  0.00  0.00    +0.000 C 
ATOM     42  C   UNL     1      18.822  24.051  36.234  0.00  0.00    +0.000 C 
ATOM     43  C   UNL     1      10.058  29.714  30.984  0.00  0.00    +0.000 A 
ATOM     44  C   UNL     1      14.781  31.943  32.637  0.00  0.00    +0.000 C 
ATOM     45  C   UNL     1      15.632  24.037  35.850  0.00  0.00    +0.000 C 
ATOM     46  C   UNL     1      10.083  26.583  27.944  0.00  0.00    +0.000 C 
ATOM     47  C   UNL     1       9.441  19.009  30.390  0.00  0.00    +0.000 C 
ATOM     48  C   UNL     1      12.218  30.020  31.503  0.00  0.00    +0.000 A 
ATOM     49  C   UNL     1       9.296  21.194  31.556  0.00  0.00    +0.000 C 
ATOM     50  C   UNL     1      11.136  27.249  29.456  0.00  0.00    +0.000 C 
ATOM     51  C   UNL     1      14.323  29.574  34.097  0.00  0.00    +0.000 C 
ATOM     52  C   UNL     1       9.785  23.514  30.904  0.00  0.00    +0.000 C 
ATOM     53  C   UNL     1       8.720  29.153  30.580  0.00  0.00    +0.000 C 
ATOM     54  C   UNL     1      10.206  30.931  31.599  0.00  0.00    +0.000 A 
ATOM     55  C   UNL     1       9.628  24.391  29.801  0.00  0.00    +0.000 C 
ATOM     56  C   UNL     1      14.176  27.452  35.161  0.00  0.00    +0.000 C 
ATOM     57  C   UNL     1      15.472  23.352  37.024  0.00  0.00    +0.000 C 
ATOM     58  C   UNL     1      14.153  31.254  31.632  0.00  0.00    +0.000 C 
ATOM     59  C   UNL     1       9.742  17.974  29.866  0.00  0.00    +0.000 C 
ATOM     60  C   UNL     1      14.638  26.121  35.721  0.00  0.00    +0.000 C 
ATOM     61  C   UNL     1       8.537  25.994  29.075  0.00  0.00    +0.000 C 
ATOM     62  C   UNL     1       8.545  22.227  32.417  0.00  0.00    +0.000 C 
ATOM     63  C   UNL     1      14.048  27.378  36.508  0.00  0.00    +0.000 C 
ATOM     64  H   UNL     1      11.755  21.054  31.194  0.00  0.00    +0.000 HD
ATOM     65  H   UNL     1      12.273  27.295  31.103  0.00  0.00    +0.000 HD
ATOM     66  H   UNL     1      15.636  25.200  34.248  0.00  0.00    +0.000 HD
ATOM     67  H   UNL     1      14.088  27.817  33.198  0.00  0.00    +0.000 HD
ATOM     68  C   UNL     1      12.679  17.405  30.988  0.00  0.00    +0.000 C 
ATOM     69  C   UNL     1      11.768  16.604  30.243  0.00  0.00    +0.000 C 
ATOM     70  C   UNL     1      10.986  17.483  29.351  0.00  0.00    +0.000 C 
ATOM     71  C   UNL     1      18.181  18.318  31.963  0.00  0.00    +0.000 C 
ATOM     72  C   UNL     1      17.914  17.864  30.739  0.00  0.00    +0.000 C 
ATOM     73  C   UNL     1      19.126  19.195  32.503  0.00  0.00    +0.000 C 
ATOM     74  C   UNL     1      19.577  22.845  36.105  0.00  0.00    +0.000 C 
ATOM     75  C   UNL     1      19.749  23.538  37.295  0.00  0.00    +0.000 C 
ATOM     76  C   UNL     1      21.098  24.196  37.655  0.00  0.00    +0.000 C 
ATOM     77  C   UNL     1      18.694  24.387  37.569  0.00  0.00    +0.000 C 
ATOM     78  C   UNL     1       9.254  26.256  26.614  0.00  0.00    +0.000 C 
ATOM     79  C   UNL     1       9.110  26.846  25.430  0.00  0.00    +0.000 C 
ATOM     80  C   UNL     1       8.425  26.028  27.713  0.00  0.00    +0.000 C 
ATOM     81  C   UNL     1      15.330  32.341  33.787  0.00  0.00    +0.000 C 
ATOM     82  C   UNL     1      15.974  33.678  33.942  0.00  0.00    +0.000 C 
ATOM     83  C   UNL     1      15.290  31.402  34.847  0.00  0.00    +0.000 C 
ENDROOT
BRANCH  69  84
ATOM     84  C   UNL     1      11.361  15.288  30.565  0.00  0.00    +0.000 C 
ATOM     85  C   UNL     1      11.023  14.168  30.838  0.00  0.00    +0.000 C 
BRANCH  85  86
ATOM     86  C   UNL     1      10.596  12.738  31.185  0.00  0.00    +0.000 C 
ATOM     87  C   UNL     1      10.221  11.497  31.489  0.00  0.00    +0.000 C 
ENDBRANCH  85  86
ENDBRANCH  69  84
BRANCH  13  88
ATOM     88  C   UNL     1      14.264  20.493  32.002  0.00  0.00    +0.000 C 
BRANCH  88  89
ATOM     89  O   UNL     1      14.868  21.661  31.827  0.00  0.00    +0.000 OA
ATOM     90  H   UNL     1      14.214  22.341  31.588  0.00  0.00    +0.000 HD
ENDBRANCH  88  89
ENDBRANCH  13  88
TORSDOF 4
ENDMDL
MODEL 4
REMARK VINA RESULT:      -8.8      7.331     16.880
REMARK  Name = Cyclosporin_A.pdbqt.pdb
REMARK  4 active torsions:
REMARK  status: ('A' for Active; 'I' for Inactive)
REMARK    1  A    between atoms: N_13  and  C_36
REMARK    2  A    between atoms: C_36  and  O_70
REMARK    3  A    between atoms: C_72  and  C_73
REMARK    4  A    between atoms: C_75  and  C_76
REMARK                            x       y       z     vdW  Elec       q    Type
REMARK                         _______ _______ _______ _____ _____    ______ ____
ROOT
ATOM      1  O   UNL     1      -1.210  20.521  32.526  0.00  0.00    +0.000 OA
ATOM      2  O   UNL     1      -1.928  15.754  30.773  0.00  0.00    +0.000 OA
ATOM      3  O   UNL     1       1.180  15.609  27.135  0.00  0.00    +0.000 OA
ATOM      4  O   UNL     1      -0.077  24.066  29.340  0.00  0.00    +0.000 OA
ATOM      5  O   UNL     1       1.823  14.338  32.003  0.00  0.00    +0.000 OA
ATOM      6  O   UNL     1      11.790  19.571  31.394  0.00  0.00    +0.000 OA
ATOM      7  O   UNL     1       2.597  23.945  34.232  0.00  0.00    +0.000 OA
ATOM      8  O   UNL     1       9.172  23.311  29.543  0.00  0.00    +0.000 OA
ATOM      9  O   UNL     1       9.872  15.122  31.335  0.00  0.00    +0.000 OA
ATOM     10  O   UNL     1       6.247  24.940  31.922  0.00  0.00    +0.000 OA
ATOM     11  O   UNL     1       5.956  15.008  33.142  0.00  0.00    +0.000 OA
ATOM     12  N   UNL     1      -1.239  17.564  30.736  0.00  0.00    +0.000 NA
ATOM     13  N   UNL     1      -0.208  20.464  30.340  0.00  0.00    +0.000 NA
ATOM     14  N   UNL     1      -0.077  15.379  28.653  0.00  0.00    +0.000 NA
ATOM     15  N   UNL     1       2.814  14.470  29.614  0.00  0.00    +0.000 NA
ATOM     16  N   UNL     1       1.596  22.938  30.711  0.00  0.00    +0.000 NA
ATOM     17  N   UNL     1      10.427  18.571  29.755  0.00  0.00    +0.000 N 
ATOM     18  N   UNL     1       8.763  21.134  30.300  0.00  0.00    +0.000 N 
ATOM     19  N   UNL     1       7.069  23.231  31.382  0.00  0.00    +0.000 NA
ATOM     20  N   UNL     1       3.706  22.499  32.870  0.00  0.00    +0.000 NA
ATOM     21  N   UNL     1       4.839  16.015  31.167  0.00  0.00    +0.000 NA
ATOM     22  N   UNL     1       8.249  16.906  31.214  0.00  0.00    +0.000 NA
ATOM     23  C   UNL     1      -1.034  18.465  31.739  0.00  0.00    +0.000 C 
ATOM     24  C   UNL     1      -0.190  16.598  29.188  0.00  0.00    +0.000 C 
ATOM     25  C   UNL     1      -0.499  21.768  29.991  0.00  0.00    +0.000 C 
ATOM     26  C   UNL     1      -1.663  18.392  32.969  0.00  0.00    +0.000 C 
ATOM     27  C   UNL     1      -0.495  17.320  27.932  0.00  0.00    +0.000 C 
ATOM     28  C   UNL     1      -0.756  19.780  31.430  0.00  0.00    +0.000 C 
ATOM     29  C   UNL     1      -0.854  16.299  30.329  0.00  0.00    +0.000 C 
ATOM     30  C   UNL     1       1.611  14.262  29.157  0.00  0.00    +0.000 C 
ATOM     31  C   UNL     1       1.234  15.333  28.403  0.00  0.00    +0.000 C 
ATOM     32  C   UNL     1       0.523  22.841  29.799  0.00  0.00    +0.000 C 
ATOM     33  C   UNL     1      -2.552  17.298  32.732  0.00  0.00    +0.000 C 
ATOM     34  C   UNL     1      -1.926  19.667  33.343  0.00  0.00    +0.000 C 
ATOM     35  C   UNL     1      -2.132  16.832  31.495  0.00  0.00    +0.000 C 
ATOM     36  C   UNL     1      -0.217  15.757  27.289  0.00  0.00    +0.000 C 
ATOM     37  C   UNL     1       1.582  23.686  31.915  0.00  0.00    +0.000 C 
ATOM     38  C   UNL     1       9.976  20.801  30.848  0.00  0.00    +0.000 A 
ATOM     39  C   UNL     1       2.445  14.850  30.833  0.00  0.00    +0.000 C 
ATOM     40  C   UNL     1      10.400  17.244  30.254  0.00  0.00    +0.000 C 
ATOM     41  C   UNL     1       7.239  23.112  30.043  0.00  0.00    +0.000 C 
ATOM     42  C   UNL     1       3.117  13.032  29.401  0.00  0.00    +0.000 C 
ATOM     43  C   UNL     1      10.777  21.522  31.785  0.00  0.00    +0.000 A 
ATOM     44  C   UNL     1      11.971  16.655  29.570  0.00  0.00    +0.000 C 
ATOM     45  C   UNL     1       3.669  15.496  31.386  0.00  0.00    +0.000 C 
ATOM     46  C   UNL     1       8.124  24.272  29.677  0.00  0.00    +0.000 C 
ATOM     47  C   UNL     1       0.492  24.604  32.002  0.00  0.00    +0.000 C 
ATOM     48  C   UNL     1      10.657  19.610  30.617  0.00  0.00    +0.000 A 
ATOM     49  C   UNL     1       2.493  23.436  32.888  0.00  0.00    +0.000 C 
ATOM     50  C   UNL     1       8.400  22.358  29.989  0.00  0.00    +0.000 C 
ATOM     51  C   UNL     1       9.531  16.454  30.970  0.00  0.00    +0.000 C 
ATOM     52  C   UNL     1       4.770  23.065  32.038  0.00  0.00    +0.000 C 
ATOM     53  C   UNL     1      10.499  22.840  32.456  0.00  0.00    +0.000 C 
ATOM     54  C   UNL     1      11.860  20.738  32.092  0.00  0.00    +0.000 A 
ATOM     55  C   UNL     1       5.803  23.756  31.352  0.00  0.00    +0.000 C 
ATOM     56  C   UNL     1       7.336  16.261  31.865  0.00  0.00    +0.000 C 
ATOM     57  C   UNL     1       2.867  14.935  32.342  0.00  0.00    +0.000 C 
ATOM     58  C   UNL     1      11.534  17.931  29.317  0.00  0.00    +0.000 C 
ATOM     59  C   UNL     1      -0.497  24.977  31.438  0.00  0.00    +0.000 C 
ATOM     60  C   UNL     1       5.885  15.833  31.959  0.00  0.00    +0.000 C 
ATOM     61  C   UNL     1       7.644  24.674  31.582  0.00  0.00    +0.000 C 
ATOM     62  C   UNL     1       3.508  23.138  34.008  0.00  0.00    +0.000 C 
ATOM     63  C   UNL     1       7.102  15.429  32.909  0.00  0.00    +0.000 C 
ATOM     64  H   UNL     1       2.009  22.023  30.895  0.00  0.00    +0.000 HD
ATOM     65  H   UNL     1       8.039  20.422  30.348  0.00  0.00    +0.000 HD
ATOM     66  H   UNL     1       5.023  16.363  30.230  0.00  0.00    +0.000 HD
ATOM     67  H   UNL     1       7.973  17.608  30.534  0.00  0.00    +0.000 HD
ATOM     68  C   UNL     1      -1.679  22.297  30.164  0.00  0.00    +0.000 C 
ATOM     69  C   UNL     1      -2.214  23.608  30.297  0.00  0.00    +0.000 C 
ATOM     70  C   UNL     1      -1.108  24.582  30.204  0.00  0.00    +0.000 C 
ATOM     71  C   UNL     1      -1.806  17.641  26.943  0.00  0.00    +0.000 C 
ATOM     72  C   UNL     1      -2.041  18.770  26.276  0.00  0.00    +0.000 C 
ATOM     73  C   UNL     1      -1.174  16.432  26.640  0.00  0.00    +0.000 C 
ATOM     74  C   UNL     1       1.834  12.854  28.798  0.00  0.00    +0.000 C 
ATOM     75  C   UNL     1       2.322  11.764  29.505  0.00  0.00    +0.000 C 
ATOM     76  C   UNL     1       2.699  10.448  28.792  0.00  0.00    +0.000 C 
ATOM     77  C   UNL     1       3.286  12.122  30.428  0.00  0.00    +0.000 C 
ATOM     78  C   UNL     1       8.118  25.835  29.330  0.00  0.00    +0.000 C 
ATOM     79  C   UNL     1       8.878  26.633  28.584  0.00  0.00    +0.000 C 
ATOM     80  C   UNL     1       7.880  25.690  30.698  0.00  0.00    +0.000 C 
ATOM     81  C   UNL     1      12.115  15.395  29.987  0.00  0.00    +0.000 C 
ATOM     82  C   UNL     1      13.298  14.564  29.616  0.00  0.00    +0.000 C 
ATOM     83  C   UNL     1      11.060  14.884  30.782  0.00  0.00    +0.000 C 
ENDROOT
BRANCH  69  84
ATOM     84  C   UNL     1      -3.479  23.941  30.837  0.00  0.00    +0.000 C 
ATOM     85  C   UNL     1      -4.551  24.232  31.295  0.00  0.00    +0.000 C 
BRANCH  85  86
ATOM     86  C   UNL     1      -5.917  24.607  31.879  0.00  0.00    +0.000 C 
ATOM     87  C   UNL     1      -7.102  24.932  32.392  0.00  0.00    +0.000 C 
ENDBRANCH  85  86
ENDBRANCH  69  84
BRANCH  13  88
ATOM     88  C   UNL     1       0.947  19.853  29.702  0.00  0.00    +0.000 C 
BRANCH  88  89
ATOM     89  O   UNL     1       2.007  19.319  29.111  0.00  0.00    +0.000 OA
ATOM     90  H   UNL     1       2.638  20.018  28.863  0.00  0.00    +0.000 HD
ENDBRANCH  88  89
ENDBRANCH  13  88
TORSDOF 4
ENDMDL
MODEL 5
REMARK VINA RESULT:      -8.8     15.080     22.070
REMARK  Name = Cyclosporin_A.pdbqt.pdb
REMARK  4 active torsions:
REMARK  status: ('A' for Active; 'I' for Inactive)
REMARK    1  A    between atoms: N_13  and  C_36
REMARK    2  A    between atoms: C_36  and  O_70
REMARK    3  A    between atoms: C_72  and  C_73
REMARK    4  A    between atoms: C_75  and  C_76
REMARK                            x       y       z     vdW  Elec       q    Type
REMARK                         _______ _______ _______ _____ _____    ______ ____
ROOT
ATOM      1  O   UNL     1      27.225  12.917  22.884  0.00  0.00    +0.000 OA
ATOM      2  O   UNL     1      23.999  12.544  26.854  0.00  0.00    +0.000 OA
ATOM      3  O   UNL     1      25.759  15.867  29.816  0.00  0.00    +0.000 OA
ATOM      4  O   UNL     1      31.912  14.059  23.746  0.00  0.00    +0.000 OA
ATOM      5  O   UNL     1      22.202  16.282  26.224  0.00  0.00    +0.000 OA
ATOM      6  O   UNL     1      27.150  25.993  23.339  0.00  0.00    +0.000 OA
ATOM      7  O   UNL     1      29.360  16.439  19.396  0.00  0.00    +0.000 OA
ATOM      8  O   UNL     1      31.277  23.306  23.242  0.00  0.00    +0.000 OA
ATOM      9  O   UNL     1      23.321  24.306  25.783  0.00  0.00    +0.000 OA
ATOM     10  O   UNL     1      31.436  20.166  20.599  0.00  0.00    +0.000 OA
ATOM     11  O   UNL     1      22.256  20.301  24.589  0.00  0.00    +0.000 OA
ATOM     12  N   UNL     1      25.585  13.143  25.919  0.00  0.00    +0.000 NA
ATOM     13  N   UNL     1      28.298  14.049  24.716  0.00  0.00    +0.000 NA
ATOM     14  N   UNL     1      24.775  14.535  28.724  0.00  0.00    +0.000 NA
ATOM     15  N   UNL     1      23.541  17.406  28.134  0.00  0.00    +0.000 NA
ATOM     16  N   UNL     1      30.266  15.702  23.009  0.00  0.00    +0.000 NA
ATOM     17  N   UNL     1      27.102  24.781  25.357  0.00  0.00    +0.000 N 
ATOM     18  N   UNL     1      29.012  22.962  23.723  0.00  0.00    +0.000 N 
ATOM     19  N   UNL     1      30.248  21.103  21.864  0.00  0.00    +0.000 NA
ATOM     20  N   UNL     1      28.819  17.698  21.212  0.00  0.00    +0.000 NA
ATOM     21  N   UNL     1      24.111  19.254  25.864  0.00  0.00    +0.000 NA
ATOM     22  N   UNL     1      24.899  22.606  25.111  0.00  0.00    +0.000 NA
ATOM     23  C   UNL     1      25.855  13.243  24.586  0.00  0.00    +0.000 C 
ATOM     24  C   UNL     1      25.552  14.329  27.657  0.00  0.00    +0.000 C 
ATOM     25  C   UNL     1      29.596  13.715  24.379  0.00  0.00    +0.000 C 
ATOM     26  C   UNL     1      25.160  12.546  23.614  0.00  0.00    +0.000 C 
ATOM     27  C   UNL     1      26.807  14.064  28.396  0.00  0.00    +0.000 C 
ATOM     28  C   UNL     1      27.149  13.472  24.166  0.00  0.00    +0.000 C 
ATOM     29  C   UNL     1      24.707  13.615  26.878  0.00  0.00    +0.000 C 
ATOM     30  C   UNL     1      23.578  16.243  28.725  0.00  0.00    +0.000 C 
ATOM     31  C   UNL     1      24.879  15.860  28.861  0.00  0.00    +0.000 C 
ATOM     32  C   UNL     1      30.631  14.691  23.924  0.00  0.00    +0.000 C 
ATOM     33  C   UNL     1      24.327  11.728  24.438  0.00  0.00    +0.000 C 
ATOM     34  C   UNL     1      26.066  12.198  22.668  0.00  0.00    +0.000 C 
ATOM     35  C   UNL     1      24.558  12.244  25.705  0.00  0.00    +0.000 C 
ATOM     36  C   UNL     1      25.790  14.458  29.716  0.00  0.00    +0.000 C 
ATOM     37  C   UNL     1      30.299  15.578  21.597  0.00  0.00    +0.000 C 
ATOM     38  C   UNL     1      28.463  24.155  23.327  0.00  0.00    +0.000 A 
ATOM     39  C   UNL     1      23.245  16.946  26.923  0.00  0.00    +0.000 C 
ATOM     40  C   UNL     1      25.705  24.791  25.600  0.00  0.00    +0.000 C 
ATOM     41  C   UNL     1      30.827  21.358  23.062  0.00  0.00    +0.000 C 
ATOM     42  C   UNL     1      22.414  17.792  29.021  0.00  0.00    +0.000 C 
ATOM     43  C   UNL     1      28.619  24.862  22.095  0.00  0.00    +0.000 A 
ATOM     44  C   UNL     1      25.565  26.428  26.365  0.00  0.00    +0.000 C 
ATOM     45  C   UNL     1      23.538  18.101  26.027  0.00  0.00    +0.000 C 
ATOM     46  C   UNL     1      32.024  22.204  22.722  0.00  0.00    +0.000 C 
ATOM     47  C   UNL     1      31.031  14.441  21.142  0.00  0.00    +0.000 C 
ATOM     48  C   UNL     1      27.563  24.908  24.074  0.00  0.00    +0.000 A 
ATOM     49  C   UNL     1      29.602  16.442  20.817  0.00  0.00    +0.000 C 
ATOM     50  C   UNL     1      30.220  22.557  23.400  0.00  0.00    +0.000 C 
ATOM     51  C   UNL     1      24.650  23.922  25.451  0.00  0.00    +0.000 C 
ATOM     52  C   UNL     1      29.743  18.781  21.560  0.00  0.00    +0.000 C 
ATOM     53  C   UNL     1      29.411  24.478  20.874  0.00  0.00    +0.000 C 
ATOM     54  C   UNL     1      27.802  25.962  22.144  0.00  0.00    +0.000 A 
ATOM     55  C   UNL     1      30.699  19.817  21.721  0.00  0.00    +0.000 C 
ATOM     56  C   UNL     1      24.001  21.690  24.948  0.00  0.00    +0.000 C 
ATOM     57  C   UNL     1      22.558  17.273  25.550  0.00  0.00    +0.000 C 
ATOM     58  C   UNL     1      26.787  25.944  25.973  0.00  0.00    +0.000 C 
ATOM     59  C   UNL     1      31.626  13.469  21.514  0.00  0.00    +0.000 C 
ATOM     60  C   UNL     1      23.565  20.259  25.194  0.00  0.00    +0.000 C 
ATOM     61  C   UNL     1      31.398  21.592  20.919  0.00  0.00    +0.000 C 
ATOM     62  C   UNL     1      28.790  17.401  19.927  0.00  0.00    +0.000 C 
ATOM     63  C   UNL     1      22.751  21.436  24.488  0.00  0.00    +0.000 C 
ATOM     64  H   UNL     1      29.390  16.148  23.281  0.00  0.00    +0.000 HD
ATOM     65  H   UNL     1      28.365  22.273  24.097  0.00  0.00    +0.000 HD
ATOM     66  H   UNL     1      24.888  19.477  26.480  0.00  0.00    +0.000 HD
ATOM     67  H   UNL     1      25.846  22.337  25.363  0.00  0.00    +0.000 HD
ATOM     68  C   UNL     1      29.948  12.501  24.055  0.00  0.00    +0.000 C 
ATOM     69  C   UNL     1      31.004  11.894  23.319  0.00  0.00    +0.000 C 
ATOM     70  C   UNL     1      31.905  12.953  22.822  0.00  0.00    +0.000 C 
ATOM     71  C   UNL     1      27.569  12.800  29.184  0.00  0.00    +0.000 C 
ATOM     72  C   UNL     1      28.877  12.549  29.205  0.00  0.00    +0.000 C 
ATOM     73  C   UNL     1      26.689  13.509  30.007  0.00  0.00    +0.000 C 
ATOM     74  C   UNL     1      22.550  16.558  29.727  0.00  0.00    +0.000 C 
ATOM     75  C   UNL     1      21.259  17.057  29.633  0.00  0.00    +0.000 C 
ATOM     76  C   UNL     1      20.491  17.541  30.881  0.00  0.00    +0.000 C 
ATOM     77  C   UNL     1      21.111  17.945  28.584  0.00  0.00    +0.000 C 
ATOM     78  C   UNL     1      33.547  22.141  22.232  0.00  0.00    +0.000 C 
ATOM     79  C   UNL     1      34.622  22.903  22.412  0.00  0.00    +0.000 C 
ATOM     80  C   UNL     1      32.725  21.830  21.148  0.00  0.00    +0.000 C 
ATOM     81  C   UNL     1      24.270  26.610  26.632  0.00  0.00    +0.000 C 
ATOM     82  C   UNL     1      23.757  27.853  27.280  0.00  0.00    +0.000 C 
ATOM     83  C   UNL     1      23.412  25.537  26.288  0.00  0.00    +0.000 C 
ENDROOT
BRANCH  69  84
ATOM     84  C   UNL     1      31.000  10.585  22.783  0.00  0.00    +0.000 C 
ATOM     85  C   UNL     1      30.996   9.476  22.321  0.00  0.00    +0.000 C 
BRANCH  85  86
ATOM     86  C   UNL     1      30.988   8.063  21.728  0.00  0.00    +0.000 C 
ATOM     87  C   UNL     1      30.986   6.836  21.210  0.00  0.00    +0.000 C 
ENDBRANCH  85  86
ENDBRANCH  69  84
BRANCH  13  88
ATOM     88  C   UNL     1      28.111  15.269  25.484  0.00  0.00    +0.000 C 
BRANCH  88  89
ATOM     89  O   UNL     1      27.950  16.395  26.166  0.00  0.00    +0.000 OA
ATOM     90  H   UNL     1      28.708  16.987  26.015  0.00  0.00    +0.000 HD
ENDBRANCH  88  89
ENDBRANCH  13  88
TORSDOF 4
ENDMDL
MODEL 6
REMARK VINA RESULT:      -8.5     18.482     24.003
REMARK  Name = Cyclosporin_A.pdbqt.pdb
REMARK  4 active torsions:
REMARK  status: ('A' for Active; 'I' for Inactive)
REMARK    1  A    between atoms: N_13  and  C_36
REMARK    2  A    between atoms: C_36  and  O_70
REMARK    3  A    between atoms: C_72  and  C_73
REMARK    4  A    between atoms: C_75  and  C_76
REMARK                            x       y       z     vdW  Elec       q    Type
REMARK                         _______ _______ _______ _____ _____    ______ ____
ROOT
ATOM      1  O   UNL     1      -1.461  11.571  29.034  0.00  0.00    +0.000 OA
ATOM      2  O   UNL     1      -3.475  11.075  24.343  0.00  0.00    +0.000 OA
ATOM      3  O   UNL     1       0.464  10.538  21.677  0.00  0.00    +0.000 OA
ATOM      4  O   UNL     1       2.877  13.795  29.521  0.00  0.00    +0.000 OA
ATOM      5  O   UNL     1      -2.437   7.033  23.919  0.00  0.00    +0.000 OA
ATOM      6  O   UNL     1       7.156   1.948  26.954  0.00  0.00    +0.000 OA
ATOM      7  O   UNL     1       1.894   9.213  32.543  0.00  0.00    +0.000 OA
ATOM      8  O   UNL     1       8.416   6.399  28.650  0.00  0.00    +0.000 OA
ATOM      9  O   UNL     1       3.600   1.617  23.680  0.00  0.00    +0.000 OA
ATOM     10  O   UNL     1       6.061   8.048  31.583  0.00  0.00    +0.000 OA
ATOM     11  O   UNL     1      -0.004   3.599  24.977  0.00  0.00    +0.000 OA
ATOM     12  N   UNL     1      -2.055  11.310  25.638  0.00  0.00    +0.000 NA
ATOM     13  N   UNL     1       0.356  11.914  27.496  0.00  0.00    +0.000 NA
ATOM     14  N   UNL     1      -1.306  10.614  22.570  0.00  0.00    +0.000 NA
ATOM     15  N   UNL     1      -0.417   7.566  22.389  0.00  0.00    +0.000 NA
ATOM     16  N   UNL     1       2.631  11.369  29.505  0.00  0.00    +0.000 NA
ATOM     17  N   UNL     1       6.635   3.413  25.186  0.00  0.00    +0.000 N 
ATOM     18  N   UNL     1       6.595   5.433  27.543  0.00  0.00    +0.000 N 
ATOM     19  N   UNL     1       5.996   7.009  29.908  0.00  0.00    +0.000 NA
ATOM     20  N   UNL     1       2.602   8.486  30.507  0.00  0.00    +0.000 NA
ATOM     21  N   UNL     1       0.870   5.868  24.476  0.00  0.00    +0.000 NA
ATOM     22  N   UNL     1       3.542   3.631  25.011  0.00  0.00    +0.000 NA
ATOM     23  C   UNL     1      -1.996  11.006  26.967  0.00  0.00    +0.000 C 
ATOM     24  C   UNL     1      -1.032  10.920  23.841  0.00  0.00    +0.000 C 
ATOM     25  C   UNL     1       1.040  12.844  28.254  0.00  0.00    +0.000 C 
ATOM     26  C   UNL     1      -3.116  10.819  27.756  0.00  0.00    +0.000 C 
ATOM     27  C   UNL     1      -0.168  12.090  23.563  0.00  0.00    +0.000 C 
ATOM     28  C   UNL     1      -0.956  11.490  27.733  0.00  0.00    +0.000 C 
ATOM     29  C   UNL     1      -2.245  10.713  24.405  0.00  0.00    +0.000 C 
ATOM     30  C   UNL     1      -1.064   8.625  21.988  0.00  0.00    +0.000 C 
ATOM     31  C   UNL     1      -0.336   9.733  22.308  0.00  0.00    +0.000 C 
ATOM     32  C   UNL     1       2.376  12.608  28.880  0.00  0.00    +0.000 C 
ATOM     33  C   UNL     1      -4.141  11.168  26.824  0.00  0.00    +0.000 C 
ATOM     34  C   UNL     1      -2.823  11.344  28.971  0.00  0.00    +0.000 C 
ATOM     35  C   UNL     1      -3.437  11.296  25.636  0.00  0.00    +0.000 C 
ATOM     36  C   UNL     1      -0.455  11.573  21.957  0.00  0.00    +0.000 C 
ATOM     37  C   UNL     1       2.358  11.065  30.863  0.00  0.00    +0.000 C 
ATOM     38  C   UNL     1       6.914   4.100  27.599  0.00  0.00    +0.000 A 
ATOM     39  C   UNL     1      -1.124   7.373  23.498  0.00  0.00    +0.000 C 
ATOM     40  C   UNL     1       5.648   2.638  24.526  0.00  0.00    +0.000 C 
ATOM     41  C   UNL     1       6.775   7.521  28.924  0.00  0.00    +0.000 C 
ATOM     42  C   UNL     1      -0.858   6.862  21.158  0.00  0.00    +0.000 C 
ATOM     43  C   UNL     1       7.304   3.306  28.720  0.00  0.00    +0.000 A 
ATOM     44  C   UNL     1       6.739   1.563  23.558  0.00  0.00    +0.000 C 
ATOM     45  C   UNL     1      -0.286   6.427  24.289  0.00  0.00    +0.000 C 
ATOM     46  C   UNL     1       8.162   7.513  29.508  0.00  0.00    +0.000 C 
ATOM     47  C   UNL     1       2.079  12.216  31.659  0.00  0.00    +0.000 C 
ATOM     48  C   UNL     1       6.860   3.219  26.523  0.00  0.00    +0.000 A 
ATOM     49  C   UNL     1       2.292   9.774  31.276  0.00  0.00    +0.000 C 
ATOM     50  C   UNL     1       7.168   6.365  28.269  0.00  0.00    +0.000 C 
ATOM     51  C   UNL     1       4.276   2.604  24.450  0.00  0.00    +0.000 C 
ATOM     52  C   UNL     1       4.049   8.341  30.328  0.00  0.00    +0.000 C 
ATOM     53  C   UNL     1       7.448   3.708  30.164  0.00  0.00    +0.000 C 
ATOM     54  C   UNL     1       7.433   2.012  28.285  0.00  0.00    +0.000 A 
ATOM     55  C   UNL     1       5.461   8.194  30.341  0.00  0.00    +0.000 C 
ATOM     56  C   UNL     1       2.251   3.723  25.003  0.00  0.00    +0.000 C 
ATOM     57  C   UNL     1      -1.626   6.313  24.541  0.00  0.00    +0.000 C 
ATOM     58  C   UNL     1       7.261   2.541  24.364  0.00  0.00    +0.000 C 
ATOM     59  C   UNL     1       1.936  13.405  31.612  0.00  0.00    +0.000 C 
ATOM     60  C   UNL     1       1.027   4.596  24.814  0.00  0.00    +0.000 C 
ATOM     61  C   UNL     1       7.021   7.060  31.093  0.00  0.00    +0.000 C 
ATOM     62  C   UNL     1       2.188   8.312  31.747  0.00  0.00    +0.000 C 
ATOM     63  C   UNL     1       1.092   3.025  25.084  0.00  0.00    +0.000 C 
ATOM     64  H   UNL     1       2.321  10.590  28.924  0.00  0.00    +0.000 HD
ATOM     65  H   UNL     1       5.721   5.665  27.076  0.00  0.00    +0.000 HD
ATOM     66  H   UNL     1       1.685   6.352  24.106  0.00  0.00    +0.000 HD
ATOM     67  H   UNL     1       4.100   4.475  25.099  0.00  0.00    +0.000 HD
ATOM     68  C   UNL     1       0.452  13.862  28.820  0.00  0.00    +0.000 C 
ATOM     69  C   UNL     1       0.717  14.731  29.915  0.00  0.00    +0.000 C 
ATOM     70  C   UNL     1       2.002  14.340  30.528  0.00  0.00    +0.000 C 
ATOM     71  C   UNL     1      -0.317  13.718  23.212  0.00  0.00    +0.000 C 
ATOM     72  C   UNL     1       0.486  14.698  23.625  0.00  0.00    +0.000 C 
ATOM     73  C   UNL     1      -0.373  12.905  22.077  0.00  0.00    +0.000 C 
ATOM     74  C   UNL     1      -1.461   8.069  20.687  0.00  0.00    +0.000 C 
ATOM     75  C   UNL     1      -2.099   6.893  20.316  0.00  0.00    +0.000 C 
ATOM     76  C   UNL     1      -2.154   6.439  18.842  0.00  0.00    +0.000 C 
ATOM     77  C   UNL     1      -1.785   5.836  21.149  0.00  0.00    +0.000 C 
ATOM     78  C   UNL     1       9.168   8.331  30.447  0.00  0.00    +0.000 C 
ATOM     79  C   UNL     1      10.490   8.465  30.513  0.00  0.00    +0.000 C 
ATOM     80  C   UNL     1       8.190   7.749  31.255  0.00  0.00    +0.000 C 
ATOM     81  C   UNL     1       5.946   0.727  22.884  0.00  0.00    +0.000 C 
ATOM     82  C   UNL     1       6.485  -0.314  21.960  0.00  0.00    +0.000 C 
ATOM     83  C   UNL     1       4.554   0.907  23.078  0.00  0.00    +0.000 C 
ENDROOT
BRANCH  69  84
ATOM     84  C   UNL     1      -0.229  15.544  30.582  0.00  0.00    +0.000 C 
ATOM     85  C   UNL     1      -1.038  16.228  31.148  0.00  0.00    +0.000 C 
BRANCH  85  86
ATOM     86  C   UNL     1      -2.074  17.098  31.868  0.00  0.00    +0.000 C 
ATOM     87  C   UNL     1      -2.974  17.850  32.498  0.00  0.00    +0.000 C 
ENDBRANCH  85  86
ENDBRANCH  69  84
BRANCH  13  88
ATOM     88  C   UNL     1       1.139  11.122  26.562  0.00  0.00    +0.000 C 
BRANCH  88  89
ATOM     89  O   UNL     1       1.854  10.381  25.726  0.00  0.00    +0.000 OA
ATOM     90  H   UNL     1       1.610   9.443  25.820  0.00  0.00    +0.000 HD
ENDBRANCH  88  89
ENDBRANCH  13  88
TORSDOF 4
ENDMDL
MODEL 7
REMARK VINA RESULT:      -8.5     16.313     23.272
REMARK  Name = Cyclosporin_A.pdbqt.pdb
REMARK  4 active torsions:
REMARK  status: ('A' for Active; 'I' for Inactive)
REMARK    1  A    between atoms: N_13  and  C_36
REMARK    2  A    between atoms: C_36  and  O_70
REMARK    3  A    between atoms: C_72  and  C_73
REMARK    4  A    between atoms: C_75  and  C_76
REMARK                            x       y       z     vdW  Elec       q    Type
REMARK                         _______ _______ _______ _____ _____    ______ ____
ROOT
ATOM      1  O   UNL     1      -2.596  13.577  26.182  0.00  0.00    +0.000 OA
ATOM      2  O   UNL     1      -3.701  10.217  22.468  0.00  0.00    +0.000 OA
ATOM      3  O   UNL     1       0.678   8.932  21.024  0.00  0.00    +0.000 OA
ATOM      4  O   UNL     1       1.407  16.366  25.733  0.00  0.00    +0.000 OA
ATOM      5  O   UNL     1      -2.303   6.867  24.570  0.00  0.00    +0.000 OA
ATOM      6  O   UNL     1       6.952   6.008  30.950  0.00  0.00    +0.000 OA
ATOM      7  O   UNL     1       0.249  14.177  30.729  0.00  0.00    +0.000 OA
ATOM      8  O   UNL     1       7.552  10.778  29.875  0.00  0.00    +0.000 OA
ATOM      9  O   UNL     1       4.069   3.323  28.128  0.00  0.00    +0.000 OA
ATOM     10  O   UNL     1       4.597  13.375  31.053  0.00  0.00    +0.000 OA
ATOM     11  O   UNL     1       0.153   5.070  27.663  0.00  0.00    +0.000 OA
ATOM     12  N   UNL     1      -2.556  11.366  23.525  0.00  0.00    +0.000 NA
ATOM     13  N   UNL     1      -0.566  13.292  24.925  0.00  0.00    +0.000 NA
ATOM     14  N   UNL     1      -1.223   9.205  21.522  0.00  0.00    +0.000 NA
ATOM     15  N   UNL     1      -0.089   6.774  23.230  0.00  0.00    +0.000 NA
ATOM     16  N   UNL     1       1.351  14.347  27.099  0.00  0.00    +0.000 NA
ATOM     17  N   UNL     1       6.644   6.122  28.618  0.00  0.00    +0.000 N 
ATOM     18  N   UNL     1       6.034   9.075  29.352  0.00  0.00    +0.000 N 
ATOM     19  N   UNL     1       4.909  11.583  30.292  0.00  0.00    +0.000 NA
ATOM     20  N   UNL     1       1.361  12.562  29.574  0.00  0.00    +0.000 NA
ATOM     21  N   UNL     1       0.930   6.774  26.033  0.00  0.00    +0.000 NA
ATOM     22  N   UNL     1       3.624   5.695  28.034  0.00  0.00    +0.000 NA
ATOM     23  C   UNL     1      -2.711  11.873  24.782  0.00  0.00    +0.000 C 
ATOM     24  C   UNL     1      -1.203  10.210  22.402  0.00  0.00    +0.000 C 
ATOM     25  C   UNL     1      -0.098  14.584  25.070  0.00  0.00    +0.000 C 
ATOM     26  C   UNL     1      -3.936  11.980  25.414  0.00  0.00    +0.000 C 
ATOM     27  C   UNL     1      -0.394  11.145  21.588  0.00  0.00    +0.000 C 
ATOM     28  C   UNL     1      -1.863  12.866  25.228  0.00  0.00    +0.000 C 
ATOM     29  C   UNL     1      -2.478  10.159  22.854  0.00  0.00    +0.000 C 
ATOM     30  C   UNL     1      -0.733   7.303  22.227  0.00  0.00    +0.000 C 
ATOM     31  C   UNL     1      -0.159   8.501  21.919  0.00  0.00    +0.000 C 
ATOM     32  C   UNL     1       1.119  14.961  25.850  0.00  0.00    +0.000 C 
ATOM     33  C   UNL     1      -4.803  11.573  24.354  0.00  0.00    +0.000 C 
ATOM     34  C   UNL     1      -3.904  13.135  26.123  0.00  0.00    +0.000 C 
ATOM     35  C   UNL     1      -3.911  11.127  23.390  0.00  0.00    +0.000 C 
ATOM     36  C   UNL     1      -0.351   9.779  20.557  0.00  0.00    +0.000 C 
ATOM     37  C   UNL     1       0.864  14.815  28.345  0.00  0.00    +0.000 C 
ATOM     38  C   UNL     1       6.438   8.076  30.201  0.00  0.00    +0.000 A 
ATOM     39  C   UNL     1      -0.966   7.123  24.167  0.00  0.00    +0.000 C 
ATOM     40  C   UNL     1       5.852   4.961  28.432  0.00  0.00    +0.000 C 
ATOM     41  C   UNL     1       5.809  11.574  29.280  0.00  0.00    +0.000 C 
ATOM     42  C   UNL     1      -0.250   5.440  22.597  0.00  0.00    +0.000 C 
ATOM     43  C   UNL     1       6.681   8.124  31.607  0.00  0.00    +0.000 A 
ATOM     44  C   UNL     1       7.175   3.724  28.382  0.00  0.00    +0.000 C 
ATOM     45  C   UNL     1      -0.213   6.935  25.440  0.00  0.00    +0.000 C 
ATOM     46  C   UNL     1       7.067  12.122  29.898  0.00  0.00    +0.000 C 
ATOM     47  C   UNL     1       0.363  16.151  28.295  0.00  0.00    +0.000 C 
ATOM     48  C   UNL     1       6.642   6.750  29.835  0.00  0.00    +0.000 A 
ATOM     49  C   UNL     1       0.823  13.988  29.420  0.00  0.00    +0.000 C 
ATOM     50  C   UNL     1       6.398  10.333  29.459  0.00  0.00    +0.000 C 
ATOM     51  C   UNL     1       4.521   4.666  28.249  0.00  0.00    +0.000 C 
ATOM     52  C   UNL     1       2.824  12.581  29.662  0.00  0.00    +0.000 C 
ATOM     53  C   UNL     1       6.536   9.283  32.558  0.00  0.00    +0.000 C 
ATOM     54  C   UNL     1       6.982   6.851  32.018  0.00  0.00    +0.000 A 
ATOM     55  C   UNL     1       4.217  12.700  29.902  0.00  0.00    +0.000 C 
ATOM     56  C   UNL     1       2.352   5.553  27.842  0.00  0.00    +0.000 C 
ATOM     57  C   UNL     1      -1.565   6.764  25.572  0.00  0.00    +0.000 C 
ATOM     58  C   UNL     1       7.471   5.056  28.521  0.00  0.00    +0.000 C 
ATOM     59  C   UNL     1       0.141  17.066  27.554  0.00  0.00    +0.000 C 
ATOM     60  C   UNL     1       1.119   5.957  27.059  0.00  0.00    +0.000 C 
ATOM     61  C   UNL     1       5.699  12.455  31.326  0.00  0.00    +0.000 C 
ATOM     62  C   UNL     1       0.747  13.048  30.637  0.00  0.00    +0.000 C 
ATOM     63  C   UNL     1       1.253   4.842  28.193  0.00  0.00    +0.000 C 
ATOM     64  H   UNL     1       1.208  13.338  27.047  0.00  0.00    +0.000 HD
ATOM     65  H   UNL     1       5.243   8.860  28.750  0.00  0.00    +0.000 HD
ATOM     66  H   UNL     1       1.758   7.093  25.538  0.00  0.00    +0.000 HD
ATOM     67  H   UNL     1       4.093   6.520  27.674  0.00  0.00    +0.000 HD
ATOM     68  C   UNL     1      -0.853  15.631  24.878  0.00  0.00    +0.000 C 
ATOM     69  C   UNL     1      -0.852  16.993  25.289  0.00  0.00    +0.000 C 
ATOM     70  C   UNL     1       0.329  17.230  26.143  0.00  0.00    +0.000 C 
ATOM     71  C   UNL     1      -0.600  12.247  20.346  0.00  0.00    +0.000 C 
ATOM     72  C   UNL     1       0.040  13.405  20.196  0.00  0.00    +0.000 C 
ATOM     73  C   UNL     1      -0.392  10.941  19.893  0.00  0.00    +0.000 C 
ATOM     74  C   UNL     1      -0.849   6.058  21.456  0.00  0.00    +0.000 C 
ATOM     75  C   UNL     1      -1.321   4.791  21.771  0.00  0.00    +0.000 C 
ATOM     76  C   UNL     1      -1.079   3.587  20.835  0.00  0.00    +0.000 C 
ATOM     77  C   UNL     1      -1.082   4.450  23.089  0.00  0.00    +0.000 C 
ATOM     78  C   UNL     1       7.825  13.476  30.287  0.00  0.00    +0.000 C 
ATOM     79  C   UNL     1       9.101  13.839  30.398  0.00  0.00    +0.000 C 
ATOM     80  C   UNL     1       6.766  13.297  31.178  0.00  0.00    +0.000 C 
ATOM     81  C   UNL     1       6.579   2.538  28.240  0.00  0.00    +0.000 C 
ATOM     82  C   UNL     1       7.351   1.264  28.150  0.00  0.00    +0.000 C 
ATOM     83  C   UNL     1       5.166   2.565  28.150  0.00  0.00    +0.000 C 
ENDROOT
BRANCH  69  84
ATOM     84  C   UNL     1      -1.961  17.872  25.261  0.00  0.00    +0.000 C 
ATOM     85  C   UNL     1      -2.896  18.625  25.236  0.00  0.00    +0.000 C 
BRANCH  85  86
ATOM     86  C   UNL     1      -4.087  19.588  25.204  0.00  0.00    +0.000 C 
ATOM     87  C   UNL     1      -5.119  20.430  25.175  0.00  0.00    +0.000 C 
ENDBRANCH  85  86
ENDBRANCH  69  84
BRANCH  13  88
ATOM     88  C   UNL     1       0.428  12.253  24.707  0.00  0.00    +0.000 C 
BRANCH  88  89
ATOM     89  O   UNL     1       1.344  11.311  24.531  0.00  0.00    +0.000 OA
ATOM     90  H   UNL     1       1.891  11.519  23.753  0.00  0.00    +0.000 HD
ENDBRANCH  88  89
ENDBRANCH  13  88
TORSDOF 4
ENDMDL
MODEL 8
REMARK VINA RESULT:      -8.4     12.640     21.102
REMARK  Name = Cyclosporin_A.pdbqt.pdb
REMARK  4 active torsions:
REMARK  status: ('A' for Active; 'I' for Inactive)
REMARK    1  A    between atoms: N_13  and  C_36
REMARK    2  A    between atoms: C_36  and  O_70
REMARK    3  A    between atoms: C_72  and  C_73
REMARK    4  A    between atoms: C_75  and  C_76
REMARK                            x       y       z     vdW  Elec       q    Type
REMARK                         _______ _______ _______ _____ _____    ______ ____
ROOT
ATOM      1  O   UNL     1       1.538   8.034  28.666  0.00  0.00    +0.000 OA
ATOM      2  O   UNL     1       5.389   8.231  32.048  0.00  0.00    +0.000 OA
ATOM      3  O   UNL     1       7.860  12.005  30.446  0.00  0.00    +0.000 OA
ATOM      4  O   UNL     1       2.391   9.376  24.032  0.00  0.00    +0.000 OA
ATOM      5  O   UNL     1       4.112  11.793  33.857  0.00  0.00    +0.000 OA
ATOM      6  O   UNL     1      -0.065  21.017  28.901  0.00  0.00    +0.000 OA
ATOM      7  O   UNL     1      -2.374  11.004  26.429  0.00  0.00    +0.000 OA
ATOM      8  O   UNL     1       0.420  18.418  24.744  0.00  0.00    +0.000 OA
ATOM      9  O   UNL     1       2.464  19.668  32.808  0.00  0.00    +0.000 OA
ATOM     10  O   UNL     1      -1.690  14.908  24.443  0.00  0.00    +0.000 OA
ATOM     11  O   UNL     1       1.871  15.508  33.781  0.00  0.00    +0.000 OA
ATOM     12  N   UNL     1       4.434   8.703  30.431  0.00  0.00    +0.000 NA
ATOM     13  N   UNL     1       3.209   9.456  27.681  0.00  0.00    +0.000 NA
ATOM     14  N   UNL     1       6.953  10.502  31.370  0.00  0.00    +0.000 NA
ATOM     15  N   UNL     1       5.873  13.224  32.609  0.00  0.00    +0.000 NA
ATOM     16  N   UNL     1       1.342  10.855  25.664  0.00  0.00    +0.000 NA
ATOM     17  N   UNL     1       2.115  20.135  29.018  0.00  0.00    +0.000 N 
ATOM     18  N   UNL     1       0.861  18.116  27.023  0.00  0.00    +0.000 N 
ATOM     19  N   UNL     1      -0.635  16.011  25.692  0.00  0.00    +0.000 NA
ATOM     20  N   UNL     1      -0.800  12.522  27.057  0.00  0.00    +0.000 NA
ATOM     21  N   UNL     1       3.365  14.705  31.968  0.00  0.00    +0.000 NA
ATOM     22  N   UNL     1       2.128  17.911  31.185  0.00  0.00    +0.000 NA
ATOM     23  C   UNL     1       3.113   8.598  30.108  0.00  0.00    +0.000 C 
ATOM     24  C   UNL     1       5.962  10.146  30.548  0.00  0.00    +0.000 C 
ATOM     25  C   UNL     1       2.980   9.096  26.368  0.00  0.00    +0.000 C 
ATOM     26  C   UNL     1       2.236   7.746  30.755  0.00  0.00    +0.000 C 
ATOM     27  C   UNL     1       6.782  10.020  29.321  0.00  0.00    +0.000 C 
ATOM     28  C   UNL     1       2.713   8.781  28.801  0.00  0.00    +0.000 C 
ATOM     29  C   UNL     1       5.272   9.304  31.353  0.00  0.00    +0.000 C 
ATOM     30  C   UNL     1       6.639  12.169  32.585  0.00  0.00    +0.000 C 
ATOM     31  C   UNL     1       6.885  11.834  31.286  0.00  0.00    +0.000 C 
ATOM     32  C   UNL     1       2.418  10.006  25.325  0.00  0.00    +0.000 C 
ATOM     33  C   UNL     1       3.146   7.053  31.613  0.00  0.00    +0.000 C 
ATOM     34  C   UNL     1       1.392   7.270  29.808  0.00  0.00    +0.000 C 
ATOM     35  C   UNL     1       4.324   7.764  31.439  0.00  0.00    +0.000 C 
ATOM     36  C   UNL     1       7.983  10.598  30.396  0.00  0.00    +0.000 C 
ATOM     37  C   UNL     1      -0.031  10.514  25.571  0.00  0.00    +0.000 C 
ATOM     38  C   UNL     1       0.262  19.223  27.568  0.00  0.00    +0.000 A 
ATOM     39  C   UNL     1       4.739  12.576  32.851  0.00  0.00    +0.000 C 
ATOM     40  C   UNL     1       2.299  20.159  30.423  0.00  0.00    +0.000 C 
ATOM     41  C   UNL     1       0.530  16.459  25.166  0.00  0.00    +0.000 C 
ATOM     42  C   UNL     1       6.644  13.725  33.777  0.00  0.00    +0.000 C 
ATOM     43  C   UNL     1      -1.058  19.731  27.370  0.00  0.00    +0.000 A 
ATOM     44  C   UNL     1       2.792  21.892  30.612  0.00  0.00    +0.000 C 
ATOM     45  C   UNL     1       3.685  13.582  32.535  0.00  0.00    +0.000 C 
ATOM     46  C   UNL     1       0.108  17.262  23.965  0.00  0.00    +0.000 C 
ATOM     47  C   UNL     1      -0.273   9.332  24.809  0.00  0.00    +0.000 C 
ATOM     48  C   UNL     1       0.846  20.067  28.506  0.00  0.00    +0.000 A 
ATOM     49  C   UNL     1      -0.963  11.233  26.246  0.00  0.00    +0.000 C 
ATOM     50  C   UNL     1       0.652  17.686  25.799  0.00  0.00    +0.000 C 
ATOM     51  C   UNL     1       2.247  19.260  31.463  0.00  0.00    +0.000 C 
ATOM     52  C   UNL     1      -0.590  13.661  26.160  0.00  0.00    +0.000 C 
ATOM     53  C   UNL     1      -2.173  19.175  26.524  0.00  0.00    +0.000 C 
ATOM     54  C   UNL     1      -1.214  20.811  28.200  0.00  0.00    +0.000 A 
ATOM     55  C   UNL     1      -0.557  14.726  25.222  0.00  0.00    +0.000 C 
ATOM     56  C   UNL     1       2.075  16.966  32.067  0.00  0.00    +0.000 C 
ATOM     57  C   UNL     1       3.306  12.673  33.485  0.00  0.00    +0.000 C 
ATOM     58  C   UNL     1       2.528  21.374  29.371  0.00  0.00    +0.000 C 
ATOM     59  C   UNL     1       0.269   8.441  24.219  0.00  0.00    +0.000 C 
ATOM     60  C   UNL     1       2.526  15.584  32.496  0.00  0.00    +0.000 C 
ATOM     61  C   UNL     1      -1.600  16.366  24.510  0.00  0.00    +0.000 C 
ATOM     62  C   UNL     1      -2.023  12.027  27.030  0.00  0.00    +0.000 C 
ATOM     63  C   UNL     1       1.613  16.622  33.293  0.00  0.00    +0.000 C 
ATOM     64  H   UNL     1       1.507  11.324  26.555  0.00  0.00    +0.000 HD
ATOM     65  H   UNL     1       1.313  17.482  27.677  0.00  0.00    +0.000 HD
ATOM     66  H   UNL     1       3.968  15.034  31.219  0.00  0.00    +0.000 HD
ATOM     67  H   UNL     1       2.455  17.700  30.247  0.00  0.00    +0.000 HD
ATOM     68  C   UNL     1       2.864   7.852  25.989  0.00  0.00    +0.000 C 
ATOM     69  C   UNL     1       2.273   7.156  24.898  0.00  0.00    +0.000 C 
ATOM     70  C   UNL     1       1.652   8.140  23.989  0.00  0.00    +0.000 C 
ATOM     71  C   UNL     1       7.786   8.908  28.579  0.00  0.00    +0.000 C 
ATOM     72  C   UNL     1       7.898   8.686  27.270  0.00  0.00    +0.000 C 
ATOM     73  C   UNL     1       8.453   9.721  29.500  0.00  0.00    +0.000 C 
ATOM     74  C   UNL     1       7.540  12.619  33.656  0.00  0.00    +0.000 C 
ATOM     75  C   UNL     1       7.319  13.075  34.948  0.00  0.00    +0.000 C 
ATOM     76  C   UNL     1       8.445  13.735  35.771  0.00  0.00    +0.000 C 
ATOM     77  C   UNL     1       6.139  13.786  35.062  0.00  0.00    +0.000 C 
ATOM     78  C   UNL     1      -0.307  17.150  22.423  0.00  0.00    +0.000 C 
ATOM     79  C   UNL     1      -0.207  17.949  21.364  0.00  0.00    +0.000 C 
ATOM     80  C   UNL     1      -1.360  16.659  23.196  0.00  0.00    +0.000 C 
ATOM     81  C   UNL     1       2.977  22.092  31.919  0.00  0.00    +0.000 C 
ATOM     82  C   UNL     1       3.402  23.412  32.471  0.00  0.00    +0.000 C 
ATOM     83  C   UNL     1       2.773  20.964  32.751  0.00  0.00    +0.000 C 
ENDROOT
BRANCH  69  84
ATOM     84  C   UNL     1       1.949   5.779  24.866  0.00  0.00    +0.000 C 
ATOM     85  C   UNL     1       1.678   4.609  24.830  0.00  0.00    +0.000 C 
BRANCH  85  86
ATOM     86  C   UNL     1       1.332   3.117  24.781  0.00  0.00    +0.000 C 
ATOM     87  C   UNL     1       1.036   1.820  24.734  0.00  0.00    +0.000 C 
ENDBRANCH  85  86
ENDBRANCH  69  84
BRANCH  13  88
ATOM     88  C   UNL     1       3.769  10.778  27.913  0.00  0.00    +0.000 C 
BRANCH  88  89
ATOM     89  O   UNL     1       4.260  11.994  28.114  0.00  0.00    +0.000 OA
ATOM     90  H   UNL     1       3.533  12.638  28.185  0.00  0.00    +0.000 HD
ENDBRANCH  88  89
ENDBRANCH  13  88
TORSDOF 4
ENDMDL
MODEL 9
REMARK VINA RESULT:      -8.3     16.707     21.902
REMARK  Name = Cyclosporin_A.pdbqt.pdb
REMARK  4 active torsions:
REMARK  status: ('A' for Active; 'I' for Inactive)
REMARK    1  A    between atoms: N_13  and  C_36
REMARK    2  A    between atoms: C_36  and  O_70
REMARK    3  A    between atoms: C_72  and  C_73
REMARK    4  A    between atoms: C_75  and  C_76
REMARK                            x       y       z     vdW  Elec       q    Type
REMARK                         _______ _______ _______ _____ _____    ______ ____
ROOT
ATOM      1  O   UNL     1      32.834  16.909  20.260  0.00  0.00    +0.000 OA
ATOM      2  O   UNL     1      32.963  21.404  17.791  0.00  0.00    +0.000 OA
ATOM      3  O   UNL     1      28.320  22.566  17.702  0.00  0.00    +0.000 OA
ATOM      4  O   UNL     1      28.967  13.970  19.618  0.00  0.00    +0.000 OA
ATOM      5  O   UNL     1      31.881  23.694  21.134  0.00  0.00    +0.000 OA
ATOM      6  O   UNL     1      24.154  21.330  28.995  0.00  0.00    +0.000 OA
ATOM      7  O   UNL     1      31.047  14.528  24.761  0.00  0.00    +0.000 OA
ATOM      8  O   UNL     1      23.572  17.136  26.476  0.00  0.00    +0.000 OA
ATOM      9  O   UNL     1      26.240  25.108  26.793  0.00  0.00    +0.000 OA
ATOM     10  O   UNL     1      26.833  14.663  26.129  0.00  0.00    +0.000 OA
ATOM     11  O   UNL     1      30.049  24.082  25.049  0.00  0.00    +0.000 OA
ATOM     12  N   UNL     1      32.125  19.846  18.579  0.00  0.00    +0.000 NA
ATOM     13  N   UNL     1      30.572  17.349  19.570  0.00  0.00    +0.000 NA
ATOM     14  N   UNL     1      30.295  22.371  17.720  0.00  0.00    +0.000 NA
ATOM     15  N   UNL     1      29.431  23.959  20.336  0.00  0.00    +0.000 NA
ATOM     16  N   UNL     1      29.212  15.425  21.560  0.00  0.00    +0.000 NA
ATOM     17  N   UNL     1      23.966  22.020  26.752  0.00  0.00    +0.000 N 
ATOM     18  N   UNL     1      24.861  19.083  26.302  0.00  0.00    +0.000 N 
ATOM     19  N   UNL     1      26.280  16.556  26.101  0.00  0.00    +0.000 NA
ATOM     20  N   UNL     1      29.639  16.289  24.455  0.00  0.00    +0.000 NA
ATOM     21  N   UNL     1      29.029  22.924  23.104  0.00  0.00    +0.000 NA
ATOM     22  N   UNL     1      26.770  22.966  25.809  0.00  0.00    +0.000 NA
ATOM     23  C   UNL     1      32.567  18.979  19.535  0.00  0.00    +0.000 C 
ATOM     24  C   UNL     1      30.511  21.138  18.188  0.00  0.00    +0.000 C 
ATOM     25  C   UNL     1      30.209  16.035  19.345  0.00  0.00    +0.000 C 
ATOM     26  C   UNL     1      33.902  18.815  19.857  0.00  0.00    +0.000 C 
ATOM     27  C   UNL     1      29.594  20.431  17.265  0.00  0.00    +0.000 C 
ATOM     28  C   UNL     1      31.881  17.802  19.759  0.00  0.00    +0.000 C 
ATOM     29  C   UNL     1      31.848  21.188  18.389  0.00  0.00    +0.000 C 
ATOM     30  C   UNL     1      29.873  23.866  19.112  0.00  0.00    +0.000 C 
ATOM     31  C   UNL     1      29.306  22.776  18.521  0.00  0.00    +0.000 C 
ATOM     32  C   UNL     1      29.205  15.283  20.156  0.00  0.00    +0.000 C 
ATOM     33  C   UNL     1      34.504  19.645  18.861  0.00  0.00    +0.000 C 
ATOM     34  C   UNL     1      34.076  17.497  20.119  0.00  0.00    +0.000 C 
ATOM     35  C   UNL     1      33.407  20.273  18.290  0.00  0.00    +0.000 C 
ATOM     36  C   UNL     1      29.268  22.044  16.793  0.00  0.00    +0.000 C 
ATOM     37  C   UNL     1      29.974  14.635  22.459  0.00  0.00    +0.000 C 
ATOM     38  C   UNL     1      24.598  19.695  27.501  0.00  0.00    +0.000 A 
ATOM     39  C   UNL     1      30.502  23.430  20.918  0.00  0.00    +0.000 C 
ATOM     40  C   UNL     1      24.644  23.263  26.835  0.00  0.00    +0.000 C 
ATOM     41  C   UNL     1      25.187  16.789  25.335  0.00  0.00    +0.000 C 
ATOM     42  C   UNL     1      29.389  25.436  20.181  0.00  0.00    +0.000 C 
ATOM     43  C   UNL     1      24.660  19.162  28.824  0.00  0.00    +0.000 A 
ATOM     44  C   UNL     1      23.281  24.284  27.455  0.00  0.00    +0.000 C 
ATOM     45  C   UNL     1      30.027  23.101  22.294  0.00  0.00    +0.000 C 
ATOM     46  C   UNL     1      24.116  15.926  25.947  0.00  0.00    +0.000 C 
ATOM     47  C   UNL     1      30.518  13.458  21.862  0.00  0.00    +0.000 C 
ATOM     48  C   UNL     1      24.256  21.034  27.657  0.00  0.00    +0.000 A 
ATOM     49  C   UNL     1      30.202  15.065  23.725  0.00  0.00    +0.000 C 
ATOM     50  C   UNL     1      24.589  17.825  26.035  0.00  0.00    +0.000 C 
ATOM     51  C   UNL     1      25.890  23.755  26.525  0.00  0.00    +0.000 C 
ATOM     52  C   UNL     1      28.231  16.071  24.797  0.00  0.00    +0.000 C 
ATOM     53  C   UNL     1      25.059  17.782  29.275  0.00  0.00    +0.000 C 
ATOM     54  C   UNL     1      24.391  20.187  29.695  0.00  0.00    +0.000 A 
ATOM     55  C   UNL     1      26.927  15.717  25.231  0.00  0.00    +0.000 C 
ATOM     56  C   UNL     1      27.964  23.311  25.449  0.00  0.00    +0.000 C 
ATOM     57  C   UNL     1      31.366  23.377  22.228  0.00  0.00    +0.000 C 
ATOM     58  C   UNL     1      23.087  22.954  27.180  0.00  0.00    +0.000 C 
ATOM     59  C   UNL     1      30.622  12.868  20.824  0.00  0.00    +0.000 C 
ATOM     60  C   UNL     1      29.022  23.333  24.364  0.00  0.00    +0.000 C 
ATOM     61  C   UNL     1      25.770  15.308  26.898  0.00  0.00    +0.000 C 
ATOM     62  C   UNL     1      30.487  15.559  25.155  0.00  0.00    +0.000 C 
ATOM     63  C   UNL     1      29.076  23.993  25.816  0.00  0.00    +0.000 C 
ATOM     64  H   UNL     1      29.292  16.405  21.834  0.00  0.00    +0.000 HD
ATOM     65  H   UNL     1      25.496  19.574  25.677  0.00  0.00    +0.000 HD
ATOM     66  H   UNL     1      28.131  22.689  22.689  0.00  0.00    +0.000 HD
ATOM     67  H   UNL     1      26.276  22.255  25.279  0.00  0.00    +0.000 HD
ATOM     68  C   UNL     1      30.957  15.205  18.671  0.00  0.00    +0.000 C 
ATOM     69  C   UNL     1      31.109  13.793  18.581  0.00  0.00    +0.000 C 
ATOM     70  C   UNL     1      30.148  13.153  19.502  0.00  0.00    +0.000 C 
ATOM     71  C   UNL     1      29.586  19.828  15.705  0.00  0.00    +0.000 C 
ATOM     72  C   UNL     1      28.985  18.716  15.285  0.00  0.00    +0.000 C 
ATOM     73  C   UNL     1      29.224  21.177  15.774  0.00  0.00    +0.000 C 
ATOM     74  C   UNL     1      29.763  25.300  18.809  0.00  0.00    +0.000 C 
ATOM     75  C   UNL     1      30.228  26.440  19.448  0.00  0.00    +0.000 C 
ATOM     76  C   UNL     1      29.736  27.846  19.044  0.00  0.00    +0.000 C 
ATOM     77  C   UNL     1      30.257  26.301  20.823  0.00  0.00    +0.000 C 
ATOM     78  C   UNL     1      23.524  14.439  25.978  0.00  0.00    +0.000 C 
ATOM     79  C   UNL     1      22.321  13.913  26.189  0.00  0.00    +0.000 C 
ATOM     80  C   UNL     1      24.738  14.441  26.667  0.00  0.00    +0.000 C 
ATOM     81  C   UNL     1      23.776  25.512  27.623  0.00  0.00    +0.000 C 
ATOM     82  C   UNL     1      22.941  26.646  28.119  0.00  0.00    +0.000 C 
ATOM     83  C   UNL     1      25.138  25.682  27.273  0.00  0.00    +0.000 C 
ENDROOT
BRANCH  69  84
ATOM     84  C   UNL     1      32.228  13.108  18.051  0.00  0.00    +0.000 C 
ATOM     85  C   UNL     1      33.181  12.527  17.609  0.00  0.00    +0.000 C 
BRANCH  85  86
ATOM     86  C   UNL     1      34.401  11.787  17.048  0.00  0.00    +0.000 C 
ATOM     87  C   UNL     1      35.463  11.146  16.565  0.00  0.00    +0.000 C 
ENDBRANCH  85  86
ENDBRANCH  69  84
BRANCH  13  88
ATOM     88  C   UNL     1      29.505  18.278  19.908  0.00  0.00    +0.000 C 
BRANCH  88  89
ATOM     89  O   UNL     1      28.542  19.127  20.239  0.00  0.00    +0.000 OA
ATOM     90  H   UNL     1      28.627  19.946  19.718  0.00  0.00    +0.000 HD
ENDBRANCH  88  89
ENDBRANCH  13  88
TORSDOF 4
ENDMDL
