MODEL 1
REMARK VINA RESULT:      -5.4      0.000      0.000
REMARK  Name = Danazol.pdbqt.pdb
REMARK  2 active torsions:
REMARK  status: ('A' for Active; 'I' for Inactive)
REMARK    1  A    between atoms: C_9  and  O_23
REMARK    2  A    between atoms: C_9  and  C_25
REMARK                            x       y       z     vdW  Elec       q    Type
REMARK                         _______ _______ _______ _____ _____    ______ ____
ROOT
ATOM      1  O   UNL     1      -0.333  30.448   7.832  0.00  0.00    +0.000 OA
ATOM      2  N   UNL     1       0.528  29.455   7.318  0.00  0.00    +0.000 NA
ATOM      3  C   UNL     1      -1.571  29.044  15.211  0.00  0.00    +0.000 C 
ATOM      4  C   UNL     1      -0.648  27.919  15.917  0.00  0.00    +0.000 C 
ATOM      5  C   UNL     1      -1.129  29.817  14.034  0.00  0.00    +0.000 C 
ATOM      6  C   UNL     1       0.129  29.587  13.240  0.00  0.00    +0.000 C 
ATOM      7  C   UNL     1       0.613  30.512  12.098  0.00  0.00    +0.000 C 
ATOM      8  C   UNL     1       0.472  27.709  14.987  0.00  0.00    +0.000 C 
ATOM      9  C   UNL     1      -1.662  26.656  16.116  0.00  0.00    +0.000 C 
ATOM     10  C   UNL     1       0.860  28.481  13.751  0.00  0.00    +0.000 C 
ATOM     11  C   UNL     1      -2.942  28.719  15.415  0.00  0.00    +0.000 C 
ATOM     12  C   UNL     1      -1.954  30.809  13.456  0.00  0.00    +0.000 C 
ATOM     13  C   UNL     1      -2.971  27.326  15.970  0.00  0.00    +0.000 C 
ATOM     14  C   UNL     1      -0.571  31.453  11.413  0.00  0.00    +0.000 C 
ATOM     15  C   UNL     1      -0.144  28.561  17.261  0.00  0.00    +0.000 C 
ATOM     16  C   UNL     1      -1.731  31.612  12.209  0.00  0.00    +0.000 C 
ATOM     17  C   UNL     1       1.125  29.685  10.948  0.00  0.00    +0.000 C 
ATOM     18  C   UNL     1       1.706  31.475  12.642  0.00  0.00    +0.000 C 
ATOM     19  C   UNL     1      -0.720  31.354  10.110  0.00  0.00    +0.000 C 
ATOM     20  C   UNL     1       0.861  29.636   9.548  0.00  0.00    +0.000 A 
ATOM     21  C   UNL     1      -0.099  30.525   9.148  0.00  0.00    +0.000 A 
ATOM     22  C   UNL     1       1.235  28.993   8.372  0.00  0.00    +0.000 A 
ENDROOT
BRANCH   9  23
ATOM     23  O   UNL     1      -1.597  26.026  17.404  0.00  0.00    +0.000 OA
ATOM     24  H   UNL     1      -2.457  26.157  17.840  0.00  0.00    +0.000 HD
ENDBRANCH   9  23
BRANCH   9  25
ATOM     25  C   UNL     1      -1.462  25.634  15.058  0.00  0.00    +0.000 C 
ATOM     26  C   UNL     1      -1.278  24.804  14.218  0.00  0.00    +0.000 C 
ENDBRANCH   9  25
TORSDOF 2
ENDMDL
MODEL 2
REMARK VINA RESULT:      -5.4      2.397      3.940
REMARK  Name = Danazol.pdbqt.pdb
REMARK  2 active torsions:
REMARK  status: ('A' for Active; 'I' for Inactive)
REMARK    1  A    between atoms: C_9  and  O_23
REMARK    2  A    between atoms: C_9  and  C_25
REMARK                            x       y       z     vdW  Elec       q    Type
REMARK                         _______ _______ _______ _____ _____    ______ ____
ROOT
ATOM      1  O   UNL     1       0.675  27.559   6.283  0.00  0.00    +0.000 OA
ATOM      2  N   UNL     1       1.158  28.833   5.918  0.00  0.00    +0.000 NA
ATOM      3  C   UNL     1      -0.792  27.534  13.752  0.00  0.00    +0.000 C 
ATOM      4  C   UNL     1      -0.766  28.958  14.519  0.00  0.00    +0.000 C 
ATOM      5  C   UNL     1      -1.088  27.406  12.313  0.00  0.00    +0.000 C 
ATOM      6  C   UNL     1      -1.254  28.537  11.335  0.00  0.00    +0.000 C 
ATOM      7  C   UNL     1      -1.699  28.353   9.865  0.00  0.00    +0.000 C 
ATOM      8  C   UNL     1      -0.813  29.965  13.448  0.00  0.00    +0.000 C 
ATOM      9  C   UNL     1       0.613  28.904  15.391  0.00  0.00    +0.000 C 
ATOM     10  C   UNL     1      -1.056  29.794  11.969  0.00  0.00    +0.000 C 
ATOM     11  C   UNL     1       0.091  26.632  14.413  0.00  0.00    +0.000 C 
ATOM     12  C   UNL     1      -1.125  26.142  11.681  0.00  0.00    +0.000 C 
ATOM     13  C   UNL     1       0.885  27.451  15.387  0.00  0.00    +0.000 C 
ATOM     14  C   UNL     1      -1.461  26.830   9.249  0.00  0.00    +0.000 C 
ATOM     15  C   UNL     1      -2.077  29.003  15.385  0.00  0.00    +0.000 C 
ATOM     16  C   UNL     1      -1.297  25.819  10.227  0.00  0.00    +0.000 C 
ATOM     17  C   UNL     1      -0.878  29.237   8.963  0.00  0.00    +0.000 C 
ATOM     18  C   UNL     1      -3.218  28.663   9.743  0.00  0.00    +0.000 C 
ATOM     19  C   UNL     1      -0.752  26.746   8.144  0.00  0.00    +0.000 C 
ATOM     20  C   UNL     1      -0.104  29.031   7.784  0.00  0.00    +0.000 A 
ATOM     21  C   UNL     1      -0.068  27.723   7.384  0.00  0.00    +0.000 A 
ATOM     22  C   UNL     1       0.668  29.694   6.835  0.00  0.00    +0.000 A 
ENDROOT
BRANCH   9  23
ATOM     23  O   UNL     1       0.487  29.355  16.748  0.00  0.00    +0.000 OA
ATOM     24  H   UNL     1      -0.434  29.208  17.023  0.00  0.00    +0.000 HD
ENDBRANCH   9  23
BRANCH   9  25
ATOM     25  C   UNL     1       1.703  29.656  14.721  0.00  0.00    +0.000 C 
ATOM     26  C   UNL     1       2.584  30.276  14.204  0.00  0.00    +0.000 C 
ENDBRANCH   9  25
TORSDOF 2
ENDMDL
MODEL 3
REMARK VINA RESULT:      -5.3     21.256     23.067
REMARK  Name = Danazol.pdbqt.pdb
REMARK  2 active torsions:
REMARK  status: ('A' for Active; 'I' for Inactive)
REMARK    1  A    between atoms: C_9  and  O_23
REMARK    2  A    between atoms: C_9  and  C_25
REMARK                            x       y       z     vdW  Elec       q    Type
REMARK                         _______ _______ _______ _____ _____    ______ ____
ROOT
ATOM      1  O   UNL     1      19.391  29.105  -1.349  0.00  0.00    +0.000 OA
ATOM      2  N   UNL     1      18.634  30.281  -1.537  0.00  0.00    +0.000 NA
ATOM      3  C   UNL     1      21.467  28.663   5.961  0.00  0.00    +0.000 C 
ATOM      4  C   UNL     1      20.778  29.700   6.992  0.00  0.00    +0.000 C 
ATOM      5  C   UNL     1      20.818  28.231   4.708  0.00  0.00    +0.000 C 
ATOM      6  C   UNL     1      19.540  28.778   4.134  0.00  0.00    +0.000 C 
ATOM      7  C   UNL     1      18.831  28.196   2.888  0.00  0.00    +0.000 C 
ATOM      8  C   UNL     1      19.619  30.243   6.266  0.00  0.00    +0.000 C 
ATOM      9  C   UNL     1      21.972  30.760   7.332  0.00  0.00    +0.000 C 
ATOM     10  C   UNL     1      19.018  29.819   4.950  0.00  0.00    +0.000 C 
ATOM     11  C   UNL     1      22.883  28.771   6.066  0.00  0.00    +0.000 C 
ATOM     12  C   UNL     1      21.442  27.304   3.841  0.00  0.00    +0.000 C 
ATOM     13  C   UNL     1      23.156  29.991   6.895  0.00  0.00    +0.000 C 
ATOM     14  C   UNL     1      19.805  27.301   1.885  0.00  0.00    +0.000 C 
ATOM     15  C   UNL     1      20.311  28.836   8.221  0.00  0.00    +0.000 C 
ATOM     16  C   UNL     1      20.999  26.834   2.488  0.00  0.00    +0.000 C 
ATOM     17  C   UNL     1      18.339  29.314   2.006  0.00  0.00    +0.000 C 
ATOM     18  C   UNL     1      17.667  27.269   3.342  0.00  0.00    +0.000 C 
ATOM     19  C   UNL     1      19.850  27.672   0.624  0.00  0.00    +0.000 C 
ATOM     20  C   UNL     1      18.480  29.645   0.627  0.00  0.00    +0.000 A 
ATOM     21  C   UNL     1      19.267  28.763  -0.062  0.00  0.00    +0.000 A 
ATOM     22  C   UNL     1      18.096  30.575  -0.334  0.00  0.00    +0.000 A 
ENDROOT
BRANCH   9  23
ATOM     23  O   UNL     1      22.111  31.088   8.723  0.00  0.00    +0.000 OA
ATOM     24  H   UNL     1      23.061  31.079   8.934  0.00  0.00    +0.000 HD
ENDBRANCH   9  23
BRANCH   9  25
ATOM     25  C   UNL     1      21.823  32.008   6.545  0.00  0.00    +0.000 C 
ATOM     26  C   UNL     1      21.729  33.017   5.910  0.00  0.00    +0.000 C 
ENDBRANCH   9  25
TORSDOF 2
ENDMDL
MODEL 4
REMARK VINA RESULT:      -5.2     36.088     37.527
REMARK  Name = Danazol.pdbqt.pdb
REMARK  2 active torsions:
REMARK  status: ('A' for Active; 'I' for Inactive)
REMARK    1  A    between atoms: C_9  and  O_23
REMARK    2  A    between atoms: C_9  and  C_25
REMARK                            x       y       z     vdW  Elec       q    Type
REMARK                         _______ _______ _______ _____ _____    ______ ____
ROOT
ATOM      1  O   UNL     1      13.099  -3.724  16.189  0.00  0.00    +0.000 OA
ATOM      2  N   UNL     1      12.562  -4.023  17.459  0.00  0.00    +0.000 NA
ATOM      3  C   UNL     1      20.389  -1.696  17.019  0.00  0.00    +0.000 C 
ATOM      4  C   UNL     1      21.068  -1.942  18.467  0.00  0.00    +0.000 C 
ATOM      5  C   UNL     1      19.253  -2.497  16.523  0.00  0.00    +0.000 C 
ATOM      6  C   UNL     1      18.475  -3.519  17.306  0.00  0.00    +0.000 C 
ATOM      7  C   UNL     1      17.382  -4.428  16.697  0.00  0.00    +0.000 C 
ATOM      8  C   UNL     1      20.152  -2.858  19.164  0.00  0.00    +0.000 C 
ATOM      9  C   UNL     1      21.195  -0.441  19.094  0.00  0.00    +0.000 C 
ATOM     10  C   UNL     1      18.956  -3.613  18.641  0.00  0.00    +0.000 C 
ATOM     11  C   UNL     1      20.553  -0.331  16.652  0.00  0.00    +0.000 C 
ATOM     12  C   UNL     1      18.700  -2.269  15.242  0.00  0.00    +0.000 C 
ATOM     13  C   UNL     1      21.051   0.382  17.875  0.00  0.00    +0.000 C 
ATOM     14  C   UNL     1      16.712  -3.865  15.287  0.00  0.00    +0.000 C 
ATOM     15  C   UNL     1      22.446  -2.642  18.181  0.00  0.00    +0.000 C 
ATOM     16  C   UNL     1      17.491  -2.894  14.612  0.00  0.00    +0.000 C 
ATOM     17  C   UNL     1      16.209  -4.524  17.638  0.00  0.00    +0.000 C 
ATOM     18  C   UNL     1      17.985  -5.828  16.391  0.00  0.00    +0.000 C 
ATOM     19  C   UNL     1      15.403  -3.734  15.267  0.00  0.00    +0.000 C 
ATOM     20  C   UNL     1      14.803  -4.320  17.518  0.00  0.00    +0.000 A 
ATOM     21  C   UNL     1      14.421  -3.917  16.268  0.00  0.00    +0.000 A 
ATOM     22  C   UNL     1      13.610  -4.384  18.231  0.00  0.00    +0.000 A 
ENDROOT
BRANCH   9  23
ATOM     23  O   UNL     1      22.458  -0.149  19.712  0.00  0.00    +0.000 OA
ATOM     24  H   UNL     1      23.127  -0.106  19.007  0.00  0.00    +0.000 HD
ENDBRANCH   9  23
BRANCH   9  25
ATOM     25  C   UNL     1      20.101  -0.166  20.058  0.00  0.00    +0.000 C 
ATOM     26  C   UNL     1      19.233   0.041  20.854  0.00  0.00    +0.000 C 
ENDBRANCH   9  25
TORSDOF 2
ENDMDL
MODEL 5
REMARK VINA RESULT:      -5.1     31.915     33.443
REMARK  Name = Danazol.pdbqt.pdb
REMARK  2 active torsions:
REMARK  status: ('A' for Active; 'I' for Inactive)
REMARK    1  A    between atoms: C_9  and  O_23
REMARK    2  A    between atoms: C_9  and  C_25
REMARK                            x       y       z     vdW  Elec       q    Type
REMARK                         _______ _______ _______ _____ _____    ______ ____
ROOT
ATOM      1  O   UNL     1      27.991  21.307  17.402  0.00  0.00    +0.000 OA
ATOM      2  N   UNL     1      28.279  21.374  16.022  0.00  0.00    +0.000 NA
ATOM      3  C   UNL     1      29.805  14.371  19.958  0.00  0.00    +0.000 C 
ATOM      4  C   UNL     1      30.649  13.411  18.966  0.00  0.00    +0.000 C 
ATOM      5  C   UNL     1      29.858  15.843  19.881  0.00  0.00    +0.000 C 
ATOM      6  C   UNL     1      30.548  16.655  18.819  0.00  0.00    +0.000 C 
ATOM      7  C   UNL     1      30.689  18.195  18.861  0.00  0.00    +0.000 C 
ATOM      8  C   UNL     1      31.165  14.308  17.920  0.00  0.00    +0.000 C 
ATOM      9  C   UNL     1      29.557  12.299  18.481  0.00  0.00    +0.000 C 
ATOM     10  C   UNL     1      31.145  15.813  17.841  0.00  0.00    +0.000 C 
ATOM     11  C   UNL     1      28.628  13.689  20.376  0.00  0.00    +0.000 C 
ATOM     12  C   UNL     1      29.124  16.650  20.781  0.00  0.00    +0.000 C 
ATOM     13  C   UNL     1      28.515  12.465  19.517  0.00  0.00    +0.000 C 
ATOM     14  C   UNL     1      29.585  18.971  19.828  0.00  0.00    +0.000 C 
ATOM     15  C   UNL     1      31.825  12.828  19.831  0.00  0.00    +0.000 C 
ATOM     16  C   UNL     1      28.963  18.141  20.793  0.00  0.00    +0.000 C 
ATOM     17  C   UNL     1      30.436  18.773  17.493  0.00  0.00    +0.000 C 
ATOM     18  C   UNL     1      32.103  18.571  19.388  0.00  0.00    +0.000 C 
ATOM     19  C   UNL     1      28.863  19.912  19.259  0.00  0.00    +0.000 C 
ATOM     20  C   UNL     1      29.584  19.790  16.972  0.00  0.00    +0.000 A 
ATOM     21  C   UNL     1      28.786  20.365  17.922  0.00  0.00    +0.000 A 
ATOM     22  C   UNL     1      29.243  20.456  15.798  0.00  0.00    +0.000 A 
ENDROOT
BRANCH   9  23
ATOM     23  O   UNL     1      30.027  10.942  18.500  0.00  0.00    +0.000 OA
ATOM     24  H   UNL     1      29.602  10.473  17.761  0.00  0.00    +0.000 HD
ENDBRANCH   9  23
BRANCH   9  25
ATOM     25  C   UNL     1      29.027  12.618  17.132  0.00  0.00    +0.000 C 
ATOM     26  C   UNL     1      28.622  12.861  16.035  0.00  0.00    +0.000 C 
ENDBRANCH   9  25
TORSDOF 2
ENDMDL
MODEL 6
REMARK VINA RESULT:      -5.1     30.910     33.148
REMARK  Name = Danazol.pdbqt.pdb
REMARK  2 active torsions:
REMARK  status: ('A' for Active; 'I' for Inactive)
REMARK    1  A    between atoms: C_9  and  O_23
REMARK    2  A    between atoms: C_9  and  C_25
REMARK                            x       y       z     vdW  Elec       q    Type
REMARK                         _______ _______ _______ _____ _____    ______ ____
ROOT
ATOM      1  O   UNL     1      22.237  17.083  26.274  0.00  0.00    +0.000 OA
ATOM      2  N   UNL     1      22.912  18.315  26.408  0.00  0.00    +0.000 NA
ATOM      3  C   UNL     1      26.927  12.052  23.013  0.00  0.00    +0.000 C 
ATOM      4  C   UNL     1      28.483  12.471  22.873  0.00  0.00    +0.000 C 
ATOM      5  C   UNL     1      26.043  12.600  24.060  0.00  0.00    +0.000 C 
ATOM      6  C   UNL     1      26.385  13.703  25.025  0.00  0.00    +0.000 C 
ATOM      7  C   UNL     1      25.471  14.146  26.192  0.00  0.00    +0.000 C 
ATOM      8  C   UNL     1      28.648  13.623  23.772  0.00  0.00    +0.000 C 
ATOM      9  C   UNL     1      28.659  12.775  21.279  0.00  0.00    +0.000 C 
ATOM     10  C   UNL     1      27.696  14.199  24.790  0.00  0.00    +0.000 C 
ATOM     11  C   UNL     1      26.424  11.686  21.733  0.00  0.00    +0.000 C 
ATOM     12  C   UNL     1      24.693  12.193  24.167  0.00  0.00    +0.000 C 
ATOM     13  C   UNL     1      27.466  12.094  20.734  0.00  0.00    +0.000 C 
ATOM     14  C   UNL     1      23.870  13.744  26.017  0.00  0.00    +0.000 C 
ATOM     15  C   UNL     1      29.307  11.236  23.390  0.00  0.00    +0.000 C 
ATOM     16  C   UNL     1      23.622  12.710  25.081  0.00  0.00    +0.000 C 
ATOM     17  C   UNL     1      25.454  15.649  26.291  0.00  0.00    +0.000 C 
ATOM     18  C   UNL     1      25.966  13.491  27.513  0.00  0.00    +0.000 C 
ATOM     19  C   UNL     1      23.003  14.730  26.098  0.00  0.00    +0.000 C 
ATOM     20  C   UNL     1      24.434  16.644  26.336  0.00  0.00    +0.000 A 
ATOM     21  C   UNL     1      23.171  16.127  26.240  0.00  0.00    +0.000 A 
ATOM     22  C   UNL     1      24.229  18.016  26.449  0.00  0.00    +0.000 A 
ENDROOT
BRANCH   9  23
ATOM     23  O   UNL     1      29.837  12.209  20.682  0.00  0.00    +0.000 OA
ATOM     24  H   UNL     1      30.178  12.853  20.038  0.00  0.00    +0.000 HD
ENDBRANCH   9  23
BRANCH   9  25
ATOM     25  C   UNL     1      28.618  14.232  21.002  0.00  0.00    +0.000 C 
ATOM     26  C   UNL     1      28.612  15.408  20.787  0.00  0.00    +0.000 C 
ENDBRANCH   9  25
TORSDOF 2
ENDMDL
MODEL 7
REMARK VINA RESULT:      -5.0     18.719     20.458
REMARK  Name = Danazol.pdbqt.pdb
REMARK  2 active torsions:
REMARK  status: ('A' for Active; 'I' for Inactive)
REMARK    1  A    between atoms: C_9  and  O_23
REMARK    2  A    between atoms: C_9  and  C_25
REMARK                            x       y       z     vdW  Elec       q    Type
REMARK                         _______ _______ _______ _____ _____    ______ ____
ROOT
ATOM      1  O   UNL     1      13.814  27.803  29.245  0.00  0.00    +0.000 OA
ATOM      2  N   UNL     1      14.351  28.003  30.534  0.00  0.00    +0.000 NA
ATOM      3  C   UNL     1       6.798  24.931  29.926  0.00  0.00    +0.000 C 
ATOM      4  C   UNL     1       6.136  24.929  31.403  0.00  0.00    +0.000 C 
ATOM      5  C   UNL     1       7.831  25.901  29.515  0.00  0.00    +0.000 C 
ATOM      6  C   UNL     1       8.520  26.899  30.406  0.00  0.00    +0.000 C 
ATOM      7  C   UNL     1       9.497  27.984  29.896  0.00  0.00    +0.000 C 
ATOM      8  C   UNL     1       6.971  25.847  32.193  0.00  0.00    +0.000 C 
ATOM      9  C   UNL     1       6.182  23.358  31.845  0.00  0.00    +0.000 C 
ATOM     10  C   UNL     1       8.068  26.781  31.749  0.00  0.00    +0.000 C 
ATOM     11  C   UNL     1       6.766  23.609  29.398  0.00  0.00    +0.000 C 
ATOM     12  C   UNL     1       8.370  25.887  28.208  0.00  0.00    +0.000 C 
ATOM     13  C   UNL     1       6.377  22.707  30.532  0.00  0.00    +0.000 C 
ATOM     14  C   UNL     1      10.183  27.668  28.418  0.00  0.00    +0.000 C 
ATOM     15  C   UNL     1       4.686  25.508  31.223  0.00  0.00    +0.000 C 
ATOM     16  C   UNL     1       9.490  26.707  27.641  0.00  0.00    +0.000 C 
ATOM     17  C   UNL     1      10.678  28.090  30.825  0.00  0.00    +0.000 C 
ATOM     18  C   UNL     1       8.744  29.339  29.771  0.00  0.00    +0.000 C 
ATOM     19  C   UNL     1      11.497  27.679  28.365  0.00  0.00    +0.000 C 
ATOM     20  C   UNL     1      12.094  28.053  30.661  0.00  0.00    +0.000 A 
ATOM     21  C   UNL     1      12.482  27.845  29.366  0.00  0.00    +0.000 A 
ATOM     22  C   UNL     1      13.293  28.156  31.360  0.00  0.00    +0.000 A 
ENDROOT
BRANCH   9  23
ATOM     23  O   UNL     1       4.973  22.863  32.440  0.00  0.00    +0.000 OA
ATOM     24  H   UNL     1       4.476  23.629  32.778  0.00  0.00    +0.000 HD
ENDBRANCH   9  23
BRANCH   9  25
ATOM     25  C   UNL     1       7.324  23.088  32.752  0.00  0.00    +0.000 C 
ATOM     26  C   UNL     1       8.244  22.844  33.475  0.00  0.00    +0.000 C 
ENDBRANCH   9  25
TORSDOF 2
ENDMDL
MODEL 8
REMARK VINA RESULT:      -5.0     19.892     22.618
REMARK  Name = Danazol.pdbqt.pdb
REMARK  2 active torsions:
REMARK  status: ('A' for Active; 'I' for Inactive)
REMARK    1  A    between atoms: C_9  and  O_23
REMARK    2  A    between atoms: C_9  and  C_25
REMARK                            x       y       z     vdW  Elec       q    Type
REMARK                         _______ _______ _______ _____ _____    ______ ____
ROOT
ATOM      1  O   UNL     1       6.914  25.934  29.784  0.00  0.00    +0.000 OA
ATOM      2  N   UNL     1       7.992  26.828  29.958  0.00  0.00    +0.000 NA
ATOM      3  C   UNL     1       9.271  18.894  31.465  0.00  0.00    +0.000 C 
ATOM      4  C   UNL     1      10.717  18.744  32.175  0.00  0.00    +0.000 C 
ATOM      5  C   UNL     1       8.444  20.110  31.583  0.00  0.00    +0.000 C 
ATOM      6  C   UNL     1       8.859  21.409  32.221  0.00  0.00    +0.000 C 
ATOM      7  C   UNL     1       7.907  22.608  32.440  0.00  0.00    +0.000 C 
ATOM      8  C   UNL     1      11.050  20.098  32.645  0.00  0.00    +0.000 C 
ATOM      9  C   UNL     1      11.667  18.142  30.992  0.00  0.00    +0.000 C 
ATOM     10  C   UNL     1      10.199  21.342  32.692  0.00  0.00    +0.000 C 
ATOM     11  C   UNL     1       9.239  18.084  30.295  0.00  0.00    +0.000 C 
ATOM     12  C   UNL     1       7.174  20.196  30.968  0.00  0.00    +0.000 C 
ATOM     13  C   UNL     1      10.648  17.632  30.051  0.00  0.00    +0.000 C 
ATOM     14  C   UNL     1       6.567  22.624  31.460  0.00  0.00    +0.000 C 
ATOM     15  C   UNL     1      10.500  17.770  33.389  0.00  0.00    +0.000 C 
ATOM     16  C   UNL     1       6.246  21.371  30.882  0.00  0.00    +0.000 C 
ATOM     17  C   UNL     1       8.613  23.895  32.101  0.00  0.00    +0.000 C 
ATOM     18  C   UNL     1       7.399  22.604  33.910  0.00  0.00    +0.000 C 
ATOM     19  C   UNL     1       6.376  23.708  30.740  0.00  0.00    +0.000 C 
ATOM     20  C   UNL     1       8.327  25.009  31.259  0.00  0.00    +0.000 A 
ATOM     21  C   UNL     1       7.151  24.879  30.573  0.00  0.00    +0.000 A 
ATOM     22  C   UNL     1       8.818  26.247  30.854  0.00  0.00    +0.000 A 
ENDROOT
BRANCH   9  23
ATOM     23  O   UNL     1      12.519  17.059  31.395  0.00  0.00    +0.000 OA
ATOM     24  H   UNL     1      12.499  17.014  32.367  0.00  0.00    +0.000 HD
ENDBRANCH   9  23
BRANCH   9  25
ATOM     25  C   UNL     1      12.489  19.208  30.367  0.00  0.00    +0.000 C 
ATOM     26  C   UNL     1      13.172  20.059  29.879  0.00  0.00    +0.000 C 
ENDBRANCH   9  25
TORSDOF 2
ENDMDL
MODEL 9
REMARK VINA RESULT:      -4.8     25.417     27.182
REMARK  Name = Danazol.pdbqt.pdb
REMARK  2 active torsions:
REMARK  status: ('A' for Active; 'I' for Inactive)
REMARK    1  A    between atoms: C_9  and  O_23
REMARK    2  A    between atoms: C_9  and  C_25
REMARK                            x       y       z     vdW  Elec       q    Type
REMARK                         _______ _______ _______ _____ _____    ______ ____
ROOT
ATOM      1  O   UNL     1      22.228  20.434   2.523  0.00  0.00    +0.000 OA
ATOM      2  N   UNL     1      23.222  19.512   2.915  0.00  0.00    +0.000 NA
ATOM      3  C   UNL     1      24.309  27.397   4.787  0.00  0.00    +0.000 C 
ATOM      4  C   UNL     1      25.820  27.579   5.334  0.00  0.00    +0.000 C 
ATOM      5  C   UNL     1      23.926  26.341   3.830  0.00  0.00    +0.000 C 
ATOM      6  C   UNL     1      24.803  25.217   3.349  0.00  0.00    +0.000 C 
ATOM      7  C   UNL     1      24.398  24.216   2.241  0.00  0.00    +0.000 C 
ATOM      8  C   UNL     1      26.529  26.367   4.897  0.00  0.00    +0.000 C 
ATOM      9  C   UNL     1      25.630  27.757   6.946  0.00  0.00    +0.000 C 
ATOM     10  C   UNL     1      26.084  25.269   3.964  0.00  0.00    +0.000 C 
ATOM     11  C   UNL     1      23.396  27.876   5.769  0.00  0.00    +0.000 C 
ATOM     12  C   UNL     1      22.599  26.227   3.356  0.00  0.00    +0.000 C 
ATOM     13  C   UNL     1      24.195  28.105   7.018  0.00  0.00    +0.000 C 
ATOM     14  C   UNL     1      22.764  24.082   1.985  0.00  0.00    +0.000 C 
ATOM     15  C   UNL     1      26.388  28.851   4.606  0.00  0.00    +0.000 C 
ATOM     16  C   UNL     1      22.000  25.168   2.479  0.00  0.00    +0.000 C 
ATOM     17  C   UNL     1      24.816  22.822   2.629  0.00  0.00    +0.000 C 
ATOM     18  C   UNL     1      25.039  24.651   0.892  0.00  0.00    +0.000 C 
ATOM     19  C   UNL     1      22.252  22.874   2.069  0.00  0.00    +0.000 C 
ATOM     20  C   UNL     1      24.155  21.562   2.722  0.00  0.00    +0.000 A 
ATOM     21  C   UNL     1      22.823  21.627   2.416  0.00  0.00    +0.000 A 
ATOM     22  C   UNL     1      24.367  20.219   3.019  0.00  0.00    +0.000 A 
ENDROOT
BRANCH   9  23
ATOM     23  O   UNL     1      26.401  28.817   7.532  0.00  0.00    +0.000 OA
ATOM     24  H   UNL     1      26.424  28.668   8.493  0.00  0.00    +0.000 HD
ENDBRANCH   9  23
BRANCH   9  25
ATOM     25  C   UNL     1      25.910  26.489   7.663  0.00  0.00    +0.000 C 
ATOM     26  C   UNL     1      26.114  25.472   8.256  0.00  0.00    +0.000 C 
ENDBRANCH   9  25
TORSDOF 2
ENDMDL
