MODEL 1
REMARK VINA RESULT:      -4.6      0.000      0.000
REMARK  Name = Decitabine.pdbqt.pdb
REMARK  4 active torsions:
REMARK  status: ('A' for Active; 'I' for Inactive)
REMARK    1  A    between atoms: N_2  and  C1*_8
REMARK    2  A    between atoms: C4*_10  and  C5*_13
REMARK    3  A    between atoms: C3*_11  and  O3*_16
REMARK    4  A    between atoms: C5*_13  and  O5*_14
REMARK                            x       y       z     vdW  Elec       q    Type
REMARK                         _______ _______ _______ _____ _____    ______ ____
ROOT
ATOM      1  O   UNL     1      10.681  17.898  28.812  0.00  0.00    +0.000 OA
ATOM      2  N   UNL     1      12.637  18.123  30.030  0.00  0.00    +0.000 N 
ATOM      3  N   UNL     1      12.208  16.197  28.765  0.00  0.00    +0.000 NA
ATOM      4  N   UNL     1      14.216  16.400  30.028  0.00  0.00    +0.000 NA
ATOM      5  C   UNL     1      11.763  17.452  29.181  0.00  0.00    +0.000 A 
ATOM      6  C   UNL     1      13.741  17.432  30.295  0.00  0.00    +0.000 A 
ATOM      7  C   UNL     1      13.364  15.733  29.165  0.00  0.00    +0.000 A 
ATOM      8  N   UNL     1      13.755  14.509  28.728  0.00  0.00    +0.000 N 
ATOM      9  H   UNL     1      14.398  14.030  29.344  0.00  0.00    +0.000 HD
ATOM     10  H   UNL     1      12.987  13.940  28.389  0.00  0.00    +0.000 HD
ENDROOT
BRANCH   2  11
ATOM     11  C1* UNL     1      12.445  19.354  30.574  0.00  0.00    +0.000 A 
ATOM     12  O4* UNL     1      12.817  20.527  29.908  0.00  0.00    +0.000 OA
ATOM     13  C4* UNL     1      12.472  21.596  30.744  0.00  0.00    +0.000 A 
ATOM     14  C3* UNL     1      11.881  21.080  31.953  0.00  0.00    +0.000 A 
ATOM     15  C2* UNL     1      11.863  19.681  31.815  0.00  0.00    +0.000 A 
BRANCH  14  16
ATOM     16  O3* UNL     1      10.942  21.796  32.639  0.00  0.00    +0.000 OA
ATOM     17  H3* UNL     1      10.060  21.396  32.545  0.00  0.00    +0.000 HD
ENDBRANCH  14  16
BRANCH  13  18
ATOM     18  C5* UNL     1      12.544  22.939  30.327  0.00  0.00    +0.000 C 
BRANCH  18  19
ATOM     19  O5* UNL     1      12.613  24.209  29.937  0.00  0.00    +0.000 OA
ATOM     20  H5* UNL     1      11.792  24.677  30.168  0.00  0.00    +0.000 HD
ENDBRANCH  18  19
ENDBRANCH  13  18
ENDBRANCH   2  11
TORSDOF 4
ENDMDL
MODEL 2
REMARK VINA RESULT:      -4.5     15.797     16.799
REMARK  Name = Decitabine.pdbqt.pdb
REMARK  4 active torsions:
REMARK  status: ('A' for Active; 'I' for Inactive)
REMARK    1  A    between atoms: N_2  and  C1*_8
REMARK    2  A    between atoms: C4*_10  and  C5*_13
REMARK    3  A    between atoms: C3*_11  and  O3*_16
REMARK    4  A    between atoms: C5*_13  and  O5*_14
REMARK                            x       y       z     vdW  Elec       q    Type
REMARK                         _______ _______ _______ _____ _____    ______ ____
ROOT
ATOM      1  O   UNL     1      -0.705  12.565  19.098  0.00  0.00    +0.000 OA
ATOM      2  N   UNL     1      -0.598  12.897  21.386  0.00  0.00    +0.000 N 
ATOM      3  N   UNL     1       0.029  10.853  20.424  0.00  0.00    +0.000 NA
ATOM      4  N   UNL     1       0.125  11.168  22.782  0.00  0.00    +0.000 NA
ATOM      5  C   UNL     1      -0.446  12.149  20.223  0.00  0.00    +0.000 A 
ATOM      6  C   UNL     1      -0.264  12.226  22.485  0.00  0.00    +0.000 A 
ATOM      7  C   UNL     1       0.301  10.422  21.629  0.00  0.00    +0.000 A 
ATOM      8  N   UNL     1       0.767   9.155  21.772  0.00  0.00    +0.000 N 
ATOM      9  H   UNL     1       0.573   8.737  22.672  0.00  0.00    +0.000 HD
ATOM     10  H   UNL     1       0.566   8.563  20.975  0.00  0.00    +0.000 HD
ENDROOT
BRANCH   2  11
ATOM     11  C1* UNL     1      -1.040  14.180  21.468  0.00  0.00    +0.000 A 
ATOM     12  O4* UNL     1      -0.169  15.272  21.398  0.00  0.00    +0.000 OA
ATOM     13  C4* UNL     1      -0.955  16.426  21.507  0.00  0.00    +0.000 A 
ATOM     14  C3* UNL     1      -2.337  16.046  21.652  0.00  0.00    +0.000 A 
ATOM     15  C2* UNL     1      -2.364  14.641  21.611  0.00  0.00    +0.000 A 
BRANCH  14  16
ATOM     16  O3* UNL     1      -3.340  16.848  21.189  0.00  0.00    +0.000 OA
ATOM     17  H3* UNL     1      -3.997  16.332  20.690  0.00  0.00    +0.000 HD
ENDBRANCH  14  16
BRANCH  13  18
ATOM     18  C5* UNL     1      -0.434  17.720  21.307  0.00  0.00    +0.000 C 
BRANCH  18  19
ATOM     19  O5* UNL     1       0.054  18.943  21.120  0.00  0.00    +0.000 OA
ATOM     20  H5* UNL     1      -0.583  19.487  20.626  0.00  0.00    +0.000 HD
ENDBRANCH  18  19
ENDBRANCH  13  18
ENDBRANCH   2  11
TORSDOF 4
ENDMDL
MODEL 3
REMARK VINA RESULT:      -4.5      2.741      5.948
REMARK  Name = Decitabine.pdbqt.pdb
REMARK  4 active torsions:
REMARK  status: ('A' for Active; 'I' for Inactive)
REMARK    1  A    between atoms: N_2  and  C1*_8
REMARK    2  A    between atoms: C4*_10  and  C5*_13
REMARK    3  A    between atoms: C3*_11  and  O3*_16
REMARK    4  A    between atoms: C5*_13  and  O5*_14
REMARK                            x       y       z     vdW  Elec       q    Type
REMARK                         _______ _______ _______ _____ _____    ______ ____
ROOT
ATOM      1  O   UNL     1      11.539  19.098  32.549  0.00  0.00    +0.000 OA
ATOM      2  N   UNL     1      12.350  18.900  30.390  0.00  0.00    +0.000 N 
ATOM      3  N   UNL     1      12.481  20.929  31.557  0.00  0.00    +0.000 NA
ATOM      4  N   UNL     1      13.302  20.752  29.329  0.00  0.00    +0.000 NA
ATOM      5  C   UNL     1      12.083  19.592  31.567  0.00  0.00    +0.000 A 
ATOM      6  C   UNL     1      12.936  19.653  29.463  0.00  0.00    +0.000 A 
ATOM      7  C   UNL     1      13.061  21.445  30.503  0.00  0.00    +0.000 A 
ATOM      8  N   UNL     1      13.435  22.749  30.545  0.00  0.00    +0.000 N 
ATOM      9  H   UNL     1      13.482  23.200  29.641  0.00  0.00    +0.000 HD
ATOM     10  H   UNL     1      12.955  23.280  31.262  0.00  0.00    +0.000 HD
ENDROOT
BRANCH   2  11
ATOM     11  C1* UNL     1      12.066  17.594  30.141  0.00  0.00    +0.000 A 
ATOM     12  O4* UNL     1      12.898  16.557  30.577  0.00  0.00    +0.000 OA
ATOM     13  C4* UNL     1      12.306  15.359  30.158  0.00  0.00    +0.000 A 
ATOM     14  C3* UNL     1      11.090  15.656  29.445  0.00  0.00    +0.000 A 
ATOM     15  C2* UNL     1      10.957  17.055  29.460  0.00  0.00    +0.000 A 
BRANCH  14  16
ATOM     16  O3* UNL     1      10.038  14.784  29.452  0.00  0.00    +0.000 OA
ATOM     17  H3* UNL     1       9.303  15.128  29.988  0.00  0.00    +0.000 HD
ENDBRANCH  14  16
BRANCH  13  18
ATOM     18  C5* UNL     1      12.777  14.096  30.568  0.00  0.00    +0.000 C 
BRANCH  18  19
ATOM     19  O5* UNL     1      13.221  12.902  30.951  0.00  0.00    +0.000 OA
ATOM     20  H5* UNL     1      12.707  12.199  30.519  0.00  0.00    +0.000 HD
ENDBRANCH  18  19
ENDBRANCH  13  18
ENDBRANCH   2  11
TORSDOF 4
ENDMDL
MODEL 4
REMARK VINA RESULT:      -4.3     23.160     25.017
REMARK  Name = Decitabine.pdbqt.pdb
REMARK  4 active torsions:
REMARK  status: ('A' for Active; 'I' for Inactive)
REMARK    1  A    between atoms: N_2  and  C1*_8
REMARK    2  A    between atoms: C4*_10  and  C5*_13
REMARK    3  A    between atoms: C3*_11  and  O3*_16
REMARK    4  A    between atoms: C5*_13  and  O5*_14
REMARK                            x       y       z     vdW  Elec       q    Type
REMARK                         _______ _______ _______ _____ _____    ______ ____
ROOT
ATOM      1  O   UNL     1       1.987  16.952  10.858  0.00  0.00    +0.000 OA
ATOM      2  N   UNL     1       0.692  15.906   9.249  0.00  0.00    +0.000 N 
ATOM      3  N   UNL     1      -0.231  17.487  10.713  0.00  0.00    +0.000 NA
ATOM      4  N   UNL     1      -1.585  16.407   9.080  0.00  0.00    +0.000 NA
ATOM      5  C   UNL     1       0.904  16.786  10.306  0.00  0.00    +0.000 A 
ATOM      6  C   UNL     1      -0.568  15.893   8.826  0.00  0.00    +0.000 A 
ATOM      7  C   UNL     1      -1.380  17.302  10.116  0.00  0.00    +0.000 A 
ATOM      8  N   UNL     1      -2.453  18.012  10.546  0.00  0.00    +0.000 N 
ATOM      9  H   UNL     1      -3.346  17.569  10.370  0.00  0.00    +0.000 HD
ATOM     10  H   UNL     1      -2.339  18.384  11.481  0.00  0.00    +0.000 HD
ENDROOT
BRANCH   2  11
ATOM     11  C1* UNL     1       1.625  15.109   8.665  0.00  0.00    +0.000 A 
ATOM     12  O4* UNL     1       1.904  13.822   9.137  0.00  0.00    +0.000 OA
ATOM     13  C4* UNL     1       2.898  13.290   8.306  0.00  0.00    +0.000 A 
ATOM     14  C3* UNL     1       3.248  14.265   7.304  0.00  0.00    +0.000 A 
ATOM     15  C2* UNL     1       2.431  15.384   7.542  0.00  0.00    +0.000 A 
BRANCH  14  16
ATOM     16  O3* UNL     1       3.682  13.879   6.068  0.00  0.00    +0.000 OA
ATOM     17  H3* UNL     1       3.459  12.948   5.894  0.00  0.00    +0.000 HD
ENDBRANCH  14  16
BRANCH  13  18
ATOM     18  C5* UNL     1       3.307  11.944   8.378  0.00  0.00    +0.000 C 
BRANCH  18  19
ATOM     19  O5* UNL     1       3.697  10.675   8.444  0.00  0.00    +0.000 OA
ATOM     20  H5* UNL     1       4.447  10.585   9.056  0.00  0.00    +0.000 HD
ENDBRANCH  18  19
ENDBRANCH  13  18
ENDBRANCH   2  11
TORSDOF 4
ENDMDL
MODEL 5
REMARK VINA RESULT:      -4.3     11.443     13.003
REMARK  Name = Decitabine.pdbqt.pdb
REMARK  4 active torsions:
REMARK  status: ('A' for Active; 'I' for Inactive)
REMARK    1  A    between atoms: N_2  and  C1*_8
REMARK    2  A    between atoms: C4*_10  and  C5*_13
REMARK    3  A    between atoms: C3*_11  and  O3*_16
REMARK    4  A    between atoms: C5*_13  and  O5*_14
REMARK                            x       y       z     vdW  Elec       q    Type
REMARK                         _______ _______ _______ _____ _____    ______ ____
ROOT
ATOM      1  O   UNL     1      26.172  14.578  25.126  0.00  0.00    +0.000 OA
ATOM      2  N   UNL     1      24.065  13.657  25.400  0.00  0.00    +0.000 N 
ATOM      3  N   UNL     1      25.652  12.663  23.989  0.00  0.00    +0.000 NA
ATOM      4  N   UNL     1      23.484  11.713  24.240  0.00  0.00    +0.000 NA
ATOM      5  C   UNL     1      25.350  13.704  24.868  0.00  0.00    +0.000 A 
ATOM      6  C   UNL     1      23.356  12.621  24.960  0.00  0.00    +0.000 A 
ATOM      7  C   UNL     1      24.767  11.738  23.721  0.00  0.00    +0.000 A 
ATOM      8  N   UNL     1      25.112  10.743  22.864  0.00  0.00    +0.000 N 
ATOM      9  H   UNL     1      24.332  10.319  22.380  0.00  0.00    +0.000 HD
ATOM     10  H   UNL     1      25.902  10.978  22.275  0.00  0.00    +0.000 HD
ENDROOT
BRANCH   2  11
ATOM     11  C1* UNL     1      23.523  14.543  26.275  0.00  0.00    +0.000 A 
ATOM     12  O4* UNL     1      23.059  15.799  25.870  0.00  0.00    +0.000 OA
ATOM     13  C4* UNL     1      22.565  16.439  27.014  0.00  0.00    +0.000 A 
ATOM     14  C3* UNL     1      22.729  15.569  28.150  0.00  0.00    +0.000 A 
ATOM     15  C2* UNL     1      23.316  14.389  27.661  0.00  0.00    +0.000 A 
BRANCH  14  16
ATOM     16  O3* UNL     1      21.862  15.616  29.204  0.00  0.00    +0.000 OA
ATOM     17  H3* UNL     1      21.085  15.054  29.041  0.00  0.00    +0.000 HD
ENDBRANCH  14  16
BRANCH  13  18
ATOM     18  C5* UNL     1      21.861  17.658  26.956  0.00  0.00    +0.000 C 
BRANCH  18  19
ATOM     19  O5* UNL     1      21.200  18.810  26.903  0.00  0.00    +0.000 OA
ATOM     20  H5* UNL     1      20.265  18.652  26.688  0.00  0.00    +0.000 HD
ENDBRANCH  18  19
ENDBRANCH  13  18
ENDBRANCH   2  11
TORSDOF 4
ENDMDL
MODEL 6
REMARK VINA RESULT:      -4.3     24.054     25.437
REMARK  Name = Decitabine.pdbqt.pdb
REMARK  4 active torsions:
REMARK  status: ('A' for Active; 'I' for Inactive)
REMARK    1  A    between atoms: N_2  and  C1*_8
REMARK    2  A    between atoms: C4*_10  and  C5*_13
REMARK    3  A    between atoms: C3*_11  and  O3*_16
REMARK    4  A    between atoms: C5*_13  and  O5*_14
REMARK                            x       y       z     vdW  Elec       q    Type
REMARK                         _______ _______ _______ _____ _____    ______ ____
ROOT
ATOM      1  O   UNL     1      20.718  -0.079  14.595  0.00  0.00    +0.000 OA
ATOM      2  N   UNL     1      20.636  -0.165  16.907  0.00  0.00    +0.000 N 
ATOM      3  N   UNL     1      21.917   1.454  15.797  0.00  0.00    +0.000 NA
ATOM      4  N   UNL     1      21.862   1.369  18.175  0.00  0.00    +0.000 NA
ATOM      5  C   UNL     1      21.056   0.361  15.690  0.00  0.00    +0.000 A 
ATOM      6  C   UNL     1      21.145   0.475  17.956  0.00  0.00    +0.000 A 
ATOM      7  C   UNL     1      22.269   1.914  16.970  0.00  0.00    +0.000 A 
ATOM      8  N   UNL     1      23.105   2.982  17.020  0.00  0.00    +0.000 N 
ATOM      9  H   UNL     1      23.659   3.041  17.864  0.00  0.00    +0.000 HD
ATOM     10  H   UNL     1      23.622   3.128  16.161  0.00  0.00    +0.000 HD
ENDROOT
BRANCH   2  11
ATOM     11  C1* UNL     1      19.799  -1.222  17.083  0.00  0.00    +0.000 A 
ATOM     12  O4* UNL     1      18.580  -1.100  17.759  0.00  0.00    +0.000 OA
ATOM     13  C4* UNL     1      17.982  -2.367  17.747  0.00  0.00    +0.000 A 
ATOM     14  C3* UNL     1      18.844  -3.292  17.057  0.00  0.00    +0.000 A 
ATOM     15  C2* UNL     1      19.964  -2.550  16.642  0.00  0.00    +0.000 A 
BRANCH  14  16
ATOM     16  O3* UNL     1      18.332  -4.357  16.373  0.00  0.00    +0.000 OA
ATOM     17  H3* UNL     1      18.851  -5.162  16.542  0.00  0.00    +0.000 HD
ENDBRANCH  14  16
BRANCH  13  18
ATOM     18  C5* UNL     1      16.662  -2.585  18.189  0.00  0.00    +0.000 C 
BRANCH  18  19
ATOM     19  O5* UNL     1      15.415  -2.791  18.601  0.00  0.00    +0.000 OA
ATOM     20  H5* UNL     1      15.388  -2.860  19.571  0.00  0.00    +0.000 HD
ENDBRANCH  18  19
ENDBRANCH  13  18
ENDBRANCH   2  11
TORSDOF 4
ENDMDL
MODEL 7
REMARK VINA RESULT:      -4.2     17.155     19.541
REMARK  Name = Decitabine.pdbqt.pdb
REMARK  4 active torsions:
REMARK  status: ('A' for Active; 'I' for Inactive)
REMARK    1  A    between atoms: N_2  and  C1*_8
REMARK    2  A    between atoms: C4*_10  and  C5*_13
REMARK    3  A    between atoms: C3*_11  and  O3*_16
REMARK    4  A    between atoms: C5*_13  and  O5*_14
REMARK                            x       y       z     vdW  Elec       q    Type
REMARK                         _______ _______ _______ _____ _____    ______ ____
ROOT
ATOM      1  O   UNL     1      11.592  35.013  20.134  0.00  0.00    +0.000 OA
ATOM      2  N   UNL     1      13.366  33.764  19.327  0.00  0.00    +0.000 N 
ATOM      3  N   UNL     1      12.400  33.297  21.412  0.00  0.00    +0.000 NA
ATOM      4  N   UNL     1      14.238  32.015  20.609  0.00  0.00    +0.000 NA
ATOM      5  C   UNL     1      12.396  34.096  20.268  0.00  0.00    +0.000 A 
ATOM      6  C   UNL     1      14.128  32.741  19.702  0.00  0.00    +0.000 A 
ATOM      7  C   UNL     1      13.263  32.323  21.542  0.00  0.00    +0.000 A 
ATOM      8  N   UNL     1      13.222  31.571  22.671  0.00  0.00    +0.000 N 
ATOM      9  H   UNL     1      14.103  31.140  22.918  0.00  0.00    +0.000 HD
ATOM     10  H   UNL     1      12.740  32.025  23.437  0.00  0.00    +0.000 HD
ENDROOT
BRANCH   2  11
ATOM     11  C1* UNL     1      13.574  34.379  18.133  0.00  0.00    +0.000 A 
ATOM     12  O4* UNL     1      12.793  34.099  17.006  0.00  0.00    +0.000 OA
ATOM     13  C4* UNL     1      13.273  34.908  15.968  0.00  0.00    +0.000 A 
ATOM     14  C3* UNL     1      14.374  35.699  16.455  0.00  0.00    +0.000 A 
ATOM     15  C2* UNL     1      14.533  35.361  17.811  0.00  0.00    +0.000 A 
BRANCH  14  16
ATOM     16  O3* UNL     1      14.637  36.935  15.936  0.00  0.00    +0.000 OA
ATOM     17  H3* UNL     1      15.296  36.881  15.223  0.00  0.00    +0.000 HD
ENDBRANCH  14  16
BRANCH  13  18
ATOM     18  C5* UNL     1      12.616  35.018  14.727  0.00  0.00    +0.000 C 
BRANCH  18  19
ATOM     19  O5* UNL     1      11.998  35.118  13.554  0.00  0.00    +0.000 OA
ATOM     20  H5* UNL     1      11.773  34.234  13.216  0.00  0.00    +0.000 HD
ENDBRANCH  18  19
ENDBRANCH  13  18
ENDBRANCH   2  11
TORSDOF 4
ENDMDL
MODEL 8
REMARK VINA RESULT:      -4.1     10.587     12.116
REMARK  Name = Decitabine.pdbqt.pdb
REMARK  4 active torsions:
REMARK  status: ('A' for Active; 'I' for Inactive)
REMARK    1  A    between atoms: N_2  and  C1*_8
REMARK    2  A    between atoms: C4*_10  and  C5*_13
REMARK    3  A    between atoms: C3*_11  and  O3*_16
REMARK    4  A    between atoms: C5*_13  and  O5*_14
REMARK                            x       y       z     vdW  Elec       q    Type
REMARK                         _______ _______ _______ _____ _____    ______ ____
ROOT
ATOM      1  O   UNL     1      25.473  13.889  26.405  0.00  0.00    +0.000 OA
ATOM      2  N   UNL     1      23.183  14.218  26.309  0.00  0.00    +0.000 N 
ATOM      3  N   UNL     1      24.100  12.061  26.346  0.00  0.00    +0.000 NA
ATOM      4  N   UNL     1      21.744  12.379  26.225  0.00  0.00    +0.000 NA
ATOM      5  C   UNL     1      24.333  13.437  26.358  0.00  0.00    +0.000 A 
ATOM      6  C   UNL     1      22.066  13.500  26.252  0.00  0.00    +0.000 A 
ATOM      7  C   UNL     1      22.880  11.591  26.297  0.00  0.00    +0.000 A 
ATOM      8  N   UNL     1      22.706  10.245  26.292  0.00  0.00    +0.000 N 
ATOM      9  H   UNL     1      21.849   9.936  25.853  0.00  0.00    +0.000 HD
ATOM     10  H   UNL     1      23.536   9.735  26.015  0.00  0.00    +0.000 HD
ENDROOT
BRANCH   2  11
ATOM     11  C1* UNL     1      23.132  15.577  26.310  0.00  0.00    +0.000 A 
ATOM     12  O4* UNL     1      22.233  16.285  27.115  0.00  0.00    +0.000 OA
ATOM     13  C4* UNL     1      22.457  17.646  26.872  0.00  0.00    +0.000 A 
ATOM     14  C3* UNL     1      23.508  17.787  25.897  0.00  0.00    +0.000 A 
ATOM     15  C2* UNL     1      23.921  16.482  25.573  0.00  0.00    +0.000 A 
BRANCH  14  16
ATOM     16  O3* UNL     1      24.334  18.874  25.903  0.00  0.00    +0.000 OA
ATOM     17  H3* UNL     1      24.418  19.254  25.011  0.00  0.00    +0.000 HD
ENDBRANCH  14  16
BRANCH  13  18
ATOM     18  C5* UNL     1      21.849  18.663  27.635  0.00  0.00    +0.000 C 
BRANCH  18  19
ATOM     19  O5* UNL     1      21.272  19.619  28.357  0.00  0.00    +0.000 OA
ATOM     20  H5* UNL     1      21.769  20.450  28.272  0.00  0.00    +0.000 HD
ENDBRANCH  18  19
ENDBRANCH  13  18
ENDBRANCH   2  11
TORSDOF 4
ENDMDL
MODEL 9
REMARK VINA RESULT:      -4.1     21.892     23.120
REMARK  Name = Decitabine.pdbqt.pdb
REMARK  4 active torsions:
REMARK  status: ('A' for Active; 'I' for Inactive)
REMARK    1  A    between atoms: N_2  and  C1*_8
REMARK    2  A    between atoms: C4*_10  and  C5*_13
REMARK    3  A    between atoms: C3*_11  and  O3*_16
REMARK    4  A    between atoms: C5*_13  and  O5*_14
REMARK                            x       y       z     vdW  Elec       q    Type
REMARK                         _______ _______ _______ _____ _____    ______ ____
ROOT
ATOM      1  O   UNL     1      -1.736  30.423  16.225  0.00  0.00    +0.000 OA
ATOM      2  N   UNL     1      -1.390  28.191  15.719  0.00  0.00    +0.000 N 
ATOM      3  N   UNL     1      -2.268  28.845  17.792  0.00  0.00    +0.000 NA
ATOM      4  N   UNL     1      -1.899  26.545  17.298  0.00  0.00    +0.000 NA
ATOM      5  C   UNL     1      -1.790  29.239  16.542  0.00  0.00    +0.000 A 
ATOM      6  C   UNL     1      -1.533  26.997  16.287  0.00  0.00    +0.000 A 
ATOM      7  C   UNL     1      -2.321  27.579  18.117  0.00  0.00    +0.000 A 
ATOM      8  N   UNL     1      -2.799  27.246  19.343  0.00  0.00    +0.000 N 
ATOM      9  H   UNL     1      -2.452  26.367  19.703  0.00  0.00    +0.000 HD
ATOM     10  H   UNL     1      -2.777  28.014  20.003  0.00  0.00    +0.000 HD
ENDROOT
BRANCH   2  11
ATOM     11  C1* UNL     1      -0.892  28.301  14.459  0.00  0.00    +0.000 A 
ATOM     12  O4* UNL     1      -1.662  28.012  13.327  0.00  0.00    +0.000 OA
ATOM     13  C4* UNL     1      -0.845  28.237  12.212  0.00  0.00    +0.000 A 
ATOM     14  C3* UNL     1       0.456  28.666  12.657  0.00  0.00    +0.000 A 
ATOM     15  C2* UNL     1       0.396  28.711  14.061  0.00  0.00    +0.000 A 
BRANCH  14  16
ATOM     16  O3* UNL     1       1.222  29.501  11.894  0.00  0.00    +0.000 OA
ATOM     17  H3* UNL     1       2.157  29.454  12.157  0.00  0.00    +0.000 HD
ENDBRANCH  14  16
BRANCH  13  18
ATOM     18  C5* UNL     1      -1.339  28.212  10.893  0.00  0.00    +0.000 C 
BRANCH  18  19
ATOM     19  O5* UNL     1      -1.809  28.184   9.649  0.00  0.00    +0.000 OA
ATOM     20  H5* UNL     1      -2.262  27.341   9.479  0.00  0.00    +0.000 HD
ENDBRANCH  18  19
ENDBRANCH  13  18
ENDBRANCH   2  11
TORSDOF 4
ENDMDL
