MODEL 1
REMARK VINA RESULT:      -4.9      0.000      0.000
REMARK  Name = Deferoxamine.pdbqt.pdb
REMARK  19 active torsions:
REMARK  status: ('A' for Active; 'I' for Inactive)
REMARK    1  A    between atoms: C_1  and  C_2
REMARK    2  A    between atoms: C_3  and  C_4
REMARK    3  A    between atoms: C_4  and  N_5
REMARK    4  A    between atoms: C_6  and  C_9
REMARK    5  A    between atoms: C_10  and  C_11
REMARK    6  A    between atoms: N_13  and  O_14
REMARK    7  A    between atoms: N_13  and  C_16
REMARK    8  A    between atoms: C_17  and  C_18
REMARK    9  A    between atoms: C_19  and  C_20
REMARK   10  A    between atoms: C_20  and  N_21
REMARK   11  A    between atoms: C_24  and  N_25
REMARK   12  A    between atoms: N_25  and  O_28
REMARK   13  A    between atoms: C_26  and  C_30
REMARK   14  A    between atoms: C_31  and  C_32
REMARK   15  A    between atoms: N_34  and  C_36
REMARK   16  A    between atoms: C_37  and  C_38
REMARK   17  A    between atoms: C_38  and  C_39
REMARK   18  A    between atoms: C_40  and  N_41
REMARK   19  A    between atoms: N_41  and  O_45
REMARK                            x       y       z     vdW  Elec       q    Type
REMARK                         _______ _______ _______ _____ _____    ______ ____
ROOT
ATOM      1  C   UNL     1      -1.018  17.640  22.869  0.00  0.00    +0.000 C 
ATOM      2  C   UNL     1      -0.507  16.606  23.205  0.00  0.00    +0.000 C 
ENDROOT
BRANCH   2   3
ATOM      3  N   UNL     1       0.069  15.446  23.583  0.00  0.00    +0.000 N 
ATOM      4  C   UNL     1       1.034  15.188  24.542  0.00  0.00    +0.000 C 
ATOM      5  O   UNL     1       1.686  16.045  25.129  0.00  0.00    +0.000 OA
BRANCH   4   6
ATOM      6  C   UNL     1       1.318  13.800  24.846  0.00  0.00    +0.000 C 
ATOM      7  C   UNL     1       1.541  12.649  25.107  0.00  0.00    +0.000 C 
BRANCH   7   8
ATOM      8  C   UNL     1       1.802  11.271  25.442  0.00  0.00    +0.000 C 
ATOM      9  O   UNL     1       1.248  10.782  26.415  0.00  0.00    +0.000 OA
ATOM     10  N   UNL     1       2.679  10.620  24.603  0.00  0.00    +0.000 N 
ATOM     11  H   UNL     1       3.051  11.164  23.835  0.00  0.00    +0.000 HD
BRANCH  10  12
ATOM     12  C   UNL     1       3.117   9.343  24.655  0.00  0.00    +0.000 C 
ATOM     13  C   UNL     1       3.503   8.207  24.697  0.00  0.00    +0.000 C 
BRANCH  13  14
ATOM     14  C   UNL     1       3.992   6.757  24.740  0.00  0.00    +0.000 C 
BRANCH  14  15
ATOM     15  C   UNL     1       4.490   5.309  24.788  0.00  0.00    +0.000 C 
ATOM     16  C   UNL     1       4.880   4.174  24.829  0.00  0.00    +0.000 C 
BRANCH  16  17
ATOM     17  N   UNL     1       5.315   2.901  24.880  0.00  0.00    +0.000 N 
ATOM     18  C   UNL     1       6.372   2.330  25.549  0.00  0.00    +0.000 C 
ATOM     19  O   UNL     1       7.201   2.838  26.283  0.00  0.00    +0.000 OA
ATOM     20  C   UNL     1       6.618   0.849  25.410  0.00  0.00    +0.000 C 
BRANCH  17  21
ATOM     21  O   UNL     1       4.478   2.087  24.073  0.00  0.00    +0.000 OA
ATOM     22  H   UNL     1       3.963   2.741  23.557  0.00  0.00    +0.000 HD
ENDBRANCH  17  21
ENDBRANCH  16  17
ENDBRANCH  14  15
ENDBRANCH  13  14
ENDBRANCH  10  12
ENDBRANCH   7   8
ENDBRANCH   4   6
BRANCH   3  23
ATOM     23  O   UNL     1      -0.735  14.364  23.159  0.00  0.00    +0.000 OA
ATOM     24  H   UNL     1      -0.546  13.700  23.849  0.00  0.00    +0.000 HD
ENDBRANCH   3  23
ENDBRANCH   2   3
BRANCH   1  25
ATOM     25  C   UNL     1      -1.659  18.959  22.429  0.00  0.00    +0.000 C 
ATOM     26  C   UNL     1      -2.151  19.993  22.075  0.00  0.00    +0.000 C 
BRANCH  26  27
ATOM     27  C   UNL     1      -2.771  21.316  21.611  0.00  0.00    +0.000 C 
BRANCH  27  28
ATOM     28  N   UNL     1      -3.301  22.487  21.196  0.00  0.00    +0.000 N 
ATOM     29  C   UNL     1      -4.493  22.718  20.551  0.00  0.00    +0.000 C 
ATOM     30  O   UNL     1      -5.309  21.867  20.230  0.00  0.00    +0.000 OA
ATOM     31  H   UNL     1      -2.732  23.299  21.402  0.00  0.00    +0.000 HD
BRANCH  29  32
ATOM     32  C   UNL     1      -4.769  24.101  20.245  0.00  0.00    +0.000 C 
ATOM     33  C   UNL     1      -5.022  25.246  19.983  0.00  0.00    +0.000 C 
BRANCH  33  34
ATOM     34  C   UNL     1      -5.348  26.622  19.671  0.00  0.00    +0.000 C 
ATOM     35  O   UNL     1      -6.362  27.095  20.174  0.00  0.00    +0.000 OA
ATOM     36  N   UNL     1      -4.510  27.294  18.796  0.00  0.00    +0.000 N 
BRANCH  36  37
ATOM     37  C   UNL     1      -4.473  28.593  18.437  0.00  0.00    +0.000 C 
ATOM     38  C   UNL     1      -4.444  29.749  18.116  0.00  0.00    +0.000 C 
BRANCH  38  39
ATOM     39  C   UNL     1      -4.410  31.224  17.700  0.00  0.00    +0.000 C 
ATOM     40  C   UNL     1      -4.380  32.379  17.379  0.00  0.00    +0.000 C 
BRANCH  40  41
ATOM     41  C   UNL     1      -4.340  33.855  16.973  0.00  0.00    +0.000 C 
BRANCH  41  42
ATOM     42  N   UNL     1      -4.303  35.256  16.587  0.00  0.00    +0.000 NA
ATOM     43  H   UNL     1      -4.033  35.348  15.609  0.00  0.00    +0.000 HD
ATOM     44  H   UNL     1      -5.231  35.670  16.663  0.00  0.00    +0.000 HD
ENDBRANCH  41  42
ENDBRANCH  40  41
ENDBRANCH  38  39
ENDBRANCH  36  37
BRANCH  36  45
ATOM     45  O   UNL     1      -3.278  26.681  18.473  0.00  0.00    +0.000 OA
ATOM     46  H   UNL     1      -2.720  26.961  19.223  0.00  0.00    +0.000 HD
ENDBRANCH  36  45
ENDBRANCH  33  34
ENDBRANCH  29  32
ENDBRANCH  27  28
ENDBRANCH  26  27
ENDBRANCH   1  25
TORSDOF 19
ENDMDL
MODEL 2
REMARK VINA RESULT:      -4.7     25.518     31.736
REMARK  Name = Deferoxamine.pdbqt.pdb
REMARK  19 active torsions:
REMARK  status: ('A' for Active; 'I' for Inactive)
REMARK    1  A    between atoms: C_1  and  C_2
REMARK    2  A    between atoms: C_3  and  C_4
REMARK    3  A    between atoms: C_4  and  N_5
REMARK    4  A    between atoms: C_6  and  C_9
REMARK    5  A    between atoms: C_10  and  C_11
REMARK    6  A    between atoms: N_13  and  O_14
REMARK    7  A    between atoms: N_13  and  C_16
REMARK    8  A    between atoms: C_17  and  C_18
REMARK    9  A    between atoms: C_19  and  C_20
REMARK   10  A    between atoms: C_20  and  N_21
REMARK   11  A    between atoms: C_24  and  N_25
REMARK   12  A    between atoms: N_25  and  O_28
REMARK   13  A    between atoms: C_26  and  C_30
REMARK   14  A    between atoms: C_31  and  C_32
REMARK   15  A    between atoms: N_34  and  C_36
REMARK   16  A    between atoms: C_37  and  C_38
REMARK   17  A    between atoms: C_38  and  C_39
REMARK   18  A    between atoms: C_40  and  N_41
REMARK   19  A    between atoms: N_41  and  O_45
REMARK                            x       y       z     vdW  Elec       q    Type
REMARK                         _______ _______ _______ _____ _____    ______ ____
ROOT
ATOM      1  C   UNL     1      15.603  20.672   2.093  0.00  0.00    +0.000 C 
ATOM      2  C   UNL     1      16.128  21.752   2.109  0.00  0.00    +0.000 C 
ENDROOT
BRANCH   2   3
ATOM      3  N   UNL     1      16.718  22.965   2.128  0.00  0.00    +0.000 N 
ATOM      4  C   UNL     1      16.347  24.159   1.533  0.00  0.00    +0.000 C 
ATOM      5  O   UNL     1      15.453  24.280   0.702  0.00  0.00    +0.000 OA
BRANCH   4   6
ATOM      6  C   UNL     1      17.095  25.345   1.894  0.00  0.00    +0.000 C 
ATOM      7  C   UNL     1      17.717  26.333   2.180  0.00  0.00    +0.000 C 
BRANCH   7   8
ATOM      8  C   UNL     1      18.475  27.516   2.504  0.00  0.00    +0.000 C 
ATOM      9  O   UNL     1      19.223  27.990   1.661  0.00  0.00    +0.000 OA
ATOM     10  N   UNL     1      18.274  28.012   3.772  0.00  0.00    +0.000 N 
ATOM     11  H   UNL     1      17.615  27.506   4.351  0.00  0.00    +0.000 HD
BRANCH  10  12
ATOM     12  C   UNL     1      18.831  29.092   4.361  0.00  0.00    +0.000 C 
ATOM     13  C   UNL     1      19.322  30.055   4.883  0.00  0.00    +0.000 C 
BRANCH  13  14
ATOM     14  C   UNL     1      19.941  31.289   5.547  0.00  0.00    +0.000 C 
BRANCH  14  15
ATOM     15  C   UNL     1      20.553  32.528   6.207  0.00  0.00    +0.000 C 
ATOM     16  C   UNL     1      21.035  33.498   6.724  0.00  0.00    +0.000 C 
BRANCH  16  17
ATOM     17  N   UNL     1      21.582  34.587   7.299  0.00  0.00    +0.000 N 
ATOM     18  C   UNL     1      21.004  35.689   7.885  0.00  0.00    +0.000 C 
ATOM     19  O   UNL     1      19.829  35.968   8.041  0.00  0.00    +0.000 OA
ATOM     20  C   UNL     1      21.890  36.771   8.450  0.00  0.00    +0.000 C 
BRANCH  17  21
ATOM     21  O   UNL     1      22.996  34.490   7.237  0.00  0.00    +0.000 OA
ATOM     22  H   UNL     1      23.171  34.412   6.276  0.00  0.00    +0.000 HD
ENDBRANCH  17  21
ENDBRANCH  16  17
ENDBRANCH  14  15
ENDBRANCH  13  14
ENDBRANCH  10  12
ENDBRANCH   7   8
ENDBRANCH   4   6
BRANCH   3  23
ATOM     23  O   UNL     1      17.618  23.031   3.215  0.00  0.00    +0.000 OA
ATOM     24  H   UNL     1      17.075  22.668   3.939  0.00  0.00    +0.000 HD
ENDBRANCH   3  23
ENDBRANCH   2   3
BRANCH   1  25
ATOM     25  C   UNL     1      14.924  19.299   2.085  0.00  0.00    +0.000 C 
ATOM     26  C   UNL     1      14.388  18.226   2.091  0.00  0.00    +0.000 C 
BRANCH  26  27
ATOM     27  C   UNL     1      13.700  16.857   2.113  0.00  0.00    +0.000 C 
BRANCH  27  28
ATOM     28  N   UNL     1      13.110  15.642   2.138  0.00  0.00    +0.000 N 
ATOM     29  C   UNL     1      11.996  15.235   2.833  0.00  0.00    +0.000 C 
ATOM     30  O   UNL     1      11.323  15.932   3.578  0.00  0.00    +0.000 OA
ATOM     31  H   UNL     1      13.558  14.949   1.552  0.00  0.00    +0.000 HD
BRANCH  29  32
ATOM     32  C   UNL     1      11.618  13.856   2.636  0.00  0.00    +0.000 C 
ATOM     33  C   UNL     1      11.304  12.705   2.497  0.00  0.00    +0.000 C 
BRANCH  33  34
ATOM     34  C   UNL     1      10.914  11.318   2.348  0.00  0.00    +0.000 C 
ATOM     35  O   UNL     1      10.828  10.870   1.210  0.00  0.00    +0.000 OA
ATOM     36  N   UNL     1      10.630  10.608   3.503  0.00  0.00    +0.000 N 
BRANCH  36  37
ATOM     37  C   UNL     1      10.387   9.294   3.691  0.00  0.00    +0.000 C 
ATOM     38  C   UNL     1      10.172   8.126   3.861  0.00  0.00    +0.000 C 
BRANCH  38  39
ATOM     39  C   UNL     1       9.905   6.633   4.079  0.00  0.00    +0.000 C 
ATOM     40  C   UNL     1       9.697   5.463   4.245  0.00  0.00    +0.000 C 
BRANCH  40  41
ATOM     41  C   UNL     1       9.431   3.970   4.452  0.00  0.00    +0.000 C 
BRANCH  41  42
ATOM     42  N   UNL     1       9.178   2.552   4.649  0.00  0.00    +0.000 NA
ATOM     43  H   UNL     1       9.183   2.324   5.642  0.00  0.00    +0.000 HD
ATOM     44  H   UNL     1       8.250   2.305   4.308  0.00  0.00    +0.000 HD
ENDBRANCH  41  42
ENDBRANCH  40  41
ENDBRANCH  38  39
ENDBRANCH  36  37
BRANCH  36  45
ATOM     45  O   UNL     1      10.979  11.203   4.737  0.00  0.00    +0.000 OA
ATOM     46  H   UNL     1      10.133  11.607   5.003  0.00  0.00    +0.000 HD
ENDBRANCH  36  45
ENDBRANCH  33  34
ENDBRANCH  29  32
ENDBRANCH  27  28
ENDBRANCH  26  27
ENDBRANCH   1  25
TORSDOF 19
ENDMDL
MODEL 3
REMARK VINA RESULT:      -4.4     25.023     27.495
REMARK  Name = Deferoxamine.pdbqt.pdb
REMARK  19 active torsions:
REMARK  status: ('A' for Active; 'I' for Inactive)
REMARK    1  A    between atoms: C_1  and  C_2
REMARK    2  A    between atoms: C_3  and  C_4
REMARK    3  A    between atoms: C_4  and  N_5
REMARK    4  A    between atoms: C_6  and  C_9
REMARK    5  A    between atoms: C_10  and  C_11
REMARK    6  A    between atoms: N_13  and  O_14
REMARK    7  A    between atoms: N_13  and  C_16
REMARK    8  A    between atoms: C_17  and  C_18
REMARK    9  A    between atoms: C_19  and  C_20
REMARK   10  A    between atoms: C_20  and  N_21
REMARK   11  A    between atoms: C_24  and  N_25
REMARK   12  A    between atoms: N_25  and  O_28
REMARK   13  A    between atoms: C_26  and  C_30
REMARK   14  A    between atoms: C_31  and  C_32
REMARK   15  A    between atoms: N_34  and  C_36
REMARK   16  A    between atoms: C_37  and  C_38
REMARK   17  A    between atoms: C_38  and  C_39
REMARK   18  A    between atoms: C_40  and  N_41
REMARK   19  A    between atoms: N_41  and  O_45
REMARK                            x       y       z     vdW  Elec       q    Type
REMARK                         _______ _______ _______ _____ _____    ______ ____
ROOT
ATOM      1  C   UNL     1      17.132  30.676   9.335  0.00  0.00    +0.000 C 
ATOM      2  C   UNL     1      18.073  30.366   8.656  0.00  0.00    +0.000 C 
ENDROOT
BRANCH   2   3
ATOM      3  N   UNL     1      19.131  30.019   7.893  0.00  0.00    +0.000 N 
ATOM      4  C   UNL     1      20.239  30.749   7.501  0.00  0.00    +0.000 C 
ATOM      5  O   UNL     1      20.372  31.959   7.655  0.00  0.00    +0.000 OA
BRANCH   4   6
ATOM      6  C   UNL     1      21.305  30.035   6.829  0.00  0.00    +0.000 C 
ATOM      7  C   UNL     1      22.193  29.454   6.265  0.00  0.00    +0.000 C 
BRANCH   7   8
ATOM      8  C   UNL     1      23.255  28.771   5.568  0.00  0.00    +0.000 C 
ATOM      9  O   UNL     1      24.315  29.353   5.387  0.00  0.00    +0.000 OA
ATOM     10  N   UNL     1      22.961  27.489   5.164  0.00  0.00    +0.000 N 
ATOM     11  H   UNL     1      22.036  27.148   5.396  0.00  0.00    +0.000 HD
BRANCH  10  12
ATOM     12  C   UNL     1      23.738  26.607   4.499  0.00  0.00    +0.000 C 
ATOM     13  C   UNL     1      24.432  25.822   3.913  0.00  0.00    +0.000 C 
BRANCH  13  14
ATOM     14  C   UNL     1      25.321  24.817   3.174  0.00  0.00    +0.000 C 
BRANCH  14  15
ATOM     15  C   UNL     1      26.213  23.810   2.443  0.00  0.00    +0.000 C 
ATOM     16  C   UNL     1      26.910  23.018   1.871  0.00  0.00    +0.000 C 
BRANCH  16  17
ATOM     17  N   UNL     1      27.688  22.124   1.229  0.00  0.00    +0.000 N 
ATOM     18  C   UNL     1      27.555  20.767   1.056  0.00  0.00    +0.000 C 
ATOM     19  O   UNL     1      26.682  20.009   1.441  0.00  0.00    +0.000 OA
ATOM     20  C   UNL     1      28.608  20.017   0.278  0.00  0.00    +0.000 C 
BRANCH  17  21
ATOM     21  O   UNL     1      28.810  22.792   0.675  0.00  0.00    +0.000 OA
ATOM     22  H   UNL     1      28.800  22.506  -0.261  0.00  0.00    +0.000 HD
ENDBRANCH  17  21
ENDBRANCH  16  17
ENDBRANCH  14  15
ENDBRANCH  13  14
ENDBRANCH  10  12
ENDBRANCH   7   8
ENDBRANCH   4   6
BRANCH   3  23
ATOM     23  O   UNL     1      19.225  28.610   7.837  0.00  0.00    +0.000 OA
ATOM     24  H   UNL     1      20.086  28.491   7.395  0.00  0.00    +0.000 HD
ENDBRANCH   3  23
ENDBRANCH   2   3
BRANCH   1  25
ATOM     25  C   UNL     1      15.934  31.087  10.195  0.00  0.00    +0.000 C 
ATOM     26  C   UNL     1      14.993  31.418  10.861  0.00  0.00    +0.000 C 
BRANCH  26  27
ATOM     27  C   UNL     1      13.788  31.853  11.702  0.00  0.00    +0.000 C 
BRANCH  27  28
ATOM     28  N   UNL     1      12.726  32.252  12.435  0.00  0.00    +0.000 N 
ATOM     29  C   UNL     1      12.517  33.450  13.076  0.00  0.00    +0.000 C 
ATOM     30  O   UNL     1      13.291  34.397  13.092  0.00  0.00    +0.000 OA
ATOM     31  H   UNL     1      11.987  31.565  12.507  0.00  0.00    +0.000 HD
BRANCH  29  32
ATOM     32  C   UNL     1      11.263  33.562  13.779  0.00  0.00    +0.000 C 
ATOM     33  C   UNL     1      10.228  33.646  14.383  0.00  0.00    +0.000 C 
BRANCH  33  34
ATOM     34  C   UNL     1       8.992  33.749  15.132  0.00  0.00    +0.000 C 
ATOM     35  O   UNL     1       8.356  32.718  15.326  0.00  0.00    +0.000 OA
ATOM     36  N   UNL     1       8.597  35.012  15.541  0.00  0.00    +0.000 N 
BRANCH  36  37
ATOM     37  C   UNL     1       7.595  35.399  16.357  0.00  0.00    +0.000 C 
ATOM     38  C   UNL     1       6.704  35.740  17.084  0.00  0.00    +0.000 C 
BRANCH  38  39
ATOM     39  C   UNL     1       5.563  36.170  18.012  0.00  0.00    +0.000 C 
ATOM     40  C   UNL     1       4.667  36.501  18.739  0.00  0.00    +0.000 C 
BRANCH  40  41
ATOM     41  C   UNL     1       3.523  36.920  19.666  0.00  0.00    +0.000 C 
BRANCH  41  42
ATOM     42  N   UNL     1       2.437  37.317  20.546  0.00  0.00    +0.000 NA
ATOM     43  H   UNL     1       2.115  36.522  21.095  0.00  0.00    +0.000 HD
ATOM     44  H   UNL     1       2.759  38.012  21.218  0.00  0.00    +0.000 HD
ENDBRANCH  41  42
ENDBRANCH  40  41
ENDBRANCH  38  39
ENDBRANCH  36  37
BRANCH  36  45
ATOM     45  O   UNL     1       9.539  36.059  15.422  0.00  0.00    +0.000 OA
ATOM     46  H   UNL     1       9.239  36.669  16.122  0.00  0.00    +0.000 HD
ENDBRANCH  36  45
ENDBRANCH  33  34
ENDBRANCH  29  32
ENDBRANCH  27  28
ENDBRANCH  26  27
ENDBRANCH   1  25
TORSDOF 19
ENDMDL
MODEL 4
REMARK VINA RESULT:      -4.1     25.497     32.199
REMARK  Name = Deferoxamine.pdbqt.pdb
REMARK  19 active torsions:
REMARK  status: ('A' for Active; 'I' for Inactive)
REMARK    1  A    between atoms: C_1  and  C_2
REMARK    2  A    between atoms: C_3  and  C_4
REMARK    3  A    between atoms: C_4  and  N_5
REMARK    4  A    between atoms: C_6  and  C_9
REMARK    5  A    between atoms: C_10  and  C_11
REMARK    6  A    between atoms: N_13  and  O_14
REMARK    7  A    between atoms: N_13  and  C_16
REMARK    8  A    between atoms: C_17  and  C_18
REMARK    9  A    between atoms: C_19  and  C_20
REMARK   10  A    between atoms: C_20  and  N_21
REMARK   11  A    between atoms: C_24  and  N_25
REMARK   12  A    between atoms: N_25  and  O_28
REMARK   13  A    between atoms: C_26  and  C_30
REMARK   14  A    between atoms: C_31  and  C_32
REMARK   15  A    between atoms: N_34  and  C_36
REMARK   16  A    between atoms: C_37  and  C_38
REMARK   17  A    between atoms: C_38  and  C_39
REMARK   18  A    between atoms: C_40  and  N_41
REMARK   19  A    between atoms: N_41  and  O_45
REMARK                            x       y       z     vdW  Elec       q    Type
REMARK                         _______ _______ _______ _____ _____    ______ ____
ROOT
ATOM      1  C   UNL     1      18.110  31.529   9.029  0.00  0.00    +0.000 C 
ATOM      2  C   UNL     1      17.379  32.187   9.719  0.00  0.00    +0.000 C 
ENDROOT
BRANCH   2   3
ATOM      3  N   UNL     1      16.560  32.927  10.494  0.00  0.00    +0.000 N 
ATOM      4  C   UNL     1      16.531  34.290  10.734  0.00  0.00    +0.000 C 
ATOM      5  O   UNL     1      17.402  35.081  10.389  0.00  0.00    +0.000 OA
BRANCH   4   6
ATOM      6  C   UNL     1      15.403  34.812  11.478  0.00  0.00    +0.000 C 
ATOM      7  C   UNL     1      14.463  35.232  12.097  0.00  0.00    +0.000 C 
BRANCH   7   8
ATOM      8  C   UNL     1      13.321  35.719  12.832  0.00  0.00    +0.000 C 
ATOM      9  O   UNL     1      13.223  36.919  13.047  0.00  0.00    +0.000 OA
ATOM     10  N   UNL     1      12.425  34.753  13.230  0.00  0.00    +0.000 N 
ATOM     11  H   UNL     1      12.648  33.801  12.967  0.00  0.00    +0.000 HD
BRANCH  10  12
ATOM     12  C   UNL     1      11.275  34.894  13.924  0.00  0.00    +0.000 C 
ATOM     13  C   UNL     1      10.255  35.016  14.544  0.00  0.00    +0.000 C 
BRANCH  13  14
ATOM     14  C   UNL     1       8.957  35.167  15.344  0.00  0.00    +0.000 C 
BRANCH  14  15
ATOM     15  C   UNL     1       7.657  35.310  16.141  0.00  0.00    +0.000 C 
ATOM     16  C   UNL     1       6.639  35.421  16.767  0.00  0.00    +0.000 C 
BRANCH  16  17
ATOM     17  N   UNL     1       5.500  35.544  17.476  0.00  0.00    +0.000 N 
ATOM     18  C   UNL     1       5.239  36.174  18.669  0.00  0.00    +0.000 C 
ATOM     19  O   UNL     1       5.982  36.799  19.405  0.00  0.00    +0.000 OA
ATOM     20  C   UNL     1       3.839  36.139  19.230  0.00  0.00    +0.000 C 
BRANCH  17  21
ATOM     21  O   UNL     1       4.451  34.872  16.796  0.00  0.00    +0.000 OA
ATOM     22  H   UNL     1       4.860  34.632  15.939  0.00  0.00    +0.000 HD
ENDBRANCH  17  21
ENDBRANCH  16  17
ENDBRANCH  14  15
ENDBRANCH  13  14
ENDBRANCH  10  12
ENDBRANCH   7   8
ENDBRANCH   4   6
BRANCH   3  23
ATOM     23  O   UNL     1      15.384  32.191  10.768  0.00  0.00    +0.000 OA
ATOM     24  H   UNL     1      15.328  31.616   9.983  0.00  0.00    +0.000 HD
ENDBRANCH   3  23
ENDBRANCH   2   3
BRANCH   1  25
ATOM     25  C   UNL     1      19.044  30.679   8.163  0.00  0.00    +0.000 C 
ATOM     26  C   UNL     1      19.786  30.022   7.487  0.00  0.00    +0.000 C 
BRANCH  26  27
ATOM     27  C   UNL     1      20.744  29.191   6.628  0.00  0.00    +0.000 C 
BRANCH  27  28
ATOM     28  N   UNL     1      21.603  28.467   5.877  0.00  0.00    +0.000 N 
ATOM     29  C   UNL     1      22.945  28.243   6.071  0.00  0.00    +0.000 C 
ATOM     30  O   UNL     1      23.618  28.680   6.994  0.00  0.00    +0.000 OA
ATOM     31  H   UNL     1      21.182  28.030   5.067  0.00  0.00    +0.000 HD
BRANCH  29  32
ATOM     32  C   UNL     1      23.581  27.413   5.077  0.00  0.00    +0.000 C 
ATOM     33  C   UNL     1      24.128  26.717   4.265  0.00  0.00    +0.000 C 
BRANCH  33  34
ATOM     34  C   UNL     1      24.796  25.865   3.302  0.00  0.00    +0.000 C 
ATOM     35  O   UNL     1      24.533  26.032   2.115  0.00  0.00    +0.000 OA
ATOM     36  N   UNL     1      25.656  24.898   3.795  0.00  0.00    +0.000 N 
BRANCH  36  37
ATOM     37  C   UNL     1      26.510  24.072   3.156  0.00  0.00    +0.000 C 
ATOM     38  C   UNL     1      27.269  23.339   2.584  0.00  0.00    +0.000 C 
BRANCH  38  39
ATOM     39  C   UNL     1      28.232  22.401   1.850  0.00  0.00    +0.000 C 
ATOM     40  C   UNL     1      28.987  21.663   1.279  0.00  0.00    +0.000 C 
BRANCH  40  41
ATOM     41  C   UNL     1      29.950  20.719   0.553  0.00  0.00    +0.000 C 
BRANCH  41  42
ATOM     42  N   UNL     1      30.863  19.823  -0.136  0.00  0.00    +0.000 NA
ATOM     43  H   UNL     1      31.666  19.612   0.454  0.00  0.00    +0.000 HD
ATOM     44  H   UNL     1      30.410  18.930  -0.325  0.00  0.00    +0.000 HD
ENDBRANCH  41  42
ENDBRANCH  40  41
ENDBRANCH  38  39
ENDBRANCH  36  37
BRANCH  36  45
ATOM     45  O   UNL     1      26.009  24.974   5.161  0.00  0.00    +0.000 OA
ATOM     46  H   UNL     1      26.725  24.314   5.213  0.00  0.00    +0.000 HD
ENDBRANCH  36  45
ENDBRANCH  33  34
ENDBRANCH  29  32
ENDBRANCH  27  28
ENDBRANCH  26  27
ENDBRANCH   1  25
TORSDOF 19
ENDMDL
MODEL 5
REMARK VINA RESULT:      -4.1     27.478     32.714
REMARK  Name = Deferoxamine.pdbqt.pdb
REMARK  19 active torsions:
REMARK  status: ('A' for Active; 'I' for Inactive)
REMARK    1  A    between atoms: C_1  and  C_2
REMARK    2  A    between atoms: C_3  and  C_4
REMARK    3  A    between atoms: C_4  and  N_5
REMARK    4  A    between atoms: C_6  and  C_9
REMARK    5  A    between atoms: C_10  and  C_11
REMARK    6  A    between atoms: N_13  and  O_14
REMARK    7  A    between atoms: N_13  and  C_16
REMARK    8  A    between atoms: C_17  and  C_18
REMARK    9  A    between atoms: C_19  and  C_20
REMARK   10  A    between atoms: C_20  and  N_21
REMARK   11  A    between atoms: C_24  and  N_25
REMARK   12  A    between atoms: N_25  and  O_28
REMARK   13  A    between atoms: C_26  and  C_30
REMARK   14  A    between atoms: C_31  and  C_32
REMARK   15  A    between atoms: N_34  and  C_36
REMARK   16  A    between atoms: C_37  and  C_38
REMARK   17  A    between atoms: C_38  and  C_39
REMARK   18  A    between atoms: C_40  and  N_41
REMARK   19  A    between atoms: N_41  and  O_45
REMARK                            x       y       z     vdW  Elec       q    Type
REMARK                         _______ _______ _______ _____ _____    ______ ____
ROOT
ATOM      1  C   UNL     1      18.668  -2.221  14.380  0.00  0.00    +0.000 C 
ATOM      2  C   UNL     1      19.427  -1.832  13.534  0.00  0.00    +0.000 C 
ENDROOT
BRANCH   2   3
ATOM      3  N   UNL     1      20.279  -1.393  12.585  0.00  0.00    +0.000 N 
ATOM      4  C   UNL     1      20.262  -1.559  11.211  0.00  0.00    +0.000 C 
ATOM      5  O   UNL     1      19.513  -2.318  10.605  0.00  0.00    +0.000 OA
BRANCH   4   6
ATOM      6  C   UNL     1      21.225  -0.804  10.436  0.00  0.00    +0.000 C 
ATOM      7  C   UNL     1      22.030  -0.189   9.789  0.00  0.00    +0.000 C 
BRANCH   7   8
ATOM      8  C   UNL     1      23.013   0.532   9.019  0.00  0.00    +0.000 C 
ATOM      9  O   UNL     1      23.430   0.040   7.980  0.00  0.00    +0.000 OA
ATOM     10  N   UNL     1      23.397   1.744   9.546  0.00  0.00    +0.000 N 
ATOM     11  H   UNL     1      22.953   2.014  10.415  0.00  0.00    +0.000 HD
BRANCH  10  12
ATOM     12  C   UNL     1      24.287   2.638   9.064  0.00  0.00    +0.000 C 
ATOM     13  C   UNL     1      25.074   3.437   8.636  0.00  0.00    +0.000 C 
BRANCH  13  14
ATOM     14  C   UNL     1      26.072   4.464   8.092  0.00  0.00    +0.000 C 
BRANCH  14  15
ATOM     15  C   UNL     1      27.077   5.485   7.552  0.00  0.00    +0.000 C 
ATOM     16  C   UNL     1      27.867   6.285   7.130  0.00  0.00    +0.000 C 
BRANCH  16  17
ATOM     17  N   UNL     1      28.758   7.178   6.658  0.00  0.00    +0.000 N 
ATOM     18  C   UNL     1      29.741   7.899   7.293  0.00  0.00    +0.000 C 
ATOM     19  O   UNL     1      30.068   7.915   8.467  0.00  0.00    +0.000 OA
ATOM     20  C   UNL     1      30.598   8.844   6.488  0.00  0.00    +0.000 C 
BRANCH  17  21
ATOM     21  O   UNL     1      28.569   7.335   5.261  0.00  0.00    +0.000 OA
ATOM     22  H   UNL     1      29.481   7.460   4.926  0.00  0.00    +0.000 HD
ENDBRANCH  17  21
ENDBRANCH  16  17
ENDBRANCH  14  15
ENDBRANCH  13  14
ENDBRANCH  10  12
ENDBRANCH   7   8
ENDBRANCH   4   6
BRANCH   3  23
ATOM     23  O   UNL     1      21.051  -0.329  13.103  0.00  0.00    +0.000 OA
ATOM     24  H   UNL     1      20.914  -0.440  14.063  0.00  0.00    +0.000 HD
ENDBRANCH   3  23
ENDBRANCH   2   3
BRANCH   1  25
ATOM     25  C   UNL     1      17.688  -2.717  15.446  0.00  0.00    +0.000 C 
ATOM     26  C   UNL     1      16.921  -3.119  16.277  0.00  0.00    +0.000 C 
BRANCH  26  27
ATOM     27  C   UNL     1      15.942  -3.645  17.332  0.00  0.00    +0.000 C 
BRANCH  27  28
ATOM     28  N   UNL     1      15.067  -4.109  18.250  0.00  0.00    +0.000 N 
ATOM     29  C   UNL     1      13.693  -4.126  18.205  0.00  0.00    +0.000 C 
ATOM     30  O   UNL     1      13.002  -3.705  17.288  0.00  0.00    +0.000 OA
ATOM     31  H   UNL     1      15.498  -4.502  19.077  0.00  0.00    +0.000 HD
BRANCH  29  32
ATOM     32  C   UNL     1      13.046  -4.701  19.359  0.00  0.00    +0.000 C 
ATOM     33  C   UNL     1      12.494  -5.160  20.322  0.00  0.00    +0.000 C 
BRANCH  33  34
ATOM     34  C   UNL     1      11.808  -5.703  21.477  0.00  0.00    +0.000 C 
ATOM     35  O   UNL     1      11.314  -6.821  21.372  0.00  0.00    +0.000 OA
ATOM     36  N   UNL     1      11.728  -4.904  22.605  0.00  0.00    +0.000 N 
BRANCH  36  37
ATOM     37  C   UNL     1      11.291  -5.182  23.851  0.00  0.00    +0.000 C 
ATOM     38  C   UNL     1      10.903  -5.426  24.960  0.00  0.00    +0.000 C 
BRANCH  38  39
ATOM     39  C   UNL     1      10.414  -5.735  26.379  0.00  0.00    +0.000 C 
ATOM     40  C   UNL     1      10.027  -5.980  27.488  0.00  0.00    +0.000 C 
BRANCH  40  41
ATOM     41  C   UNL     1       9.530  -6.295  28.901  0.00  0.00    +0.000 C 
BRANCH  41  42
ATOM     42  N   UNL     1       9.058  -6.594  30.243  0.00  0.00    +0.000 NA
ATOM     43  H   UNL     1       8.168  -6.131  30.418  0.00  0.00    +0.000 HD
ATOM     44  H   UNL     1       8.881  -7.592  30.344  0.00  0.00    +0.000 HD
ENDBRANCH  41  42
ENDBRANCH  40  41
ENDBRANCH  38  39
ENDBRANCH  36  37
BRANCH  36  45
ATOM     45  O   UNL     1      12.525  -3.737  22.636  0.00  0.00    +0.000 OA
ATOM     46  H   UNL     1      12.437  -3.467  23.568  0.00  0.00    +0.000 HD
ENDBRANCH  36  45
ENDBRANCH  33  34
ENDBRANCH  29  32
ENDBRANCH  27  28
ENDBRANCH  26  27
ENDBRANCH   1  25
TORSDOF 19
ENDMDL
MODEL 6
REMARK VINA RESULT:      -4.1     30.346     31.793
REMARK  Name = Deferoxamine.pdbqt.pdb
REMARK  19 active torsions:
REMARK  status: ('A' for Active; 'I' for Inactive)
REMARK    1  A    between atoms: C_1  and  C_2
REMARK    2  A    between atoms: C_3  and  C_4
REMARK    3  A    between atoms: C_4  and  N_5
REMARK    4  A    between atoms: C_6  and  C_9
REMARK    5  A    between atoms: C_10  and  C_11
REMARK    6  A    between atoms: N_13  and  O_14
REMARK    7  A    between atoms: N_13  and  C_16
REMARK    8  A    between atoms: C_17  and  C_18
REMARK    9  A    between atoms: C_19  and  C_20
REMARK   10  A    between atoms: C_20  and  N_21
REMARK   11  A    between atoms: C_24  and  N_25
REMARK   12  A    between atoms: N_25  and  O_28
REMARK   13  A    between atoms: C_26  and  C_30
REMARK   14  A    between atoms: C_31  and  C_32
REMARK   15  A    between atoms: N_34  and  C_36
REMARK   16  A    between atoms: C_37  and  C_38
REMARK   17  A    between atoms: C_38  and  C_39
REMARK   18  A    between atoms: C_40  and  N_41
REMARK   19  A    between atoms: N_41  and  O_45
REMARK                            x       y       z     vdW  Elec       q    Type
REMARK                         _______ _______ _______ _____ _____    ______ ____
ROOT
ATOM      1  C   UNL     1      29.404  11.212  14.437  0.00  0.00    +0.000 C 
ATOM      2  C   UNL     1      29.419  10.177  13.828  0.00  0.00    +0.000 C 
ENDROOT
BRANCH   2   3
ATOM      3  N   UNL     1      29.438   9.013  13.145  0.00  0.00    +0.000 N 
ATOM      4  C   UNL     1      30.384   8.003  13.108  0.00  0.00    +0.000 C 
ATOM      5  O   UNL     1      31.508   8.078  13.594  0.00  0.00    +0.000 OA
BRANCH   4   6
ATOM      6  C   UNL     1      30.029   6.782  12.415  0.00  0.00    +0.000 C 
ATOM      7  C   UNL     1      29.740   5.762  11.850  0.00  0.00    +0.000 C 
BRANCH   7   8
ATOM      8  C   UNL     1      29.412   4.527  11.182  0.00  0.00    +0.000 C 
ATOM      9  O   UNL     1      30.243   3.631  11.149  0.00  0.00    +0.000 OA
ATOM     10  N   UNL     1      28.151   4.476  10.630  0.00  0.00    +0.000 N 
ATOM     11  H   UNL     1      27.578   5.302  10.748  0.00  0.00    +0.000 HD
BRANCH  10  12
ATOM     12  C   UNL     1      27.561   3.470   9.949  0.00  0.00    +0.000 C 
ATOM     13  C   UNL     1      27.031   2.578   9.347  0.00  0.00    +0.000 C 
BRANCH  13  14
ATOM     14  C   UNL     1      26.346   1.442   8.580  0.00  0.00    +0.000 C 
BRANCH  14  15
ATOM     15  C   UNL     1      25.663   0.311   7.807  0.00  0.00    +0.000 C 
ATOM     16  C   UNL     1      25.130  -0.577   7.200  0.00  0.00    +0.000 C 
BRANCH  16  17
ATOM     17  N   UNL     1      24.537  -1.579   6.521  0.00  0.00    +0.000 N 
ATOM     18  C   UNL     1      23.630  -1.561   5.488  0.00  0.00    +0.000 C 
ATOM     19  O   UNL     1      23.121  -0.618   4.908  0.00  0.00    +0.000 OA
ATOM     20  C   UNL     1      23.132  -2.867   4.923  0.00  0.00    +0.000 C 
BRANCH  17  21
ATOM     21  O   UNL     1      24.987  -2.823   7.034  0.00  0.00    +0.000 OA
ATOM     22  H   UNL     1      24.481  -3.476   6.507  0.00  0.00    +0.000 HD
ENDBRANCH  17  21
ENDBRANCH  16  17
ENDBRANCH  14  15
ENDBRANCH  13  14
ENDBRANCH  10  12
ENDBRANCH   7   8
ENDBRANCH   4   6
BRANCH   3  23
ATOM     23  O   UNL     1      28.126   8.693  12.729  0.00  0.00    +0.000 OA
ATOM     24  H   UNL     1      27.646   8.703  13.578  0.00  0.00    +0.000 HD
ENDBRANCH   3  23
ENDBRANCH   2   3
BRANCH   1  25
ATOM     25  C   UNL     1      29.398  12.536  15.206  0.00  0.00    +0.000 C 
ATOM     26  C   UNL     1      29.397  13.580  15.797  0.00  0.00    +0.000 C 
BRANCH  26  27
ATOM     27  C   UNL     1      29.400  14.920  16.540  0.00  0.00    +0.000 C 
BRANCH  27  28
ATOM     28  N   UNL     1      29.387  16.096  17.204  0.00  0.00    +0.000 N 
ATOM     29  C   UNL     1      29.009  17.340  16.756  0.00  0.00    +0.000 C 
ATOM     30  O   UNL     1      28.603  17.602  15.633  0.00  0.00    +0.000 OA
ATOM     31  H   UNL     1      29.696  16.035  18.166  0.00  0.00    +0.000 HD
BRANCH  29  32
ATOM     32  C   UNL     1      29.112  18.402  17.727  0.00  0.00    +0.000 C 
ATOM     33  C   UNL     1      29.217  19.295  18.523  0.00  0.00    +0.000 C 
BRANCH  33  34
ATOM     34  C   UNL     1      29.350  20.386  19.467  0.00  0.00    +0.000 C 
ATOM     35  O   UNL     1      30.230  20.298  20.318  0.00  0.00    +0.000 OA
ATOM     36  N   UNL     1      28.449  21.432  19.364  0.00  0.00    +0.000 N 
BRANCH  36  37
ATOM     37  C   UNL     1      28.412  22.626  19.992  0.00  0.00    +0.000 C 
ATOM     38  C   UNL     1      28.378  23.690  20.547  0.00  0.00    +0.000 C 
BRANCH  38  39
ATOM     39  C   UNL     1      28.337  25.050  21.250  0.00  0.00    +0.000 C 
ATOM     40  C   UNL     1      28.300  26.117  21.798  0.00  0.00    +0.000 C 
BRANCH  40  41
ATOM     41  C   UNL     1      28.249  27.479  22.495  0.00  0.00    +0.000 C 
BRANCH  41  42
ATOM     42  N   UNL     1      28.201  28.772  23.157  0.00  0.00    +0.000 NA
ATOM     43  H   UNL     1      27.481  29.359  22.739  0.00  0.00    +0.000 HD
ATOM     44  H   UNL     1      27.940  28.661  24.136  0.00  0.00    +0.000 HD
ENDBRANCH  41  42
ENDBRANCH  40  41
ENDBRANCH  38  39
ENDBRANCH  36  37
BRANCH  36  45
ATOM     45  O   UNL     1      27.637  21.483  18.209  0.00  0.00    +0.000 OA
ATOM     46  H   UNL     1      26.756  21.300  18.583  0.00  0.00    +0.000 HD
ENDBRANCH  36  45
ENDBRANCH  33  34
ENDBRANCH  29  32
ENDBRANCH  27  28
ENDBRANCH  26  27
ENDBRANCH   1  25
TORSDOF 19
ENDMDL
MODEL 7
REMARK VINA RESULT:      -4.0     16.376     24.563
REMARK  Name = Deferoxamine.pdbqt.pdb
REMARK  19 active torsions:
REMARK  status: ('A' for Active; 'I' for Inactive)
REMARK    1  A    between atoms: C_1  and  C_2
REMARK    2  A    between atoms: C_3  and  C_4
REMARK    3  A    between atoms: C_4  and  N_5
REMARK    4  A    between atoms: C_6  and  C_9
REMARK    5  A    between atoms: C_10  and  C_11
REMARK    6  A    between atoms: N_13  and  O_14
REMARK    7  A    between atoms: N_13  and  C_16
REMARK    8  A    between atoms: C_17  and  C_18
REMARK    9  A    between atoms: C_19  and  C_20
REMARK   10  A    between atoms: C_20  and  N_21
REMARK   11  A    between atoms: C_24  and  N_25
REMARK   12  A    between atoms: N_25  and  O_28
REMARK   13  A    between atoms: C_26  and  C_30
REMARK   14  A    between atoms: C_31  and  C_32
REMARK   15  A    between atoms: N_34  and  C_36
REMARK   16  A    between atoms: C_37  and  C_38
REMARK   17  A    between atoms: C_38  and  C_39
REMARK   18  A    between atoms: C_40  and  N_41
REMARK   19  A    between atoms: N_41  and  O_45
REMARK                            x       y       z     vdW  Elec       q    Type
REMARK                         _______ _______ _______ _____ _____    ______ ____
ROOT
ATOM      1  C   UNL     1       7.393   6.133  28.168  0.00  0.00    +0.000 C 
ATOM      2  C   UNL     1       7.666   7.182  28.685  0.00  0.00    +0.000 C 
ENDROOT
BRANCH   2   3
ATOM      3  N   UNL     1       7.973   8.361  29.265  0.00  0.00    +0.000 N 
ATOM      4  C   UNL     1       8.412   8.651  30.545  0.00  0.00    +0.000 C 
ATOM      5  O   UNL     1       8.439   7.850  31.474  0.00  0.00    +0.000 OA
BRANCH   4   6
ATOM      6  C   UNL     1       8.838  10.009  30.814  0.00  0.00    +0.000 C 
ATOM      7  C   UNL     1       9.181  11.136  31.047  0.00  0.00    +0.000 C 
BRANCH   7   8
ATOM      8  C   UNL     1       9.571  12.495  31.332  0.00  0.00    +0.000 C 
ATOM      9  O   UNL     1       8.955  13.123  32.180  0.00  0.00    +0.000 OA
ATOM     10  N   UNL     1      10.635  12.966  30.597  0.00  0.00    +0.000 N 
ATOM     11  H   UNL     1      11.043  12.318  29.935  0.00  0.00    +0.000 HD
BRANCH  10  12
ATOM     12  C   UNL     1      11.225  14.181  30.635  0.00  0.00    +0.000 C 
ATOM     13  C   UNL     1      11.754  15.257  30.669  0.00  0.00    +0.000 C 
BRANCH  13  14
ATOM     14  C   UNL     1      12.437  16.628  30.710  0.00  0.00    +0.000 C 
BRANCH  14  15
ATOM     15  C   UNL     1      13.128  17.993  30.753  0.00  0.00    +0.000 C 
ATOM     16  C   UNL     1      13.671  19.064  30.790  0.00  0.00    +0.000 C 
BRANCH  16  17
ATOM     17  N   UNL     1      14.286  20.261  30.835  0.00  0.00    +0.000 N 
ATOM     18  C   UNL     1      15.357  20.704  31.575  0.00  0.00    +0.000 C 
ATOM     19  O   UNL     1      16.041  20.115  32.393  0.00  0.00    +0.000 OA
ATOM     20  C   UNL     1      15.827  22.128  31.412  0.00  0.00    +0.000 C 
BRANCH  17  21
ATOM     21  O   UNL     1      13.644  21.151  29.934  0.00  0.00    +0.000 OA
ATOM     22  H   UNL     1      14.338  21.818  29.750  0.00  0.00    +0.000 HD
ENDBRANCH  17  21
ENDBRANCH  16  17
ENDBRANCH  14  15
ENDBRANCH  13  14
ENDBRANCH  10  12
ENDBRANCH   7   8
ENDBRANCH   4   6
BRANCH   3  23
ATOM     23  O   UNL     1       8.205   9.330  28.262  0.00  0.00    +0.000 OA
ATOM     24  H   UNL     1       9.083   9.668  28.518  0.00  0.00    +0.000 HD
ENDBRANCH   3  23
ENDBRANCH   2   3
BRANCH   1  25
ATOM     25  C   UNL     1       7.060   4.795  27.502  0.00  0.00    +0.000 C 
ATOM     26  C   UNL     1       6.796   3.742  26.993  0.00  0.00    +0.000 C 
BRANCH  26  27
ATOM     27  C   UNL     1       6.455   2.391  26.355  0.00  0.00    +0.000 C 
BRANCH  27  28
ATOM     28  N   UNL     1       6.137   1.202  25.797  0.00  0.00    +0.000 N 
ATOM     29  C   UNL     1       6.565   0.662  24.608  0.00  0.00    +0.000 C 
ATOM     30  O   UNL     1       7.337   1.188  23.820  0.00  0.00    +0.000 OA
ATOM     31  H   UNL     1       5.500   0.641  26.348  0.00  0.00    +0.000 HD
BRANCH  29  32
ATOM     32  C   UNL     1       6.034  -0.644  24.299  0.00  0.00    +0.000 C 
ATOM     33  C   UNL     1       5.597  -1.727  24.018  0.00  0.00    +0.000 C 
BRANCH  33  34
ATOM     34  C   UNL     1       5.084  -3.034  23.663  0.00  0.00    +0.000 C 
ATOM     35  O   UNL     1       4.215  -3.519  24.380  0.00  0.00    +0.000 OA
ATOM     36  N   UNL     1       5.640  -3.659  22.559  0.00  0.00    +0.000 N 
BRANCH  36  37
ATOM     37  C   UNL     1       5.281  -4.787  21.913  0.00  0.00    +0.000 C 
ATOM     38  C   UNL     1       4.962  -5.793  21.341  0.00  0.00    +0.000 C 
BRANCH  38  39
ATOM     39  C   UNL     1       4.561  -7.080  20.613  0.00  0.00    +0.000 C 
ATOM     40  C   UNL     1       4.250  -8.087  20.039  0.00  0.00    +0.000 C 
BRANCH  40  41
ATOM     41  C   UNL     1       3.856  -9.370  19.303  0.00  0.00    +0.000 C 
BRANCH  41  42
ATOM     42  N   UNL     1       3.482 -10.589  18.604  0.00  0.00    +0.000 NA
ATOM     43  H   UNL     1       2.876 -10.374  17.814  0.00  0.00    +0.000 HD
ATOM     44  H   UNL     1       4.306 -11.041  18.212  0.00  0.00    +0.000 HD
ENDBRANCH  41  42
ENDBRANCH  40  41
ENDBRANCH  38  39
ENDBRANCH  36  37
BRANCH  36  45
ATOM     45  O   UNL     1       6.476  -2.884  21.723  0.00  0.00    +0.000 OA
ATOM     46  H   UNL     1       7.361  -3.154  22.030  0.00  0.00    +0.000 HD
ENDBRANCH  36  45
ENDBRANCH  33  34
ENDBRANCH  29  32
ENDBRANCH  27  28
ENDBRANCH  26  27
ENDBRANCH   1  25
TORSDOF 19
ENDMDL
MODEL 8
REMARK VINA RESULT:      -3.9      3.272      6.810
REMARK  Name = Deferoxamine.pdbqt.pdb
REMARK  19 active torsions:
REMARK  status: ('A' for Active; 'I' for Inactive)
REMARK    1  A    between atoms: C_1  and  C_2
REMARK    2  A    between atoms: C_3  and  C_4
REMARK    3  A    between atoms: C_4  and  N_5
REMARK    4  A    between atoms: C_6  and  C_9
REMARK    5  A    between atoms: C_10  and  C_11
REMARK    6  A    between atoms: N_13  and  O_14
REMARK    7  A    between atoms: N_13  and  C_16
REMARK    8  A    between atoms: C_17  and  C_18
REMARK    9  A    between atoms: C_19  and  C_20
REMARK   10  A    between atoms: C_20  and  N_21
REMARK   11  A    between atoms: C_24  and  N_25
REMARK   12  A    between atoms: N_25  and  O_28
REMARK   13  A    between atoms: C_26  and  C_30
REMARK   14  A    between atoms: C_31  and  C_32
REMARK   15  A    between atoms: N_34  and  C_36
REMARK   16  A    between atoms: C_37  and  C_38
REMARK   17  A    between atoms: C_38  and  C_39
REMARK   18  A    between atoms: C_40  and  N_41
REMARK   19  A    between atoms: N_41  and  O_45
REMARK                            x       y       z     vdW  Elec       q    Type
REMARK                         _______ _______ _______ _____ _____    ______ ____
ROOT
ATOM      1  C   UNL     1       0.882  11.576  23.847  0.00  0.00    +0.000 C 
ATOM      2  C   UNL     1       1.442  10.525  24.003  0.00  0.00    +0.000 C 
ENDROOT
BRANCH   2   3
ATOM      3  N   UNL     1       2.071   9.344  24.180  0.00  0.00    +0.000 N 
ATOM      4  C   UNL     1       2.760   8.843  25.271  0.00  0.00    +0.000 C 
ATOM      5  O   UNL     1       3.073   9.495  26.262  0.00  0.00    +0.000 OA
BRANCH   4   6
ATOM      6  C   UNL     1       3.169   7.455  25.221  0.00  0.00    +0.000 C 
ATOM      7  C   UNL     1       3.522   6.307  25.186  0.00  0.00    +0.000 C 
BRANCH   7   8
ATOM      8  C   UNL     1       3.967   4.936  25.140  0.00  0.00    +0.000 C 
ATOM      9  O   UNL     1       4.297   4.384  26.180  0.00  0.00    +0.000 OA
ATOM     10  N   UNL     1       3.975   4.364  23.887  0.00  0.00    +0.000 N 
ATOM     11  H   UNL     1       3.667   4.954  23.125  0.00  0.00    +0.000 HD
BRANCH  10  12
ATOM     12  C   UNL     1       4.336   3.114  23.525  0.00  0.00    +0.000 C 
ATOM     13  C   UNL     1       4.651   2.001  23.206  0.00  0.00    +0.000 C 
BRANCH  13  14
ATOM     14  C   UNL     1       5.044   0.577  22.799  0.00  0.00    +0.000 C 
BRANCH  14  15
ATOM     15  C   UNL     1       5.429  -0.847  22.390  0.00  0.00    +0.000 C 
ATOM     16  C   UNL     1       5.732  -1.964  22.072  0.00  0.00    +0.000 C 
BRANCH  16  17
ATOM     17  N   UNL     1       6.074  -3.219  21.722  0.00  0.00    +0.000 N 
ATOM     18  C   UNL     1       6.054  -3.858  20.504  0.00  0.00    +0.000 C 
ATOM     19  O   UNL     1       5.720  -3.444  19.408  0.00  0.00    +0.000 OA
ATOM     20  C   UNL     1       6.500  -5.296  20.419  0.00  0.00    +0.000 C 
BRANCH  17  21
ATOM     21  O   UNL     1       6.511  -3.925  22.872  0.00  0.00    +0.000 OA
ATOM     22  H   UNL     1       7.487  -3.905  22.787  0.00  0.00    +0.000 HD
ENDBRANCH  17  21
ENDBRANCH  16  17
ENDBRANCH  14  15
ENDBRANCH  13  14
ENDBRANCH  10  12
ENDBRANCH   7   8
ENDBRANCH   4   6
BRANCH   3  23
ATOM     23  O   UNL     1       1.605   8.417  23.221  0.00  0.00    +0.000 OA
ATOM     24  H   UNL     1       0.642   8.563  23.263  0.00  0.00    +0.000 HD
ENDBRANCH   3  23
ENDBRANCH   2   3
BRANCH   1  25
ATOM     25  C   UNL     1       0.183  12.924  23.650  0.00  0.00    +0.000 C 
ATOM     26  C   UNL     1      -0.367  13.980  23.509  0.00  0.00    +0.000 C 
BRANCH  26  27
ATOM     27  C   UNL     1      -1.072  15.331  23.343  0.00  0.00    +0.000 C 
BRANCH  27  28
ATOM     28  N   UNL     1      -1.709  16.512  23.193  0.00  0.00    +0.000 N 
ATOM     29  C   UNL     1      -1.248  17.783  23.443  0.00  0.00    +0.000 C 
ATOM     30  O   UNL     1      -0.136  18.070  23.862  0.00  0.00    +0.000 OA
ATOM     31  H   UNL     1      -2.655  16.434  22.841  0.00  0.00    +0.000 HD
BRANCH  29  32
ATOM     32  C   UNL     1      -2.188  18.844  23.174  0.00  0.00    +0.000 C 
ATOM     33  C   UNL     1      -2.968  19.723  22.926  0.00  0.00    +0.000 C 
BRANCH  33  34
ATOM     34  C   UNL     1      -3.914  20.772  22.608  0.00  0.00    +0.000 C 
ATOM     35  O   UNL     1      -5.024  20.715  23.128  0.00  0.00    +0.000 OA
ATOM     36  N   UNL     1      -3.511  21.745  21.709  0.00  0.00    +0.000 N 
BRANCH  36  37
ATOM     37  C   UNL     1      -4.102  22.899  21.336  0.00  0.00    +0.000 C 
ATOM     38  C   UNL     1      -4.631  23.923  21.002  0.00  0.00    +0.000 C 
BRANCH  38  39
ATOM     39  C   UNL     1      -5.306  25.228  20.570  0.00  0.00    +0.000 C 
ATOM     40  C   UNL     1      -5.833  26.253  20.236  0.00  0.00    +0.000 C 
BRANCH  40  41
ATOM     41  C   UNL     1      -6.504  27.563  19.813  0.00  0.00    +0.000 C 
BRANCH  41  42
ATOM     42  N   UNL     1      -7.140  28.807  19.411  0.00  0.00    +0.000 NA
ATOM     43  H   UNL     1      -8.093  28.633  19.094  0.00  0.00    +0.000 HD
ATOM     44  H   UNL     1      -7.219  29.439  20.206  0.00  0.00    +0.000 HD
ENDBRANCH  41  42
ENDBRANCH  40  41
ENDBRANCH  38  39
ENDBRANCH  36  37
BRANCH  36  45
ATOM     45  O   UNL     1      -2.140  21.786  21.365  0.00  0.00    +0.000 OA
ATOM     46  H   UNL     1      -1.875  20.861  21.516  0.00  0.00    +0.000 HD
ENDBRANCH  36  45
ENDBRANCH  33  34
ENDBRANCH  29  32
ENDBRANCH  27  28
ENDBRANCH  26  27
ENDBRANCH   1  25
TORSDOF 19
ENDMDL
MODEL 9
REMARK VINA RESULT:      -3.9     30.254     31.518
REMARK  Name = Deferoxamine.pdbqt.pdb
REMARK  19 active torsions:
REMARK  status: ('A' for Active; 'I' for Inactive)
REMARK    1  A    between atoms: C_1  and  C_2
REMARK    2  A    between atoms: C_3  and  C_4
REMARK    3  A    between atoms: C_4  and  N_5
REMARK    4  A    between atoms: C_6  and  C_9
REMARK    5  A    between atoms: C_10  and  C_11
REMARK    6  A    between atoms: N_13  and  O_14
REMARK    7  A    between atoms: N_13  and  C_16
REMARK    8  A    between atoms: C_17  and  C_18
REMARK    9  A    between atoms: C_19  and  C_20
REMARK   10  A    between atoms: C_20  and  N_21
REMARK   11  A    between atoms: C_24  and  N_25
REMARK   12  A    between atoms: N_25  and  O_28
REMARK   13  A    between atoms: C_26  and  C_30
REMARK   14  A    between atoms: C_31  and  C_32
REMARK   15  A    between atoms: N_34  and  C_36
REMARK   16  A    between atoms: C_37  and  C_38
REMARK   17  A    between atoms: C_38  and  C_39
REMARK   18  A    between atoms: C_40  and  N_41
REMARK   19  A    between atoms: N_41  and  O_45
REMARK                            x       y       z     vdW  Elec       q    Type
REMARK                         _______ _______ _______ _____ _____    ______ ____
ROOT
ATOM      1  C   UNL     1      21.597  34.644  14.982  0.00  0.00    +0.000 C 
ATOM      2  C   UNL     1      21.736  35.089  16.089  0.00  0.00    +0.000 C 
ENDROOT
BRANCH   2   3
ATOM      3  N   UNL     1      21.892  35.587  17.333  0.00  0.00    +0.000 N 
ATOM      4  C   UNL     1      21.091  36.440  18.072  0.00  0.00    +0.000 C 
ATOM      5  O   UNL     1      20.126  37.054  17.628  0.00  0.00    +0.000 OA
BRANCH   4   6
ATOM      6  C   UNL     1      21.440  36.648  19.462  0.00  0.00    +0.000 C 
ATOM      7  C   UNL     1      21.729  36.806  20.617  0.00  0.00    +0.000 C 
BRANCH   7   8
ATOM      8  C   UNL     1      22.062  36.978  22.010  0.00  0.00    +0.000 C 
ATOM      9  O   UNL     1      22.821  37.881  22.331  0.00  0.00    +0.000 OA
ATOM     10  N   UNL     1      21.471  36.079  22.869  0.00  0.00    +0.000 N 
ATOM     11  H   UNL     1      20.861  35.392  22.446  0.00  0.00    +0.000 HD
BRANCH  10  12
ATOM     12  C   UNL     1      21.585  35.985  24.212  0.00  0.00    +0.000 C 
ATOM     13  C   UNL     1      21.691  35.897  25.404  0.00  0.00    +0.000 C 
BRANCH  13  14
ATOM     14  C   UNL     1      21.836  35.783  26.924  0.00  0.00    +0.000 C 
BRANCH  14  15
ATOM     15  C   UNL     1      21.973  35.664  28.445  0.00  0.00    +0.000 C 
ATOM     16  C   UNL     1      22.081  35.573  29.637  0.00  0.00    +0.000 C 
BRANCH  16  17
ATOM     17  N   UNL     1      22.202  35.478  30.975  0.00  0.00    +0.000 N 
ATOM     18  C   UNL     1      21.837  36.341  31.982  0.00  0.00    +0.000 C 
ATOM     19  O   UNL     1      21.297  37.431  31.922  0.00  0.00    +0.000 OA
ATOM     20  C   UNL     1      22.109  35.958  33.415  0.00  0.00    +0.000 C 
BRANCH  17  21
ATOM     21  O   UNL     1      22.827  34.247  31.303  0.00  0.00    +0.000 OA
ATOM     22  H   UNL     1      23.374  34.059  30.513  0.00  0.00    +0.000 HD
ENDBRANCH  17  21
ENDBRANCH  16  17
ENDBRANCH  14  15
ENDBRANCH  13  14
ENDBRANCH  10  12
ENDBRANCH   7   8
ENDBRANCH   4   6
BRANCH   3  23
ATOM     23  O   UNL     1      22.828  34.798  18.039  0.00  0.00    +0.000 OA
ATOM     24  H   UNL     1      23.162  35.435  18.697  0.00  0.00    +0.000 HD
ENDBRANCH   3  23
ENDBRANCH   2   3
BRANCH   1  25
ATOM     25  C   UNL     1      21.421  34.063  13.576  0.00  0.00    +0.000 C 
ATOM     26  C   UNL     1      21.283  33.595  12.481  0.00  0.00    +0.000 C 
BRANCH  26  27
ATOM     27  C   UNL     1      21.105  32.985  11.086  0.00  0.00    +0.000 C 
BRANCH  27  28
ATOM     28  N   UNL     1      20.947  32.463   9.851  0.00  0.00    +0.000 N 
ATOM     29  C   UNL     1      21.847  31.759   9.085  0.00  0.00    +0.000 C 
ATOM     30  O   UNL     1      22.991  31.475   9.408  0.00  0.00    +0.000 OA
ATOM     31  H   UNL     1      20.030  32.614   9.449  0.00  0.00    +0.000 HD
BRANCH  29  32
ATOM     32  C   UNL     1      21.359  31.334   7.796  0.00  0.00    +0.000 C 
ATOM     33  C   UNL     1      20.949  30.958   6.731  0.00  0.00    +0.000 C 
BRANCH  33  34
ATOM     34  C   UNL     1      20.443  30.490   5.458  0.00  0.00    +0.000 C 
ATOM     35  O   UNL     1      20.731  31.138   4.457  0.00  0.00    +0.000 OA
ATOM     36  N   UNL     1      19.637  29.363   5.467  0.00  0.00    +0.000 N 
BRANCH  36  37
ATOM     37  C   UNL     1      19.147  28.624   4.451  0.00  0.00    +0.000 C 
ATOM     38  C   UNL     1      18.711  27.963   3.549  0.00  0.00    +0.000 C 
BRANCH  38  39
ATOM     39  C   UNL     1      18.159  27.114   2.398  0.00  0.00    +0.000 C 
ATOM     40  C   UNL     1      17.732  26.447   1.498  0.00  0.00    +0.000 C 
BRANCH  40  41
ATOM     41  C   UNL     1      17.190  25.594   0.348  0.00  0.00    +0.000 C 
BRANCH  41  42
ATOM     42  N   UNL     1      16.675  24.783  -0.743  0.00  0.00    +0.000 NA
ATOM     43  H   UNL     1      16.610  25.335  -1.597  0.00  0.00    +0.000 HD
ATOM     44  H   UNL     1      17.316  24.018  -0.951  0.00  0.00    +0.000 HD
ENDBRANCH  41  42
ENDBRANCH  40  41
ENDBRANCH  38  39
ENDBRANCH  36  37
BRANCH  36  45
ATOM     45  O   UNL     1      19.574  28.617   6.665  0.00  0.00    +0.000 OA
ATOM     46  H   UNL     1      19.451  27.712   6.323  0.00  0.00    +0.000 HD
ENDBRANCH  36  45
ENDBRANCH  33  34
ENDBRANCH  29  32
ENDBRANCH  27  28
ENDBRANCH  26  27
ENDBRANCH   1  25
TORSDOF 19
ENDMDL
