MODEL 1
REMARK VINA RESULT:      -6.4      0.000      0.000
REMARK  Name = 
REMARK  25 active torsions:
REMARK  status: ('A' for Active; 'I' for Inactive)
REMARK    1  A    between atoms: O_2  and  C_17
REMARK    2  A    between atoms: O_2  and  C_36
REMARK    3  A    between atoms: O_3  and  C_20
REMARK    4  A    between atoms: O_3  and  C_37
REMARK    5  A    between atoms: O_4  and  C_21
REMARK    6  A    between atoms: O_5  and  C_22
REMARK    7  A    between atoms: O_7  and  C_30
REMARK    8  A    between atoms: O_8  and  C_31
REMARK    9  A    between atoms: O_8  and  C_39
REMARK   10  A    between atoms: O_12  and  C_41
REMARK   11  A    between atoms: O_13  and  C_51
REMARK   12  A    between atoms: O_13  and  C_55
REMARK   13  A    between atoms: N_15  and  C_44
REMARK   14  A    between atoms: C_18  and  C_29
REMARK   15  A    between atoms: C_24  and  C_33
REMARK   16  A    between atoms: C_24  and  C_34
REMARK   17  A    between atoms: C_32  and  C_35
REMARK   18  A    between atoms: C_36  and  C_38
REMARK   19  A    between atoms: C_37  and  C_40
REMARK   20  A    between atoms: C_39  and  C_41
REMARK   21  A    between atoms: C_41  and  C_44
REMARK   22  A    between atoms: C_44  and  C_48
REMARK   23  A    between atoms: C_55  and  C_56
REMARK   24  A    between atoms: C_55  and  C_57
REMARK   25  A    between atoms: C_55  and  C_58
REMARK                            x       y       z     vdW  Elec       q    Type
REMARK                         _______ _______ _______ _____ _____    ______ ____
ROOT
ATOM      1  O   UNL     1       3.294  23.724  30.721  0.00  0.00    +0.000 OA
ATOM      2  O   UNL     1       7.703  27.080  34.523  0.00  0.00    +0.000 OA
ATOM      3  C   UNL     1       6.423  25.158  30.778  0.00  0.00    +0.000 C 
ATOM      4  C   UNL     1       5.421  23.971  30.670  0.00  0.00    +0.000 C 
ATOM      5  C   UNL     1       6.783  25.412  32.624  0.00  0.00    +0.000 C 
ATOM      6  C   UNL     1       4.182  24.692  31.343  0.00  0.00    +0.000 C 
ATOM      7  C   UNL     1       7.784  25.047  29.509  0.00  0.00    +0.000 C 
ATOM      8  C   UNL     1       9.359  25.935  28.944  0.00  0.00    +0.000 C 
ATOM      9  C   UNL     1       5.366  25.768  33.239  0.00  0.00    +0.000 C 
ATOM     10  C   UNL     1       4.207  24.798  32.852  0.00  0.00    +0.000 C 
ATOM     11  C   UNL     1      10.270  27.211  29.776  0.00  0.00    +0.000 C 
ATOM     12  C   UNL     1       4.279  23.687  29.614  0.00  0.00    +0.000 C 
ATOM     13  C   UNL     1       8.015  26.598  33.412  0.00  0.00    +0.000 C 
ATOM     14  C   UNL     1      10.479  24.798  28.864  0.00  0.00    +0.000 C 
ATOM     15  C   UNL     1      10.650  26.785  31.271  0.00  0.00    +0.000 C 
ATOM     16  C   UNL     1       7.167  24.058  33.356  0.00  0.00    +0.000 C 
ATOM     17  C   UNL     1       9.717  27.178  32.742  0.00  0.00    +0.000 C 
ATOM     18  C   UNL     1      11.456  24.622  30.114  0.00  0.00    +0.000 C 
ATOM     19  C   UNL     1      11.444  25.662  31.291  0.00  0.00    +0.000 C 
ATOM     20  C   UNL     1      11.656  27.398  28.978  0.00  0.00    +0.000 C 
ATOM     21  C   UNL     1       9.821  28.699  29.617  0.00  0.00    +0.000 C 
ATOM     22  C   UNL     1      12.150  25.192  32.538  0.00  0.00    +0.000 C 
ENDROOT
BRANCH  17  23
ATOM     23  O   UNL     1       9.949  28.570  32.960  0.00  0.00    +0.000 OA
ATOM     24  H   UNL     1      10.613  28.822  32.290  0.00  0.00    +0.000 HD
ENDBRANCH  17  23
BRANCH   9  25
ATOM     25  O   UNL     1       4.985  27.068  32.786  0.00  0.00    +0.000 OA
ATOM     26  H   UNL     1       4.881  27.013  31.819  0.00  0.00    +0.000 HD
ENDBRANCH   9  25
BRANCH   8  27
ATOM     27  O   UNL     1       9.082  26.338  27.588  0.00  0.00    +0.000 OA
ATOM     28  H   UNL     1       9.852  26.818  27.235  0.00  0.00    +0.000 HD
ENDBRANCH   8  27
BRANCH  18  29
ATOM     29  O   UNL     1      11.186  23.318  30.704  0.00  0.00    +0.000 OA
BRANCH  29  31
ATOM     30  O   UNL     1      12.799  22.317  29.480  0.00  0.00    +0.000 OA
ATOM     31  C   UNL     1      12.078  22.322  30.472  0.00  0.00    +0.000 C 
BRANCH  31  32
ATOM     32  C   UNL     1      12.001  21.139  31.443  0.00  0.00    +0.000 C 
BRANCH  32  33
ATOM     33  O   UNL     1      12.267  21.449  32.815  0.00  0.00    +0.000 OA
ATOM     34  H   UNL     1      11.463  21.888  33.153  0.00  0.00    +0.000 HD
ENDBRANCH  32  33
BRANCH  32  35
ATOM     35  C   UNL     1      12.937  20.015  30.922  0.00  0.00    +0.000 C 
BRANCH  35  36
ATOM     36  C   UNL     1      12.195  18.709  30.656  0.00  0.00    +0.000 A 
ATOM     37  C   UNL     1      11.695  18.446  29.371  0.00  0.00    +0.000 A 
ATOM     38  C   UNL     1      12.026  17.734  31.653  0.00  0.00    +0.000 A 
ATOM     39  C   UNL     1      11.022  17.253  29.097  0.00  0.00    +0.000 A 
ATOM     40  C   UNL     1      11.352  16.543  31.377  0.00  0.00    +0.000 A 
ATOM     41  C   UNL     1      10.848  16.304  30.100  0.00  0.00    +0.000 A 
ENDBRANCH  35  36
BRANCH  35  43
ATOM     42  O   UNL     1      15.574  21.157  30.925  0.00  0.00    +0.000 OA
ATOM     43  N   UNL     1      14.026  19.754  31.853  0.00  0.00    +0.000 N 
ATOM     44  C   UNL     1      15.273  20.268  31.704  0.00  0.00    +0.000 C 
ATOM     45  H   UNL     1      13.946  18.941  32.451  0.00  0.00    +0.000 HD
BRANCH  44  46
ATOM     46  O   UNL     1      16.101  19.653  32.575  0.00  0.00    +0.000 OA
BRANCH  46  47
ATOM     47  C   UNL     1      17.018  18.623  32.124  0.00  0.00    +0.000 C 
ATOM     48  C   UNL     1      18.311  19.231  31.570  0.00  0.00    +0.000 C 
ATOM     49  C   UNL     1      17.356  17.821  33.390  0.00  0.00    +0.000 C 
ATOM     50  C   UNL     1      16.348  17.686  31.114  0.00  0.00    +0.000 C 
ENDBRANCH  46  47
ENDBRANCH  44  46
ENDBRANCH  35  43
ENDBRANCH  32  35
ENDBRANCH  31  32
ENDBRANCH  29  31
ENDBRANCH  18  29
BRANCH   7  51
ATOM     51  O   UNL     1       8.486  24.441  30.443  0.00  0.00    +0.000 OA
BRANCH  51  53
ATOM     52  O   UNL     1       7.917  23.605  28.709  0.00  0.00    +0.000 OA
ATOM     53  C   UNL     1       8.350  23.237  29.796  0.00  0.00    +0.000 C 
BRANCH  53  54
ATOM     54  C   UNL     1       8.522  21.533  30.654  0.00  0.00    +0.000 A 
ATOM     55  C   UNL     1       8.710  21.322  32.089  0.00  0.00    +0.000 A 
ATOM     56  C   UNL     1       8.360  20.242  30.063  0.00  0.00    +0.000 A 
ATOM     57  C   UNL     1       8.735  20.084  32.780  0.00  0.00    +0.000 A 
ATOM     58  C   UNL     1       8.382  18.988  30.739  0.00  0.00    +0.000 A 
ATOM     59  C   UNL     1       8.569  18.906  32.098  0.00  0.00    +0.000 A 
ENDBRANCH  53  54
ENDBRANCH  51  53
ENDBRANCH   7  51
BRANCH   4  60
ATOM     60  O   UNL     1       5.881  22.795  31.376  0.00  0.00    +0.000 OA
BRANCH  60  62
ATOM     61  O   UNL     1       5.021  20.990  30.372  0.00  0.00    +0.000 OA
ATOM     62  C   UNL     1       5.211  21.619  31.410  0.00  0.00    +0.000 C 
ATOM     63  C   UNL     1       4.610  21.164  32.703  0.00  0.00    +0.000 C 
ENDBRANCH  60  62
ENDBRANCH   4  60
TORSDOF 17
ENDMDL
MODEL 2
REMARK VINA RESULT:      -5.8     17.288     22.321
REMARK  Name = 
REMARK  25 active torsions:
REMARK  status: ('A' for Active; 'I' for Inactive)
REMARK    1  A    between atoms: O_2  and  C_17
REMARK    2  A    between atoms: O_2  and  C_36
REMARK    3  A    between atoms: O_3  and  C_20
REMARK    4  A    between atoms: O_3  and  C_37
REMARK    5  A    between atoms: O_4  and  C_21
REMARK    6  A    between atoms: O_5  and  C_22
REMARK    7  A    between atoms: O_7  and  C_30
REMARK    8  A    between atoms: O_8  and  C_31
REMARK    9  A    between atoms: O_8  and  C_39
REMARK   10  A    between atoms: O_12  and  C_41
REMARK   11  A    between atoms: O_13  and  C_51
REMARK   12  A    between atoms: O_13  and  C_55
REMARK   13  A    between atoms: N_15  and  C_44
REMARK   14  A    between atoms: C_18  and  C_29
REMARK   15  A    between atoms: C_24  and  C_33
REMARK   16  A    between atoms: C_24  and  C_34
REMARK   17  A    between atoms: C_32  and  C_35
REMARK   18  A    between atoms: C_36  and  C_38
REMARK   19  A    between atoms: C_37  and  C_40
REMARK   20  A    between atoms: C_39  and  C_41
REMARK   21  A    between atoms: C_41  and  C_44
REMARK   22  A    between atoms: C_44  and  C_48
REMARK   23  A    between atoms: C_55  and  C_56
REMARK   24  A    between atoms: C_55  and  C_57
REMARK   25  A    between atoms: C_55  and  C_58
REMARK                            x       y       z     vdW  Elec       q    Type
REMARK                         _______ _______ _______ _____ _____    ______ ____
ROOT
ATOM      1  O   UNL     1      24.366   5.014  28.283  0.00  0.00    +0.000 OA
ATOM      2  O   UNL     1      27.309  10.591  30.605  0.00  0.00    +0.000 OA
ATOM      3  C   UNL     1      24.466   8.446  28.023  0.00  0.00    +0.000 C 
ATOM      4  C   UNL     1      24.643   6.989  27.501  0.00  0.00    +0.000 C 
ATOM      5  C   UNL     1      26.090   8.929  28.878  0.00  0.00    +0.000 C 
ATOM      6  C   UNL     1      24.713   6.277  28.913  0.00  0.00    +0.000 C 
ATOM      7  C   UNL     1      23.642   9.547  26.764  0.00  0.00    +0.000 C 
ATOM      8  C   UNL     1      23.095  11.341  26.499  0.00  0.00    +0.000 C 
ATOM      9  C   UNL     1      26.218   7.881  30.061  0.00  0.00    +0.000 C 
ATOM     10  C   UNL     1      26.029   6.387  29.655  0.00  0.00    +0.000 C 
ATOM     11  C   UNL     1      23.512  12.779  27.452  0.00  0.00    +0.000 C 
ATOM     12  C   UNL     1      23.585   5.828  27.322  0.00  0.00    +0.000 C 
ATOM     13  C   UNL     1      26.567  10.601  29.598  0.00  0.00    +0.000 C 
ATOM     14  C   UNL     1      23.697  11.760  25.079  0.00  0.00    +0.000 C 
ATOM     15  C   UNL     1      25.096  12.939  27.615  0.00  0.00    +0.000 C 
ATOM     16  C   UNL     1      27.360   8.620  27.980  0.00  0.00    +0.000 C 
ATOM     17  C   UNL     1      26.073  12.353  28.990  0.00  0.00    +0.000 C 
ATOM     18  C   UNL     1      25.081  12.558  25.061  0.00  0.00    +0.000 C 
ATOM     19  C   UNL     1      25.718  13.083  26.396  0.00  0.00    +0.000 C 
ATOM     20  C   UNL     1      22.997  14.060  26.623  0.00  0.00    +0.000 C 
ATOM     21  C   UNL     1      22.688  13.110  28.737  0.00  0.00    +0.000 C 
ATOM     22  C   UNL     1      27.162  13.500  26.269  0.00  0.00    +0.000 C 
ENDROOT
BRANCH  17  23
ATOM     23  O   UNL     1      25.759  13.240  30.064  0.00  0.00    +0.000 OA
ATOM     24  H   UNL     1      26.624  13.529  30.412  0.00  0.00    +0.000 HD
ENDBRANCH  17  23
BRANCH   9  25
ATOM     25  O   UNL     1      25.220   8.173  31.039  0.00  0.00    +0.000 OA
ATOM     26  H   UNL     1      25.045   7.346  31.524  0.00  0.00    +0.000 HD
ENDBRANCH   9  25
BRANCH   8  27
ATOM     27  O   UNL     1      21.665  11.263  26.334  0.00  0.00    +0.000 OA
ATOM     28  H   UNL     1      21.294  12.164  26.337  0.00  0.00    +0.000 HD
ENDBRANCH   8  27
BRANCH  18  29
ATOM     29  O   UNL     1      26.075  11.699  24.430  0.00  0.00    +0.000 OA
BRANCH  29  31
ATOM     30  O   UNL     1      25.358  11.846  22.294  0.00  0.00    +0.000 OA
ATOM     31  C   UNL     1      26.284  11.847  23.098  0.00  0.00    +0.000 C 
BRANCH  31  32
ATOM     32  C   UNL     1      27.754  11.846  22.665  0.00  0.00    +0.000 C 
BRANCH  32  33
ATOM     33  O   UNL     1      28.710  11.846  23.731  0.00  0.00    +0.000 OA
ATOM     34  H   UNL     1      28.791  10.918  24.021  0.00  0.00    +0.000 HD
ENDBRANCH  32  33
BRANCH  32  35
ATOM     35  C   UNL     1      27.980  13.038  21.696  0.00  0.00    +0.000 C 
BRANCH  35  36
ATOM     36  C   UNL     1      28.361  12.587  20.290  0.00  0.00    +0.000 A 
ATOM     37  C   UNL     1      28.910  13.515  19.390  0.00  0.00    +0.000 A 
ATOM     38  C   UNL     1      28.213  11.254  19.871  0.00  0.00    +0.000 A 
ATOM     39  C   UNL     1      29.278  13.127  18.099  0.00  0.00    +0.000 A 
ATOM     40  C   UNL     1      28.581  10.869  18.580  0.00  0.00    +0.000 A 
ATOM     41  C   UNL     1      29.110  11.805  17.694  0.00  0.00    +0.000 A 
ENDBRANCH  35  36
BRANCH  35  43
ATOM     42  O   UNL     1      27.637  15.407  23.286  0.00  0.00    +0.000 OA
ATOM     43  N   UNL     1      29.009  13.941  22.194  0.00  0.00    +0.000 N 
ATOM     44  C   UNL     1      28.732  15.096  22.850  0.00  0.00    +0.000 C 
ATOM     45  H   UNL     1      29.932  13.869  21.785  0.00  0.00    +0.000 HD
BRANCH  44  46
ATOM     46  O   UNL     1      29.870  15.814  22.958  0.00  0.00    +0.000 OA
BRANCH  46  47
ATOM     47  C   UNL     1      30.071  17.009  22.159  0.00  0.00    +0.000 C 
ATOM     48  C   UNL     1      29.043  17.105  21.028  0.00  0.00    +0.000 C 
ATOM     49  C   UNL     1      29.838  18.173  23.135  0.00  0.00    +0.000 C 
ATOM     50  C   UNL     1      31.509  17.090  21.634  0.00  0.00    +0.000 C 
ENDBRANCH  46  47
ENDBRANCH  44  46
ENDBRANCH  35  43
ENDBRANCH  32  35
ENDBRANCH  31  32
ENDBRANCH  29  31
ENDBRANCH  18  29
BRANCH   7  51
ATOM     51  O   UNL     1      24.859   9.886  26.395  0.00  0.00    +0.000 OA
BRANCH  51  53
ATOM     52  O   UNL     1      23.557   8.816  25.305  0.00  0.00    +0.000 OA
ATOM     53  C   UNL     1      24.725   9.181  25.224  0.00  0.00    +0.000 C 
BRANCH  53  54
ATOM     54  C   UNL     1      26.186   8.723  24.073  0.00  0.00    +0.000 A 
ATOM     55  C   UNL     1      27.589   8.635  24.479  0.00  0.00    +0.000 A 
ATOM     56  C   UNL     1      26.118   8.276  22.717  0.00  0.00    +0.000 A 
ATOM     57  C   UNL     1      28.686   8.198  23.693  0.00  0.00    +0.000 A 
ATOM     58  C   UNL     1      27.208   7.833  21.912  0.00  0.00    +0.000 A 
ATOM     59  C   UNL     1      28.492   7.793  22.398  0.00  0.00    +0.000 A 
ENDBRANCH  53  54
ENDBRANCH  51  53
ENDBRANCH   7  51
BRANCH   4  60
ATOM     60  O   UNL     1      25.835   6.832  26.695  0.00  0.00    +0.000 OA
BRANCH  60  62
ATOM     61  O   UNL     1      27.101   5.001  26.479  0.00  0.00    +0.000 OA
ATOM     62  C   UNL     1      26.175   5.689  26.056  0.00  0.00    +0.000 C 
ATOM     63  C   UNL     1      25.489   5.344  24.772  0.00  0.00    +0.000 C 
ENDBRANCH  60  62
ENDBRANCH   4  60
TORSDOF 17
ENDMDL
MODEL 3
REMARK VINA RESULT:      -5.6     17.367     22.727
REMARK  Name = 
REMARK  25 active torsions:
REMARK  status: ('A' for Active; 'I' for Inactive)
REMARK    1  A    between atoms: O_2  and  C_17
REMARK    2  A    between atoms: O_2  and  C_36
REMARK    3  A    between atoms: O_3  and  C_20
REMARK    4  A    between atoms: O_3  and  C_37
REMARK    5  A    between atoms: O_4  and  C_21
REMARK    6  A    between atoms: O_5  and  C_22
REMARK    7  A    between atoms: O_7  and  C_30
REMARK    8  A    between atoms: O_8  and  C_31
REMARK    9  A    between atoms: O_8  and  C_39
REMARK   10  A    between atoms: O_12  and  C_41
REMARK   11  A    between atoms: O_13  and  C_51
REMARK   12  A    between atoms: O_13  and  C_55
REMARK   13  A    between atoms: N_15  and  C_44
REMARK   14  A    between atoms: C_18  and  C_29
REMARK   15  A    between atoms: C_24  and  C_33
REMARK   16  A    between atoms: C_24  and  C_34
REMARK   17  A    between atoms: C_32  and  C_35
REMARK   18  A    between atoms: C_36  and  C_38
REMARK   19  A    between atoms: C_37  and  C_40
REMARK   20  A    between atoms: C_39  and  C_41
REMARK   21  A    between atoms: C_41  and  C_44
REMARK   22  A    between atoms: C_44  and  C_48
REMARK   23  A    between atoms: C_55  and  C_56
REMARK   24  A    between atoms: C_55  and  C_57
REMARK   25  A    between atoms: C_55  and  C_58
REMARK                            x       y       z     vdW  Elec       q    Type
REMARK                         _______ _______ _______ _____ _____    ______ ____
ROOT
ATOM      1  O   UNL     1      24.166   5.079  27.973  0.00  0.00    +0.000 OA
ATOM      2  O   UNL     1      27.414  10.450  30.373  0.00  0.00    +0.000 OA
ATOM      3  C   UNL     1      24.424   8.508  27.796  0.00  0.00    +0.000 C 
ATOM      4  C   UNL     1      24.522   7.058  27.234  0.00  0.00    +0.000 C 
ATOM      5  C   UNL     1      26.085   8.891  28.630  0.00  0.00    +0.000 C 
ATOM      6  C   UNL     1      24.585   6.307  28.627  0.00  0.00    +0.000 C 
ATOM      7  C   UNL     1      23.630   9.678  26.581  0.00  0.00    +0.000 C 
ATOM      8  C   UNL     1      23.164  11.502  26.371  0.00  0.00    +0.000 C 
ATOM      9  C   UNL     1      26.185   7.809  29.784  0.00  0.00    +0.000 C 
ATOM     10  C   UNL     1      25.917   6.336  29.345  0.00  0.00    +0.000 C 
ATOM     11  C   UNL     1      23.668  12.894  27.351  0.00  0.00    +0.000 C 
ATOM     12  C   UNL     1      23.407   5.953  27.048  0.00  0.00    +0.000 C 
ATOM     13  C   UNL     1      26.655  10.520  29.381  0.00  0.00    +0.000 C 
ATOM     14  C   UNL     1      23.760  11.929  24.951  0.00  0.00    +0.000 C 
ATOM     15  C   UNL     1      25.261  12.975  27.486  0.00  0.00    +0.000 C 
ATOM     16  C   UNL     1      27.322   8.546  27.700  0.00  0.00    +0.000 C 
ATOM     17  C   UNL     1      26.234  12.308  28.827  0.00  0.00    +0.000 C 
ATOM     18  C   UNL     1      25.179  12.660  24.924  0.00  0.00    +0.000 C 
ATOM     19  C   UNL     1      25.865  13.121  26.260  0.00  0.00    +0.000 C 
ATOM     20  C   UNL     1      23.199  14.219  26.564  0.00  0.00    +0.000 C 
ATOM     21  C   UNL     1      22.885  13.231  28.660  0.00  0.00    +0.000 C 
ATOM     22  C   UNL     1      27.325  13.472  26.114  0.00  0.00    +0.000 C 
ENDROOT
BRANCH  17  23
ATOM     23  O   UNL     1      25.982  13.182  29.928  0.00  0.00    +0.000 OA
ATOM     24  H   UNL     1      25.847  12.590  30.692  0.00  0.00    +0.000 HD
ENDBRANCH  17  23
BRANCH   9  25
ATOM     25  O   UNL     1      25.220   8.122  30.789  0.00  0.00    +0.000 OA
ATOM     26  H   UNL     1      25.536   7.727  31.621  0.00  0.00    +0.000 HD
ENDBRANCH   9  25
BRANCH   8  27
ATOM     27  O   UNL     1      21.730  11.496  26.233  0.00  0.00    +0.000 OA
ATOM     28  H   UNL     1      21.326  11.739  27.085  0.00  0.00    +0.000 HD
ENDBRANCH   8  27
BRANCH  18  29
ATOM     29  O   UNL     1      26.119  11.772  24.254  0.00  0.00    +0.000 OA
BRANCH  29  31
ATOM     30  O   UNL     1      25.590  11.692  22.059  0.00  0.00    +0.000 OA
ATOM     31  C   UNL     1      26.382  12.004  22.943  0.00  0.00    +0.000 C 
BRANCH  31  32
ATOM     32  C   UNL     1      27.792  12.524  22.642  0.00  0.00    +0.000 C 
BRANCH  32  33
ATOM     33  O   UNL     1      27.863  13.601  21.701  0.00  0.00    +0.000 OA
ATOM     34  H   UNL     1      27.383  14.347  22.109  0.00  0.00    +0.000 HD
ENDBRANCH  32  33
BRANCH  32  35
ATOM     35  C   UNL     1      28.674  11.325  22.203  0.00  0.00    +0.000 C 
BRANCH  35  36
ATOM     36  C   UNL     1      29.762  10.993  23.219  0.00  0.00    +0.000 A 
ATOM     37  C   UNL     1      29.561  11.300  24.574  0.00  0.00    +0.000 A 
ATOM     38  C   UNL     1      30.954  10.350  22.847  0.00  0.00    +0.000 A 
ATOM     39  C   UNL     1      30.536  10.996  25.527  0.00  0.00    +0.000 A 
ATOM     40  C   UNL     1      31.927  10.048  23.802  0.00  0.00    +0.000 A 
ATOM     41  C   UNL     1      31.720  10.374  25.140  0.00  0.00    +0.000 A 
ENDBRANCH  35  36
BRANCH  35  43
ATOM     42  O   UNL     1      27.826  10.385  19.623  0.00  0.00    +0.000 OA
ATOM     43  N   UNL     1      29.299  11.569  20.910  0.00  0.00    +0.000 N 
ATOM     44  C   UNL     1      28.877  10.989  19.758  0.00  0.00    +0.000 C 
ATOM     45  H   UNL     1      30.243  11.933  20.908  0.00  0.00    +0.000 HD
BRANCH  44  46
ATOM     46  O   UNL     1      29.797  11.219  18.797  0.00  0.00    +0.000 OA
BRANCH  46  47
ATOM     47  C   UNL     1      29.559  12.210  17.764  0.00  0.00    +0.000 C 
ATOM     48  C   UNL     1      29.021  13.516  18.357  0.00  0.00    +0.000 C 
ATOM     49  C   UNL     1      30.945  12.480  17.157  0.00  0.00    +0.000 C 
ATOM     50  C   UNL     1      28.642  11.658  16.667  0.00  0.00    +0.000 C 
ENDBRANCH  46  47
ENDBRANCH  44  46
ENDBRANCH  35  43
ENDBRANCH  32  35
ENDBRANCH  31  32
ENDBRANCH  29  31
ENDBRANCH  18  29
BRANCH   7  51
ATOM     51  O   UNL     1      24.855   9.969  26.196  0.00  0.00    +0.000 OA
BRANCH  51  53
ATOM     52  O   UNL     1      23.469   9.053  25.070  0.00  0.00    +0.000 OA
ATOM     53  C   UNL     1      24.673   9.283  25.021  0.00  0.00    +0.000 C 
BRANCH  53  54
ATOM     54  C   UNL     1      26.103   8.660  23.908  0.00  0.00    +0.000 A 
ATOM     55  C   UNL     1      27.470   8.391  24.357  0.00  0.00    +0.000 A 
ATOM     56  C   UNL     1      26.025   8.244  22.544  0.00  0.00    +0.000 A 
ATOM     57  C   UNL     1      28.529   7.830  23.599  0.00  0.00    +0.000 A 
ATOM     58  C   UNL     1      27.077   7.678  21.765  0.00  0.00    +0.000 A 
ATOM     59  C   UNL     1      28.329   7.470  22.290  0.00  0.00    +0.000 A 
ENDBRANCH  53  54
ENDBRANCH  51  53
ENDBRANCH   7  51
BRANCH   4  60
ATOM     60  O   UNL     1      25.690   6.866  26.402  0.00  0.00    +0.000 OA
BRANCH  60  62
ATOM     61  O   UNL     1      25.141   5.524  24.698  0.00  0.00    +0.000 OA
ATOM     62  C   UNL     1      25.902   5.775  25.630  0.00  0.00    +0.000 C 
ATOM     63  C   UNL     1      26.997   4.826  26.001  0.00  0.00    +0.000 C 
ENDBRANCH  60  62
ENDBRANCH   4  60
TORSDOF 17
ENDMDL
MODEL 4
REMARK VINA RESULT:      -5.6     17.775     23.605
REMARK  Name = 
REMARK  25 active torsions:
REMARK  status: ('A' for Active; 'I' for Inactive)
REMARK    1  A    between atoms: O_2  and  C_17
REMARK    2  A    between atoms: O_2  and  C_36
REMARK    3  A    between atoms: O_3  and  C_20
REMARK    4  A    between atoms: O_3  and  C_37
REMARK    5  A    between atoms: O_4  and  C_21
REMARK    6  A    between atoms: O_5  and  C_22
REMARK    7  A    between atoms: O_7  and  C_30
REMARK    8  A    between atoms: O_8  and  C_31
REMARK    9  A    between atoms: O_8  and  C_39
REMARK   10  A    between atoms: O_12  and  C_41
REMARK   11  A    between atoms: O_13  and  C_51
REMARK   12  A    between atoms: O_13  and  C_55
REMARK   13  A    between atoms: N_15  and  C_44
REMARK   14  A    between atoms: C_18  and  C_29
REMARK   15  A    between atoms: C_24  and  C_33
REMARK   16  A    between atoms: C_24  and  C_34
REMARK   17  A    between atoms: C_32  and  C_35
REMARK   18  A    between atoms: C_36  and  C_38
REMARK   19  A    between atoms: C_37  and  C_40
REMARK   20  A    between atoms: C_39  and  C_41
REMARK   21  A    between atoms: C_41  and  C_44
REMARK   22  A    between atoms: C_44  and  C_48
REMARK   23  A    between atoms: C_55  and  C_56
REMARK   24  A    between atoms: C_55  and  C_57
REMARK   25  A    between atoms: C_55  and  C_58
REMARK                            x       y       z     vdW  Elec       q    Type
REMARK                         _______ _______ _______ _____ _____    ______ ____
ROOT
ATOM      1  O   UNL     1      24.629  14.408  28.503  0.00  0.00    +0.000 OA
ATOM      2  O   UNL     1      23.328  10.149  23.471  0.00  0.00    +0.000 OA
ATOM      3  C   UNL     1      25.978  11.982  26.466  0.00  0.00    +0.000 C 
ATOM      4  C   UNL     1      25.838  13.426  27.031  0.00  0.00    +0.000 C 
ATOM      5  C   UNL     1      24.726  11.818  25.049  0.00  0.00    +0.000 C 
ATOM      6  C   UNL     1      24.386  13.262  27.642  0.00  0.00    +0.000 C 
ATOM      7  C   UNL     1      27.761  11.472  26.278  0.00  0.00    +0.000 C 
ATOM      8  C   UNL     1      28.834  10.033  25.673  0.00  0.00    +0.000 C 
ATOM      9  C   UNL     1      23.326  12.051  25.754  0.00  0.00    +0.000 C 
ATOM     10  C   UNL     1      23.235  13.317  26.659  0.00  0.00    +0.000 C 
ATOM     11  C   UNL     1      28.351   8.616  24.720  0.00  0.00    +0.000 C 
ATOM     12  C   UNL     1      26.048  13.978  28.498  0.00  0.00    +0.000 C 
ATOM     13  C   UNL     1      24.492  10.368  23.871  0.00  0.00    +0.000 C 
ATOM     14  C   UNL     1      29.900  10.689  24.680  0.00  0.00    +0.000 C 
ATOM     15  C   UNL     1      27.583   9.040  23.381  0.00  0.00    +0.000 C 
ATOM     16  C   UNL     1      24.819  13.022  24.020  0.00  0.00    +0.000 C 
ATOM     17  C   UNL     1      25.813   9.160  23.181  0.00  0.00    +0.000 C 
ATOM     18  C   UNL     1      29.589  10.644  23.114  0.00  0.00    +0.000 C 
ATOM     19  C   UNL     1      28.379   9.808  22.564  0.00  0.00    +0.000 C 
ATOM     20  C   UNL     1      29.704   7.869  24.265  0.00  0.00    +0.000 C 
ATOM     21  C   UNL     1      27.750   7.372  25.449  0.00  0.00    +0.000 C 
ATOM     22  C   UNL     1      28.002  10.132  21.139  0.00  0.00    +0.000 C 
ENDROOT
BRANCH  17  23
ATOM     23  O   UNL     1      25.358   7.807  23.148  0.00  0.00    +0.000 OA
ATOM     24  H   UNL     1      24.679   7.787  22.448  0.00  0.00    +0.000 HD
ENDBRANCH  17  23
BRANCH   9  25
ATOM     25  O   UNL     1      23.043  10.926  26.588  0.00  0.00    +0.000 OA
ATOM     26  H   UNL     1      22.169  10.588  26.323  0.00  0.00    +0.000 HD
ENDBRANCH   9  25
BRANCH   8  27
ATOM     27  O   UNL     1      29.564   9.609  26.841  0.00  0.00    +0.000 OA
ATOM     28  H   UNL     1      29.996  10.382  27.245  0.00  0.00    +0.000 HD
ENDBRANCH   8  27
BRANCH  18  29
ATOM     29  O   UNL     1      29.389  12.016  22.666  0.00  0.00    +0.000 OA
BRANCH  29  31
ATOM     30  O   UNL     1      31.501  12.684  22.226  0.00  0.00    +0.000 OA
ATOM     31  C   UNL     1      30.336  12.562  21.863  0.00  0.00    +0.000 C 
BRANCH  31  32
ATOM     32  C   UNL     1      29.814  13.159  20.551  0.00  0.00    +0.000 C 
BRANCH  32  33
ATOM     33  O   UNL     1      28.390  13.146  20.393  0.00  0.00    +0.000 OA
ATOM     34  H   UNL     1      28.132  14.068  20.207  0.00  0.00    +0.000 HD
ENDBRANCH  32  33
BRANCH  32  35
ATOM     35  C   UNL     1      30.524  12.445  19.370  0.00  0.00    +0.000 C 
BRANCH  35  36
ATOM     36  C   UNL     1      29.758  12.575  18.058  0.00  0.00    +0.000 A 
ATOM     37  C   UNL     1      29.773  13.797  17.365  0.00  0.00    +0.000 A 
ATOM     38  C   UNL     1      29.060  11.494  17.494  0.00  0.00    +0.000 A 
ATOM     39  C   UNL     1      29.089  13.940  16.155  0.00  0.00    +0.000 A 
ATOM     40  C   UNL     1      28.377  11.641  16.285  0.00  0.00    +0.000 A 
ATOM     41  C   UNL     1      28.389  12.864  15.618  0.00  0.00    +0.000 A 
ENDBRANCH  35  36
BRANCH  35  43
ATOM     42  O   UNL     1      32.941  10.921  19.059  0.00  0.00    +0.000 OA
ATOM     43  N   UNL     1      30.735  11.031  19.651  0.00  0.00    +0.000 N 
ATOM     44  C   UNL     1      31.892  10.381  19.369  0.00  0.00    +0.000 C 
ATOM     45  H   UNL     1      29.916  10.452  19.776  0.00  0.00    +0.000 HD
BRANCH  44  46
ATOM     46  O   UNL     1      31.689   9.054  19.516  0.00  0.00    +0.000 OA
BRANCH  46  47
ATOM     47  C   UNL     1      32.343   8.317  20.581  0.00  0.00    +0.000 C 
ATOM     48  C   UNL     1      31.465   7.168  21.086  0.00  0.00    +0.000 C 
ATOM     49  C   UNL     1      33.601   7.724  19.927  0.00  0.00    +0.000 C 
ATOM     50  C   UNL     1      32.775   9.251  21.717  0.00  0.00    +0.000 C 
ENDBRANCH  46  47
ENDBRANCH  44  46
ENDBRANCH  35  43
ENDBRANCH  32  35
ENDBRANCH  31  32
ENDBRANCH  29  31
ENDBRANCH  18  29
BRANCH   7  51
ATOM     51  O   UNL     1      27.658  11.890  25.034  0.00  0.00    +0.000 OA
BRANCH  51  53
ATOM     52  O   UNL     1      28.802  12.720  26.460  0.00  0.00    +0.000 OA
ATOM     53  C   UNL     1      28.477  12.960  25.301  0.00  0.00    +0.000 C 
BRANCH  53  54
ATOM     54  C   UNL     1      28.661  14.484  24.155  0.00  0.00    +0.000 A 
ATOM     55  C   UNL     1      29.857  15.319  24.043  0.00  0.00    +0.000 A 
ATOM     56  C   UNL     1      27.739  14.943  23.165  0.00  0.00    +0.000 A 
ATOM     57  C   UNL     1      30.077  16.387  23.135  0.00  0.00    +0.000 A 
ATOM     58  C   UNL     1      27.942  16.013  22.245  0.00  0.00    +0.000 A 
ATOM     59  C   UNL     1      29.109  16.736  22.228  0.00  0.00    +0.000 A 
ENDBRANCH  53  54
ENDBRANCH  51  53
ENDBRANCH   7  51
BRANCH   4  60
ATOM     60  O   UNL     1      25.939  14.436  26.000  0.00  0.00    +0.000 OA
BRANCH  60  62
ATOM     61  O   UNL     1      27.211  16.122  26.737  0.00  0.00    +0.000 OA
ATOM     62  C   UNL     1      26.149  15.751  26.241  0.00  0.00    +0.000 C 
ATOM     63  C   UNL     1      25.033  16.719  26.006  0.00  0.00    +0.000 C 
ENDBRANCH  60  62
ENDBRANCH   4  60
TORSDOF 17
ENDMDL
MODEL 5
REMARK VINA RESULT:      -5.4     18.134     23.050
REMARK  Name = 
REMARK  25 active torsions:
REMARK  status: ('A' for Active; 'I' for Inactive)
REMARK    1  A    between atoms: O_2  and  C_17
REMARK    2  A    between atoms: O_2  and  C_36
REMARK    3  A    between atoms: O_3  and  C_20
REMARK    4  A    between atoms: O_3  and  C_37
REMARK    5  A    between atoms: O_4  and  C_21
REMARK    6  A    between atoms: O_5  and  C_22
REMARK    7  A    between atoms: O_7  and  C_30
REMARK    8  A    between atoms: O_8  and  C_31
REMARK    9  A    between atoms: O_8  and  C_39
REMARK   10  A    between atoms: O_12  and  C_41
REMARK   11  A    between atoms: O_13  and  C_51
REMARK   12  A    between atoms: O_13  and  C_55
REMARK   13  A    between atoms: N_15  and  C_44
REMARK   14  A    between atoms: C_18  and  C_29
REMARK   15  A    between atoms: C_24  and  C_33
REMARK   16  A    between atoms: C_24  and  C_34
REMARK   17  A    between atoms: C_32  and  C_35
REMARK   18  A    between atoms: C_36  and  C_38
REMARK   19  A    between atoms: C_37  and  C_40
REMARK   20  A    between atoms: C_39  and  C_41
REMARK   21  A    between atoms: C_41  and  C_44
REMARK   22  A    between atoms: C_44  and  C_48
REMARK   23  A    between atoms: C_55  and  C_56
REMARK   24  A    between atoms: C_55  and  C_57
REMARK   25  A    between atoms: C_55  and  C_58
REMARK                            x       y       z     vdW  Elec       q    Type
REMARK                         _______ _______ _______ _____ _____    ______ ____
ROOT
ATOM      1  O   UNL     1      23.926   6.171  27.898  0.00  0.00    +0.000 OA
ATOM      2  O   UNL     1      27.980  11.263  29.572  0.00  0.00    +0.000 OA
ATOM      3  C   UNL     1      24.843   9.397  27.116  0.00  0.00    +0.000 C 
ATOM      4  C   UNL     1      24.698   7.870  26.845  0.00  0.00    +0.000 C 
ATOM      5  C   UNL     1      26.491   9.644  28.025  0.00  0.00    +0.000 C 
ATOM      6  C   UNL     1      24.529   7.414  28.352  0.00  0.00    +0.000 C 
ATOM      7  C   UNL     1      24.364  10.422  25.634  0.00  0.00    +0.000 C 
ATOM      8  C   UNL     1      24.268  12.220  25.046  0.00  0.00    +0.000 C 
ATOM      9  C   UNL     1      26.311   8.813  29.363  0.00  0.00    +0.000 C 
ATOM     10  C   UNL     1      25.795   7.352  29.179  0.00  0.00    +0.000 C 
ATOM     11  C   UNL     1      24.964  13.670  25.797  0.00  0.00    +0.000 C 
ATOM     12  C   UNL     1      23.407   6.962  26.757  0.00  0.00    +0.000 C 
ATOM     13  C   UNL     1      27.312  11.265  28.514  0.00  0.00    +0.000 C 
ATOM     14  C   UNL     1      25.021  12.244  23.637  0.00  0.00    +0.000 C 
ATOM     15  C   UNL     1      26.532  13.497  26.071  0.00  0.00    +0.000 C 
ATOM     16  C   UNL     1      27.696   8.910  27.300  0.00  0.00    +0.000 C 
ATOM     17  C   UNL     1      27.274  12.952  27.600  0.00  0.00    +0.000 C 
ATOM     18  C   UNL     1      26.552  12.696  23.615  0.00  0.00    +0.000 C 
ATOM     19  C   UNL     1      27.229  13.287  24.904  0.00  0.00    +0.000 C 
ATOM     20  C   UNL     1      24.806  14.872  24.737  0.00  0.00    +0.000 C 
ATOM     21  C   UNL     1      24.179  14.392  26.937  0.00  0.00    +0.000 C 
ATOM     22  C   UNL     1      28.735  13.342  24.840  0.00  0.00    +0.000 C 
ENDROOT
BRANCH  17  23
ATOM     23  O   UNL     1      27.125  14.057  28.491  0.00  0.00    +0.000 OA
ATOM     24  H   UNL     1      27.716  14.748  28.136  0.00  0.00    +0.000 HD
ENDBRANCH  17  23
BRANCH   9  25
ATOM     25  O   UNL     1      25.362   9.484  30.193  0.00  0.00    +0.000 OA
ATOM     26  H   UNL     1      25.571  10.435  30.153  0.00  0.00    +0.000 HD
ENDBRANCH   9  25
BRANCH   8  27
ATOM     27  O   UNL     1      22.870  12.437  24.771  0.00  0.00    +0.000 OA
ATOM     28  H   UNL     1      22.768  12.726  23.847  0.00  0.00    +0.000 HD
ENDBRANCH   8  27
BRANCH  18  29
ATOM     29  O   UNL     1      27.347  11.542  23.216  0.00  0.00    +0.000 OA
BRANCH  29  31
ATOM     30  O   UNL     1      26.865  11.473  21.011  0.00  0.00    +0.000 OA
ATOM     31  C   UNL     1      27.698  11.438  21.910  0.00  0.00    +0.000 C 
BRANCH  31  32
ATOM     32  C   UNL     1      29.174  11.111  21.656  0.00  0.00    +0.000 C 
BRANCH  32  33
ATOM     33  O   UNL     1      29.990  11.000  22.827  0.00  0.00    +0.000 OA
ATOM     34  H   UNL     1      30.901  11.205  22.541  0.00  0.00    +0.000 HD
ENDBRANCH  32  33
BRANCH  32  35
ATOM     35  C   UNL     1      29.744  12.158  20.661  0.00  0.00    +0.000 C 
BRANCH  35  36
ATOM     36  C   UNL     1      29.657  13.584  21.195  0.00  0.00    +0.000 A 
ATOM     37  C   UNL     1      30.718  14.107  21.952  0.00  0.00    +0.000 A 
ATOM     38  C   UNL     1      28.556  14.413  20.922  0.00  0.00    +0.000 A 
ATOM     39  C   UNL     1      30.669  15.413  22.443  0.00  0.00    +0.000 A 
ATOM     40  C   UNL     1      28.509  15.719  21.416  0.00  0.00    +0.000 A 
ATOM     41  C   UNL     1      29.564  16.217  22.178  0.00  0.00    +0.000 A 
ENDBRANCH  35  36
BRANCH  35  43
ATOM     42  O   UNL     1      30.677  10.960  18.222  0.00  0.00    +0.000 OA
ATOM     43  N   UNL     1      29.063  12.097  19.375  0.00  0.00    +0.000 N 
ATOM     44  C   UNL     1      29.638  11.598  18.252  0.00  0.00    +0.000 C 
ATOM     45  H   UNL     1      28.268  12.706  19.237  0.00  0.00    +0.000 HD
BRANCH  44  46
ATOM     46  O   UNL     1      28.856  11.904  17.194  0.00  0.00    +0.000 OA
BRANCH  46  47
ATOM     47  C   UNL     1      29.203  12.999  16.308  0.00  0.00    +0.000 C 
ATOM     48  C   UNL     1      30.529  12.736  15.587  0.00  0.00    +0.000 C 
ATOM     49  C   UNL     1      28.075  13.029  15.265  0.00  0.00    +0.000 C 
ATOM     50  C   UNL     1      29.214  14.337  17.057  0.00  0.00    +0.000 C 
ENDBRANCH  46  47
ENDBRANCH  44  46
ENDBRANCH  35  43
ENDBRANCH  32  35
ENDBRANCH  31  32
ENDBRANCH  29  31
ENDBRANCH  18  29
BRANCH   7  51
ATOM     51  O   UNL     1      25.644  10.412  25.324  0.00  0.00    +0.000 OA
BRANCH  51  53
ATOM     52  O   UNL     1      24.180   9.499  24.297  0.00  0.00    +0.000 OA
ATOM     53  C   UNL     1      25.405   9.565  24.269  0.00  0.00    +0.000 C 
BRANCH  53  54
ATOM     54  C   UNL     1      26.770   8.590  23.345  0.00  0.00    +0.000 A 
ATOM     55  C   UNL     1      28.108   8.305  23.866  0.00  0.00    +0.000 A 
ATOM     56  C   UNL     1      26.652   7.894  22.103  0.00  0.00    +0.000 A 
ATOM     57  C   UNL     1      29.110   7.500  23.267  0.00  0.00    +0.000 A 
ATOM     58  C   UNL     1      27.647   7.081  21.485  0.00  0.00    +0.000 A 
ATOM     59  C   UNL     1      28.876   6.882  22.065  0.00  0.00    +0.000 A 
ENDBRANCH  53  54
ENDBRANCH  51  53
ENDBRANCH   7  51
BRANCH   4  60
ATOM     60  O   UNL     1      25.858   7.315  26.181  0.00  0.00    +0.000 OA
BRANCH  60  62
ATOM     61  O   UNL     1      25.170   5.880  24.608  0.00  0.00    +0.000 OA
ATOM     62  C   UNL     1      25.883   6.100  25.584  0.00  0.00    +0.000 C 
ATOM     63  C   UNL     1      26.697   5.007  26.200  0.00  0.00    +0.000 C 
ENDBRANCH  60  62
ENDBRANCH   4  60
TORSDOF 17
ENDMDL
MODEL 6
REMARK VINA RESULT:      -5.3     17.886     23.210
REMARK  Name = 
REMARK  25 active torsions:
REMARK  status: ('A' for Active; 'I' for Inactive)
REMARK    1  A    between atoms: O_2  and  C_17
REMARK    2  A    between atoms: O_2  and  C_36
REMARK    3  A    between atoms: O_3  and  C_20
REMARK    4  A    between atoms: O_3  and  C_37
REMARK    5  A    between atoms: O_4  and  C_21
REMARK    6  A    between atoms: O_5  and  C_22
REMARK    7  A    between atoms: O_7  and  C_30
REMARK    8  A    between atoms: O_8  and  C_31
REMARK    9  A    between atoms: O_8  and  C_39
REMARK   10  A    between atoms: O_12  and  C_41
REMARK   11  A    between atoms: O_13  and  C_51
REMARK   12  A    between atoms: O_13  and  C_55
REMARK   13  A    between atoms: N_15  and  C_44
REMARK   14  A    between atoms: C_18  and  C_29
REMARK   15  A    between atoms: C_24  and  C_33
REMARK   16  A    between atoms: C_24  and  C_34
REMARK   17  A    between atoms: C_32  and  C_35
REMARK   18  A    between atoms: C_36  and  C_38
REMARK   19  A    between atoms: C_37  and  C_40
REMARK   20  A    between atoms: C_39  and  C_41
REMARK   21  A    between atoms: C_41  and  C_44
REMARK   22  A    between atoms: C_44  and  C_48
REMARK   23  A    between atoms: C_55  and  C_56
REMARK   24  A    between atoms: C_55  and  C_57
REMARK   25  A    between atoms: C_55  and  C_58
REMARK                            x       y       z     vdW  Elec       q    Type
REMARK                         _______ _______ _______ _____ _____    ______ ____
ROOT
ATOM      1  O   UNL     1      24.469  12.714  29.385  0.00  0.00    +0.000 OA
ATOM      2  O   UNL     1      23.315   9.953  23.368  0.00  0.00    +0.000 OA
ATOM      3  C   UNL     1      25.913  11.033  26.750  0.00  0.00    +0.000 C 
ATOM      4  C   UNL     1      25.703  12.253  27.695  0.00  0.00    +0.000 C 
ATOM      5  C   UNL     1      24.647  11.197  25.346  0.00  0.00    +0.000 C 
ATOM      6  C   UNL     1      24.274  11.841  28.239  0.00  0.00    +0.000 C 
ATOM      7  C   UNL     1      27.719  10.701  26.424  0.00  0.00    +0.000 C 
ATOM      8  C   UNL     1      28.859   9.552  25.440  0.00  0.00    +0.000 C 
ATOM      9  C   UNL     1      23.249  11.141  26.091  0.00  0.00    +0.000 C 
ATOM     10  C   UNL     1      23.105  12.099  27.313  0.00  0.00    +0.000 C 
ATOM     11  C   UNL     1      28.438   8.430  24.130  0.00  0.00    +0.000 C 
ATOM     12  C   UNL     1      25.909  12.386  29.257  0.00  0.00    +0.000 C 
ATOM     13  C   UNL     1      24.473  10.120  23.812  0.00  0.00    +0.000 C 
ATOM     14  C   UNL     1      29.868  10.520  24.666  0.00  0.00    +0.000 C 
ATOM     15  C   UNL     1      27.624   9.164  22.964  0.00  0.00    +0.000 C 
ATOM     16  C   UNL     1      24.654  12.642  24.692  0.00  0.00    +0.000 C 
ATOM     17  C   UNL     1      25.846   9.231  22.809  0.00  0.00    +0.000 C 
ATOM     18  C   UNL     1      29.531  10.894  23.151  0.00  0.00    +0.000 C 
ATOM     19  C   UNL     1      28.360  10.174  22.391  0.00  0.00    +0.000 C 
ATOM     20  C   UNL     1      29.822   7.920  23.483  0.00  0.00    +0.000 C 
ATOM     21  C   UNL     1      27.921   7.000  24.486  0.00  0.00    +0.000 C 
ATOM     22  C   UNL     1      27.939  10.858  21.114  0.00  0.00    +0.000 C 
ENDROOT
BRANCH  17  23
ATOM     23  O   UNL     1      25.466   7.916  22.402  0.00  0.00    +0.000 OA
ATOM     24  H   UNL     1      24.891   8.049  21.625  0.00  0.00    +0.000 HD
ENDBRANCH  17  23
BRANCH   9  25
ATOM     25  O   UNL     1      23.045   9.815  26.579  0.00  0.00    +0.000 OA
ATOM     26  H   UNL     1      22.766   9.272  25.820  0.00  0.00    +0.000 HD
ENDBRANCH   9  25
BRANCH   8  27
ATOM     27  O   UNL     1      29.633   8.864  26.442  0.00  0.00    +0.000 OA
ATOM     28  H   UNL     1      30.578   9.046  26.295  0.00  0.00    +0.000 HD
ENDBRANCH   8  27
BRANCH  18  29
ATOM     29  O   UNL     1      29.247  12.322  23.102  0.00  0.00    +0.000 OA
BRANCH  29  31
ATOM     30  O   UNL     1      31.152  12.886  22.028  0.00  0.00    +0.000 OA
ATOM     31  C   UNL     1      29.958  13.079  22.229  0.00  0.00    +0.000 C 
BRANCH  31  32
ATOM     32  C   UNL     1      29.207  14.280  21.645  0.00  0.00    +0.000 C 
BRANCH  32  33
ATOM     33  O   UNL     1      27.901  13.998  21.129  0.00  0.00    +0.000 OA
ATOM     34  H   UNL     1      27.280  14.529  21.662  0.00  0.00    +0.000 HD
ENDBRANCH  32  33
BRANCH  32  35
ATOM     35  C   UNL     1      30.109  14.951  20.576  0.00  0.00    +0.000 C 
BRANCH  35  36
ATOM     36  C   UNL     1      30.169  16.468  20.725  0.00  0.00    +0.000 A 
ATOM     37  C   UNL     1      29.088  17.250  20.288  0.00  0.00    +0.000 A 
ATOM     38  C   UNL     1      31.264  17.113  21.324  0.00  0.00    +0.000 A 
ATOM     39  C   UNL     1      29.112  18.640  20.423  0.00  0.00    +0.000 A 
ATOM     40  C   UNL     1      31.285  18.503  21.457  0.00  0.00    +0.000 A 
ATOM     41  C   UNL     1      30.211  19.266  21.004  0.00  0.00    +0.000 A 
ENDBRANCH  35  36
BRANCH  35  43
ATOM     42  O   UNL     1      31.379  13.229  18.658  0.00  0.00    +0.000 OA
ATOM     43  N   UNL     1      29.665  14.630  19.226  0.00  0.00    +0.000 N 
ATOM     44  C   UNL     1      30.396  13.885  18.359  0.00  0.00    +0.000 C 
ATOM     45  H   UNL     1      28.948  15.215  18.818  0.00  0.00    +0.000 HD
BRANCH  44  46
ATOM     46  O   UNL     1      29.835  13.975  17.134  0.00  0.00    +0.000 OA
BRANCH  46  47
ATOM     47  C   UNL     1      29.456  12.780  16.403  0.00  0.00    +0.000 C 
ATOM     48  C   UNL     1      28.830  11.732  17.330  0.00  0.00    +0.000 C 
ATOM     49  C   UNL     1      28.387  13.256  15.408  0.00  0.00    +0.000 C 
ATOM     50  C   UNL     1      30.642  12.212  15.615  0.00  0.00    +0.000 C 
ENDBRANCH  46  47
ENDBRANCH  44  46
ENDBRANCH  35  43
ENDBRANCH  32  35
ENDBRANCH  31  32
ENDBRANCH  29  31
ENDBRANCH  18  29
BRANCH   7  51
ATOM     51  O   UNL     1      27.570  11.441  25.345  0.00  0.00    +0.000 OA
BRANCH  51  53
ATOM     52  O   UNL     1      28.688  11.912  26.945  0.00  0.00    +0.000 OA
ATOM     53  C   UNL     1      28.319  12.447  25.904  0.00  0.00    +0.000 C 
BRANCH  53  54
ATOM     54  C   UNL     1      28.370  14.244  25.241  0.00  0.00    +0.000 A 
ATOM     55  C   UNL     1      29.534  15.130  25.284  0.00  0.00    +0.000 A 
ATOM     56  C   UNL     1      27.356  14.927  24.503  0.00  0.00    +0.000 A 
ATOM     57  C   UNL     1      29.652  16.422  24.713  0.00  0.00    +0.000 A 
ATOM     58  C   UNL     1      27.455  16.225  23.922  0.00  0.00    +0.000 A 
ATOM     59  C   UNL     1      28.602  16.974  24.025  0.00  0.00    +0.000 A 
ENDBRANCH  53  54
ENDBRANCH  51  53
ENDBRANCH   7  51
BRANCH   4  60
ATOM     60  O   UNL     1      25.729  13.513  26.986  0.00  0.00    +0.000 OA
BRANCH  60  62
ATOM     61  O   UNL     1      26.849  15.044  28.172  0.00  0.00    +0.000 OA
ATOM     62  C   UNL     1      25.818  14.722  27.587  0.00  0.00    +0.000 C 
ATOM     63  C   UNL     1      24.609  15.603  27.627  0.00  0.00    +0.000 C 
ENDBRANCH  60  62
ENDBRANCH   4  60
TORSDOF 17
ENDMDL
MODEL 7
REMARK VINA RESULT:      -5.3     18.003     21.522
REMARK  Name = 
REMARK  25 active torsions:
REMARK  status: ('A' for Active; 'I' for Inactive)
REMARK    1  A    between atoms: O_2  and  C_17
REMARK    2  A    between atoms: O_2  and  C_36
REMARK    3  A    between atoms: O_3  and  C_20
REMARK    4  A    between atoms: O_3  and  C_37
REMARK    5  A    between atoms: O_4  and  C_21
REMARK    6  A    between atoms: O_5  and  C_22
REMARK    7  A    between atoms: O_7  and  C_30
REMARK    8  A    between atoms: O_8  and  C_31
REMARK    9  A    between atoms: O_8  and  C_39
REMARK   10  A    between atoms: O_12  and  C_41
REMARK   11  A    between atoms: O_13  and  C_51
REMARK   12  A    between atoms: O_13  and  C_55
REMARK   13  A    between atoms: N_15  and  C_44
REMARK   14  A    between atoms: C_18  and  C_29
REMARK   15  A    between atoms: C_24  and  C_33
REMARK   16  A    between atoms: C_24  and  C_34
REMARK   17  A    between atoms: C_32  and  C_35
REMARK   18  A    between atoms: C_36  and  C_38
REMARK   19  A    between atoms: C_37  and  C_40
REMARK   20  A    between atoms: C_39  and  C_41
REMARK   21  A    between atoms: C_41  and  C_44
REMARK   22  A    between atoms: C_44  and  C_48
REMARK   23  A    between atoms: C_55  and  C_56
REMARK   24  A    between atoms: C_55  and  C_57
REMARK   25  A    between atoms: C_55  and  C_58
REMARK                            x       y       z     vdW  Elec       q    Type
REMARK                         _______ _______ _______ _____ _____    ______ ____
ROOT
ATOM      1  O   UNL     1       0.553  28.511  13.427  0.00  0.00    +0.000 OA
ATOM      2  O   UNL     1      -5.703  30.816  14.267  0.00  0.00    +0.000 OA
ATOM      3  C   UNL     1      -2.211  28.432  15.480  0.00  0.00    +0.000 C 
ATOM      4  C   UNL     1      -1.159  27.814  14.511  0.00  0.00    +0.000 C 
ATOM      5  C   UNL     1      -3.606  29.138  14.405  0.00  0.00    +0.000 C 
ATOM      6  C   UNL     1      -0.670  29.170  13.855  0.00  0.00    +0.000 C 
ATOM      7  C   UNL     1      -2.547  27.330  16.945  0.00  0.00    +0.000 C 
ATOM      8  C   UNL     1      -3.621  27.223  18.502  0.00  0.00    +0.000 C 
ATOM      9  C   UNL     1      -2.884  30.240  13.525  0.00  0.00    +0.000 C 
ATOM     10  C   UNL     1      -1.580  29.774  12.807  0.00  0.00    +0.000 C 
ATOM     11  C   UNL     1      -5.032  28.205  18.943  0.00  0.00    +0.000 C 
ATOM     12  C   UNL     1       0.410  27.684  14.649  0.00  0.00    +0.000 C 
ATOM     13  C   UNL     1      -5.235  29.894  14.970  0.00  0.00    +0.000 C 
ATOM     14  C   UNL     1      -4.292  25.773  18.452  0.00  0.00    +0.000 C 
ATOM     15  C   UNL     1      -6.135  28.209  17.783  0.00  0.00    +0.000 C 
ATOM     16  C   UNL     1      -4.124  28.095  13.327  0.00  0.00    +0.000 C 
ATOM     17  C   UNL     1      -6.300  29.439  16.499  0.00  0.00    +0.000 C 
ATOM     18  C   UNL     1      -5.771  25.654  17.860  0.00  0.00    +0.000 C 
ATOM     19  C   UNL     1      -6.605  26.942  17.528  0.00  0.00    +0.000 C 
ATOM     20  C   UNL     1      -5.710  27.507  20.227  0.00  0.00    +0.000 C 
ATOM     21  C   UNL     1      -4.815  29.586  19.640  0.00  0.00    +0.000 C 
ATOM     22  C   UNL     1      -7.818  26.687  16.667  0.00  0.00    +0.000 C 
ENDROOT
BRANCH  17  23
ATOM     23  O   UNL     1      -6.830  30.588  17.162  0.00  0.00    +0.000 OA
ATOM     24  H   UNL     1      -6.065  31.180  17.289  0.00  0.00    +0.000 HD
ENDBRANCH  17  23
BRANCH   9  25
ATOM     25  O   UNL     1      -2.521  31.333  14.371  0.00  0.00    +0.000 OA
ATOM     26  H   UNL     1      -3.046  31.248  15.187  0.00  0.00    +0.000 HD
ENDBRANCH   9  25
BRANCH   8  27
ATOM     27  O   UNL     1      -2.679  27.205  19.592  0.00  0.00    +0.000 OA
ATOM     28  H   UNL     1      -2.165  26.379  19.556  0.00  0.00    +0.000 HD
ENDBRANCH   8  27
BRANCH  18  29
ATOM     29  O   UNL     1      -5.690  24.876  16.631  0.00  0.00    +0.000 OA
BRANCH  29  31
ATOM     30  O   UNL     1      -7.399  23.425  16.354  0.00  0.00    +0.000 OA
ATOM     31  C   UNL     1      -6.223  23.628  16.637  0.00  0.00    +0.000 C 
BRANCH  31  32
ATOM     32  C   UNL     1      -5.301  22.529  17.177  0.00  0.00    +0.000 C 
BRANCH  32  33
ATOM     33  O   UNL     1      -4.855  21.570  16.211  0.00  0.00    +0.000 OA
ATOM     34  H   UNL     1      -3.913  21.768  16.051  0.00  0.00    +0.000 HD
ENDBRANCH  32  33
BRANCH  32  35
ATOM     35  C   UNL     1      -6.008  21.842  18.376  0.00  0.00    +0.000 C 
BRANCH  35  36
ATOM     36  C   UNL     1      -5.801  22.593  19.688  0.00  0.00    +0.000 A 
ATOM     37  C   UNL     1      -4.528  22.617  20.280  0.00  0.00    +0.000 A 
ATOM     38  C   UNL     1      -6.844  23.299  20.311  0.00  0.00    +0.000 A 
ATOM     39  C   UNL     1      -4.309  23.306  21.475  0.00  0.00    +0.000 A 
ATOM     40  C   UNL     1      -6.622  23.987  21.506  0.00  0.00    +0.000 A 
ATOM     41  C   UNL     1      -5.356  23.987  22.089  0.00  0.00    +0.000 A 
ENDBRANCH  35  36
BRANCH  35  43
ATOM     42  O   UNL     1      -7.024  19.474  17.105  0.00  0.00    +0.000 OA
ATOM     43  N   UNL     1      -5.555  20.468  18.546  0.00  0.00    +0.000 N 
ATOM     44  C   UNL     1      -6.174  19.404  17.976  0.00  0.00    +0.000 C 
ATOM     45  H   UNL     1      -4.958  20.267  19.338  0.00  0.00    +0.000 HD
BRANCH  44  46
ATOM     46  O   UNL     1      -5.672  18.273  18.516  0.00  0.00    +0.000 OA
BRANCH  46  47
ATOM     47  C   UNL     1      -4.736  17.450  17.773  0.00  0.00    +0.000 C 
ATOM     48  C   UNL     1      -3.645  16.881  18.687  0.00  0.00    +0.000 C 
ATOM     49  C   UNL     1      -5.582  16.286  17.235  0.00  0.00    +0.000 C 
ATOM     50  C   UNL     1      -4.144  18.217  16.585  0.00  0.00    +0.000 C 
ENDBRANCH  46  47
ENDBRANCH  44  46
ENDBRANCH  35  43
ENDBRANCH  32  35
ENDBRANCH  31  32
ENDBRANCH  29  31
ENDBRANCH  18  29
BRANCH   7  51
ATOM     51  O   UNL     1      -3.555  26.854  16.244  0.00  0.00    +0.000 OA
BRANCH  51  53
ATOM     52  O   UNL     1      -1.916  25.823  16.777  0.00  0.00    +0.000 OA
ATOM     53  C   UNL     1      -2.882  25.674  16.035  0.00  0.00    +0.000 C 
BRANCH  53  54
ATOM     54  C   UNL     1      -3.323  24.415  14.660  0.00  0.00    +0.000 A 
ATOM     55  C   UNL     1      -4.334  24.615  13.621  0.00  0.00    +0.000 A 
ATOM     56  C   UNL     1      -2.661  23.185  14.364  0.00  0.00    +0.000 A 
ATOM     57  C   UNL     1      -4.620  23.762  12.525  0.00  0.00    +0.000 A 
ATOM     58  C   UNL     1      -2.933  22.314  13.268  0.00  0.00    +0.000 A 
ATOM     59  C   UNL     1      -3.912  22.601  12.347  0.00  0.00    +0.000 A 
ENDBRANCH  53  54
ENDBRANCH  51  53
ENDBRANCH   7  51
BRANCH   4  60
ATOM     60  O   UNL     1      -1.750  26.881  13.577  0.00  0.00    +0.000 OA
BRANCH  60  62
ATOM     61  O   UNL     1      -0.188  25.321  13.214  0.00  0.00    +0.000 OA
ATOM     62  C   UNL     1      -1.039  26.078  12.752  0.00  0.00    +0.000 C 
ATOM     63  C   UNL     1      -1.221  26.212  11.273  0.00  0.00    +0.000 C 
ENDBRANCH  60  62
ENDBRANCH   4  60
TORSDOF 17
ENDMDL
MODEL 8
REMARK VINA RESULT:      -5.3     22.113     25.953
REMARK  Name = 
REMARK  25 active torsions:
REMARK  status: ('A' for Active; 'I' for Inactive)
REMARK    1  A    between atoms: O_2  and  C_17
REMARK    2  A    between atoms: O_2  and  C_36
REMARK    3  A    between atoms: O_3  and  C_20
REMARK    4  A    between atoms: O_3  and  C_37
REMARK    5  A    between atoms: O_4  and  C_21
REMARK    6  A    between atoms: O_5  and  C_22
REMARK    7  A    between atoms: O_7  and  C_30
REMARK    8  A    between atoms: O_8  and  C_31
REMARK    9  A    between atoms: O_8  and  C_39
REMARK   10  A    between atoms: O_12  and  C_41
REMARK   11  A    between atoms: O_13  and  C_51
REMARK   12  A    between atoms: O_13  and  C_55
REMARK   13  A    between atoms: N_15  and  C_44
REMARK   14  A    between atoms: C_18  and  C_29
REMARK   15  A    between atoms: C_24  and  C_33
REMARK   16  A    between atoms: C_24  and  C_34
REMARK   17  A    between atoms: C_32  and  C_35
REMARK   18  A    between atoms: C_36  and  C_38
REMARK   19  A    between atoms: C_37  and  C_40
REMARK   20  A    between atoms: C_39  and  C_41
REMARK   21  A    between atoms: C_41  and  C_44
REMARK   22  A    between atoms: C_44  and  C_48
REMARK   23  A    between atoms: C_55  and  C_56
REMARK   24  A    between atoms: C_55  and  C_57
REMARK   25  A    between atoms: C_55  and  C_58
REMARK                            x       y       z     vdW  Elec       q    Type
REMARK                         _______ _______ _______ _____ _____    ______ ____
ROOT
ATOM      1  O   UNL     1      29.697  15.605  21.975  0.00  0.00    +0.000 OA
ATOM      2  O   UNL     1      34.113  20.662  21.675  0.00  0.00    +0.000 OA
ATOM      3  C   UNL     1      30.164  18.861  20.956  0.00  0.00    +0.000 C 
ATOM      4  C   UNL     1      29.890  17.344  20.737  0.00  0.00    +0.000 C 
ATOM      5  C   UNL     1      32.048  19.087  20.976  0.00  0.00    +0.000 C 
ATOM      6  C   UNL     1      30.457  16.835  22.126  0.00  0.00    +0.000 C 
ATOM      7  C   UNL     1      29.047  19.933  19.918  0.00  0.00    +0.000 C 
ATOM      8  C   UNL     1      28.700  21.749  19.507  0.00  0.00    +0.000 C 
ATOM      9  C   UNL     1      32.520  18.210  22.209  0.00  0.00    +0.000 C 
ATOM     10  C   UNL     1      31.964  16.754  22.246  0.00  0.00    +0.000 C 
ATOM     11  C   UNL     1      29.686  23.177  19.881  0.00  0.00    +0.000 C 
ATOM     12  C   UNL     1      28.704  16.432  21.247  0.00  0.00    +0.000 C 
ATOM     13  C   UNL     1      33.021  20.696  21.066  0.00  0.00    +0.000 C 
ATOM     14  C   UNL     1      28.690  21.826  17.911  0.00  0.00    +0.000 C 
ATOM     15  C   UNL     1      31.192  23.004  19.367  0.00  0.00    +0.000 C 
ATOM     16  C   UNL     1      32.752  18.386  19.740  0.00  0.00    +0.000 C 
ATOM     17  C   UNL     1      32.569  22.412  20.337  0.00  0.00    +0.000 C 
ATOM     18  C   UNL     1      30.029  22.288  17.175  0.00  0.00    +0.000 C 
ATOM     19  C   UNL     1      31.245  22.839  18.002  0.00  0.00    +0.000 C 
ATOM     20  C   UNL     1      29.054  24.414  19.065  0.00  0.00    +0.000 C 
ATOM     21  C   UNL     1      29.549  23.855  21.281  0.00  0.00    +0.000 C 
ATOM     22  C   UNL     1      32.539  22.906  17.229  0.00  0.00    +0.000 C 
ENDROOT
BRANCH  17  23
ATOM     23  O   UNL     1      32.876  23.486  21.227  0.00  0.00    +0.000 OA
ATOM     24  H   UNL     1      32.540  23.197  22.096  0.00  0.00    +0.000 HD
ENDBRANCH  17  23
BRANCH   9  25
ATOM     25  O   UNL     1      32.090  18.847  23.413  0.00  0.00    +0.000 OA
ATOM     26  H   UNL     1      32.066  19.805  23.236  0.00  0.00    +0.000 HD
ENDBRANCH   9  25
BRANCH   8  27
ATOM     27  O   UNL     1      27.343  21.967  19.940  0.00  0.00    +0.000 OA
ATOM     28  H   UNL     1      27.223  21.575  20.823  0.00  0.00    +0.000 HD
ENDBRANCH   8  27
BRANCH  18  29
ATOM     29  O   UNL     1      30.524  21.153  16.407  0.00  0.00    +0.000 OA
BRANCH  29  31
ATOM     30  O   UNL     1      31.359  20.815  14.336  0.00  0.00    +0.000 OA
ATOM     31  C   UNL     1      30.454  21.227  15.054  0.00  0.00    +0.000 C 
BRANCH  31  32
ATOM     32  C   UNL     1      29.253  22.003  14.505  0.00  0.00    +0.000 C 
BRANCH  32  33
ATOM     33  O   UNL     1      28.340  21.241  13.707  0.00  0.00    +0.000 OA
ATOM     34  H   UNL     1      28.777  21.115  12.844  0.00  0.00    +0.000 HD
ENDBRANCH  32  33
BRANCH  32  35
ATOM     35  C   UNL     1      29.780  23.245  13.737  0.00  0.00    +0.000 C 
BRANCH  35  36
ATOM     36  C   UNL     1      29.698  24.524  14.563  0.00  0.00    +0.000 A 
ATOM     37  C   UNL     1      28.467  24.918  15.112  0.00  0.00    +0.000 A 
ATOM     38  C   UNL     1      30.832  25.311  14.828  0.00  0.00    +0.000 A 
ATOM     39  C   UNL     1      28.366  26.079  15.881  0.00  0.00    +0.000 A 
ATOM     40  C   UNL     1      30.728  26.472  15.598  0.00  0.00    +0.000 A 
ATOM     41  C   UNL     1      29.496  26.857  16.121  0.00  0.00    +0.000 A 
ENDBRANCH  35  36
BRANCH  35  43
ATOM     42  O   UNL     1      30.862  23.848  11.145  0.00  0.00    +0.000 OA
ATOM     43  N   UNL     1      29.057  23.446  12.489  0.00  0.00    +0.000 N 
ATOM     44  C   UNL     1      29.657  23.833  11.335  0.00  0.00    +0.000 C 
ATOM     45  H   UNL     1      28.058  23.597  12.545  0.00  0.00    +0.000 HD
BRANCH  44  46
ATOM     46  O   UNL     1      28.701  24.165  10.441  0.00  0.00    +0.000 OA
BRANCH  46  47
ATOM     47  C   UNL     1      28.426  25.556  10.133  0.00  0.00    +0.000 C 
ATOM     48  C   UNL     1      29.415  26.105   9.099  0.00  0.00    +0.000 C 
ATOM     49  C   UNL     1      27.022  25.546   9.511  0.00  0.00    +0.000 C 
ATOM     50  C   UNL     1      28.394  26.410  11.405  0.00  0.00    +0.000 C 
ENDBRANCH  46  47
ENDBRANCH  44  46
ENDBRANCH  35  43
ENDBRANCH  32  35
ENDBRANCH  31  32
ENDBRANCH  29  31
ENDBRANCH  18  29
BRANCH   7  51
ATOM     51  O   UNL     1      30.023  19.941  19.034  0.00  0.00    +0.000 OA
BRANCH  51  53
ATOM     52  O   UNL     1      28.230  19.070  18.796  0.00  0.00    +0.000 OA
ATOM     53  C   UNL     1      29.288  19.154  18.182  0.00  0.00    +0.000 C 
BRANCH  53  54
ATOM     54  C   UNL     1      30.018  18.251  16.658  0.00  0.00    +0.000 A 
ATOM     55  C   UNL     1      31.432  17.934  16.458  0.00  0.00    +0.000 A 
ATOM     56  C   UNL     1      29.300  17.646  15.580  0.00  0.00    +0.000 A 
ATOM     57  C   UNL     1      32.002  17.177  15.403  0.00  0.00    +0.000 A 
ATOM     58  C   UNL     1      29.855  16.882  14.512  0.00  0.00    +0.000 A 
ATOM     59  C   UNL     1      31.205  16.646  14.421  0.00  0.00    +0.000 A 
ENDBRANCH  53  54
ENDBRANCH  51  53
ENDBRANCH   7  51
BRANCH   4  60
ATOM     60  O   UNL     1      30.586  16.819  19.582  0.00  0.00    +0.000 OA
BRANCH  60  62
ATOM     61  O   UNL     1      29.248  15.429  18.449  0.00  0.00    +0.000 OA
ATOM     62  C   UNL     1      30.321  15.618  19.017  0.00  0.00    +0.000 C 
ATOM     63  C   UNL     1      31.299  14.500  19.196  0.00  0.00    +0.000 C 
ENDBRANCH  60  62
ENDBRANCH   4  60
TORSDOF 17
ENDMDL
MODEL 9
REMARK VINA RESULT:      -5.2     19.383     23.582
REMARK  Name = 
REMARK  25 active torsions:
REMARK  status: ('A' for Active; 'I' for Inactive)
REMARK    1  A    between atoms: O_2  and  C_17
REMARK    2  A    between atoms: O_2  and  C_36
REMARK    3  A    between atoms: O_3  and  C_20
REMARK    4  A    between atoms: O_3  and  C_37
REMARK    5  A    between atoms: O_4  and  C_21
REMARK    6  A    between atoms: O_5  and  C_22
REMARK    7  A    between atoms: O_7  and  C_30
REMARK    8  A    between atoms: O_8  and  C_31
REMARK    9  A    between atoms: O_8  and  C_39
REMARK   10  A    between atoms: O_12  and  C_41
REMARK   11  A    between atoms: O_13  and  C_51
REMARK   12  A    between atoms: O_13  and  C_55
REMARK   13  A    between atoms: N_15  and  C_44
REMARK   14  A    between atoms: C_18  and  C_29
REMARK   15  A    between atoms: C_24  and  C_33
REMARK   16  A    between atoms: C_24  and  C_34
REMARK   17  A    between atoms: C_32  and  C_35
REMARK   18  A    between atoms: C_36  and  C_38
REMARK   19  A    between atoms: C_37  and  C_40
REMARK   20  A    between atoms: C_39  and  C_41
REMARK   21  A    between atoms: C_41  and  C_44
REMARK   22  A    between atoms: C_44  and  C_48
REMARK   23  A    between atoms: C_55  and  C_56
REMARK   24  A    between atoms: C_55  and  C_57
REMARK   25  A    between atoms: C_55  and  C_58
REMARK                            x       y       z     vdW  Elec       q    Type
REMARK                         _______ _______ _______ _____ _____    ______ ____
ROOT
ATOM      1  O   UNL     1      -8.909  28.823  12.030  0.00  0.00    +0.000 OA
ATOM      2  O   UNL     1      -4.164  24.329  10.464  0.00  0.00    +0.000 OA
ATOM      3  C   UNL     1      -6.156  27.127  13.214  0.00  0.00    +0.000 C 
ATOM      4  C   UNL     1      -6.951  28.397  12.789  0.00  0.00    +0.000 C 
ATOM      5  C   UNL     1      -5.323  26.446  11.650  0.00  0.00    +0.000 C 
ATOM      6  C   UNL     1      -8.039  27.665  11.902  0.00  0.00    +0.000 C 
ATOM      7  C   UNL     1      -5.219  27.384  14.805  0.00  0.00    +0.000 C 
ATOM      8  C   UNL     1      -4.030  26.498  15.983  0.00  0.00    +0.000 C 
ATOM      9  C   UNL     1      -6.540  26.099  10.696  0.00  0.00    +0.000 C 
ATOM     10  C   UNL     1      -7.597  27.232  10.520  0.00  0.00    +0.000 C 
ATOM     11  C   UNL     1      -3.127  24.993  15.720  0.00  0.00    +0.000 C 
ATOM     12  C   UNL     1      -8.291  29.008  13.365  0.00  0.00    +0.000 C 
ATOM     13  C   UNL     1      -4.115  25.010  11.512  0.00  0.00    +0.000 C 
ATOM     14  C   UNL     1      -2.819  27.517  16.206  0.00  0.00    +0.000 C 
ATOM     15  C   UNL     1      -2.270  25.048  14.369  0.00  0.00    +0.000 C 
ATOM     16  C   UNL     1      -4.540  27.568  10.847  0.00  0.00    +0.000 C 
ATOM     17  C   UNL     1      -2.789  24.434  12.774  0.00  0.00    +0.000 C 
ATOM     18  C   UNL     1      -1.508  27.326  15.315  0.00  0.00    +0.000 C 
ATOM     19  C   UNL     1      -1.341  26.061  14.399  0.00  0.00    +0.000 C 
ATOM     20  C   UNL     1      -2.075  24.856  16.932  0.00  0.00    +0.000 C 
ATOM     21  C   UNL     1      -3.826  23.624  15.993  0.00  0.00    +0.000 C 
ATOM     22  C   UNL     1      -0.242  26.183  13.373  0.00  0.00    +0.000 C 
ENDROOT
BRANCH  17  23
ATOM     23  O   UNL     1      -2.722  23.012  12.892  0.00  0.00    +0.000 OA
ATOM     24  H   UNL     1      -2.657  22.686  11.975  0.00  0.00    +0.000 HD
ENDBRANCH  17  23
BRANCH   9  25
ATOM     25  O   UNL     1      -7.231  24.969  11.231  0.00  0.00    +0.000 OA
ATOM     26  H   UNL     1      -7.963  24.768  10.620  0.00  0.00    +0.000 HD
ENDBRANCH   9  25
BRANCH   8  27
ATOM     27  O   UNL     1      -4.745  26.426  17.233  0.00  0.00    +0.000 OA
ATOM     28  H   UNL     1      -4.681  27.285  17.686  0.00  0.00    +0.000 HD
ENDBRANCH   8  27
BRANCH  18  29
ATOM     29  O   UNL     1      -1.392  28.491  14.448  0.00  0.00    +0.000 OA
BRANCH  29  31
ATOM     30  O   UNL     1      -0.947  30.449  15.482  0.00  0.00    +0.000 OA
ATOM     31  C   UNL     1      -0.554  29.485  14.834  0.00  0.00    +0.000 C 
BRANCH  31  32
ATOM     32  C   UNL     1       0.867  29.398  14.264  0.00  0.00    +0.000 C 
BRANCH  32  33
ATOM     33  O   UNL     1       1.881  29.010  15.197  0.00  0.00    +0.000 OA
ATOM     34  H   UNL     1       1.767  29.587  15.975  0.00  0.00    +0.000 HD
ENDBRANCH  32  33
BRANCH  32  35
ATOM     35  C   UNL     1       1.206  30.751  13.584  0.00  0.00    +0.000 C 
BRANCH  35  36
ATOM     36  C   UNL     1       1.151  30.673  12.062  0.00  0.00    +0.000 A 
ATOM     37  C   UNL     1       0.806  29.462  11.441  0.00  0.00    +0.000 A 
ATOM     38  C   UNL     1       1.401  31.794  11.251  0.00  0.00    +0.000 A 
ATOM     39  C   UNL     1       0.737  29.366  10.050  0.00  0.00    +0.000 A 
ATOM     40  C   UNL     1       1.332  31.695   9.860  0.00  0.00    +0.000 A 
ATOM     41  C   UNL     1       1.003  30.481   9.260  0.00  0.00    +0.000 A 
ENDBRANCH  35  36
BRANCH  35  43
ATOM     42  O   UNL     1       1.958  33.415  14.355  0.00  0.00    +0.000 OA
ATOM     43  N   UNL     1       2.523  31.232  13.981  0.00  0.00    +0.000 N 
ATOM     44  C   UNL     1       2.796  32.538  14.226  0.00  0.00    +0.000 C 
ATOM     45  H   UNL     1       3.317  30.639  13.780  0.00  0.00    +0.000 HD
BRANCH  44  46
ATOM     46  O   UNL     1       4.134  32.688  14.327  0.00  0.00    +0.000 OA
BRANCH  46  47
ATOM     47  C   UNL     1       4.833  33.672  13.522  0.00  0.00    +0.000 C 
ATOM     48  C   UNL     1       4.763  35.065  14.156  0.00  0.00    +0.000 C 
ATOM     49  C   UNL     1       6.296  33.205  13.522  0.00  0.00    +0.000 C 
ATOM     50  C   UNL     1       4.318  33.673  12.078  0.00  0.00    +0.000 C 
ENDBRANCH  46  47
ENDBRANCH  44  46
ENDBRANCH  35  43
ENDBRANCH  32  35
ENDBRANCH  31  32
ENDBRANCH  29  31
ENDBRANCH  18  29
BRANCH   7  51
ATOM     51  O   UNL     1      -4.193  27.705  14.045  0.00  0.00    +0.000 OA
BRANCH  51  53
ATOM     52  O   UNL     1      -5.159  28.961  15.278  0.00  0.00    +0.000 OA
ATOM     53  C   UNL     1      -4.340  29.032  14.367  0.00  0.00    +0.000 C 
BRANCH  53  54
ATOM     54  C   UNL     1      -3.628  30.475  13.327  0.00  0.00    +0.000 A 
ATOM     55  C   UNL     1      -3.618  31.883  13.727  0.00  0.00    +0.000 A 
ATOM     56  C   UNL     1      -2.898  30.387  12.103  0.00  0.00    +0.000 A 
ATOM     57  C   UNL     1      -3.010  32.966  13.043  0.00  0.00    +0.000 A 
ATOM     58  C   UNL     1      -2.280  31.462  11.400  0.00  0.00    +0.000 A 
ATOM     59  C   UNL     1      -2.335  32.753  11.869  0.00  0.00    +0.000 A 
ENDBRANCH  53  54
ENDBRANCH  51  53
ENDBRANCH   7  51
BRANCH   4  60
ATOM     60  O   UNL     1      -6.132  29.345  12.065  0.00  0.00    +0.000 OA
BRANCH  60  62
ATOM     61  O   UNL     1      -6.845  31.405  12.568  0.00  0.00    +0.000 OA
ATOM     62  C   UNL     1      -6.541  30.584  11.705  0.00  0.00    +0.000 C 
ATOM     63  C   UNL     1      -6.726  30.894  10.254  0.00  0.00    +0.000 C 
ENDBRANCH  60  62
ENDBRANCH   4  60
TORSDOF 17
ENDMDL
