MODEL 1
REMARK VINA RESULT:      -6.9      0.000      0.000
REMARK  Name = 
REMARK  13 active torsions:
REMARK  status: ('A' for Active; 'I' for Inactive)
REMARK    1  A    between atoms: O_1  and  C_13
REMARK    2  A    between atoms: O_1  and  C_19
REMARK    3  A    between atoms: O_3  and  C_14
REMARK    4  A    between atoms: O_4  and  C_22
REMARK    5  A    between atoms: O_5  and  C_24
REMARK    6  A    between atoms: O_6  and  C_26
REMARK    7  A    between atoms: O_8  and  C_30
REMARK    8  A    between atoms: O_11  and  C_35
REMARK    9  A    between atoms: O_11  and  C_39
REMARK   10  A    between atoms: N_12  and  C_21
REMARK   11  A    between atoms: C_14  and  C_25
REMARK   12  A    between atoms: C_23  and  C_29
REMARK   13  A    between atoms: C_25  and  C_30
REMARK                            x       y       z     vdW  Elec       q    Type
REMARK                         _______ _______ _______ _____ _____    ______ ____
ROOT
ATOM      1  O   UNL     1       6.840  19.949  31.484  0.00  0.00    +0.000 OA
ATOM      2  O   UNL     1       8.015  24.664  29.326  0.00  0.00    +0.000 OA
ATOM      3  C   UNL     1      11.931  20.232  32.046  0.00  0.00    +0.000 C 
ATOM      4  C   UNL     1      13.677  21.879  31.235  0.00  0.00    +0.000 C 
ATOM      5  C   UNL     1      13.199  21.009  32.404  0.00  0.00    +0.000 C 
ATOM      6  C   UNL     1      12.593  22.888  30.830  0.00  0.00    +0.000 C 
ATOM      7  C   UNL     1      10.847  21.140  31.499  0.00  0.00    +0.000 A 
ATOM      8  C   UNL     1      11.167  22.371  30.895  0.00  0.00    +0.000 A 
ATOM      9  C   UNL     1       9.500  20.732  31.541  0.00  0.00    +0.000 A 
ATOM     10  C   UNL     1      10.131  23.169  30.377  0.00  0.00    +0.000 A 
ATOM     11  C   UNL     1       8.470  21.532  31.008  0.00  0.00    +0.000 A 
ATOM     12  C   UNL     1       8.790  22.753  30.427  0.00  0.00    +0.000 A 
ATOM     13  C   UNL     1       7.063  21.075  31.051  0.00  0.00    +0.000 C 
ATOM     14  C   UNL     1       7.721  23.602  29.868  0.00  0.00    +0.000 C 
ATOM     15  C   UNL     1       5.979  21.957  30.556  0.00  0.00    +0.000 A 
ATOM     16  C   UNL     1       6.313  23.180  29.971  0.00  0.00    +0.000 A 
ATOM     17  C   UNL     1       4.623  21.603  30.644  0.00  0.00    +0.000 A 
ATOM     18  C   UNL     1       5.315  24.035  29.479  0.00  0.00    +0.000 A 
ATOM     19  C   UNL     1       3.627  22.468  30.176  0.00  0.00    +0.000 A 
ATOM     20  C   UNL     1       3.973  23.679  29.584  0.00  0.00    +0.000 A 
ENDROOT
BRANCH   4  21
ATOM     21  O   UNL     1      14.031  21.063  30.111  0.00  0.00    +0.000 OA
ATOM     22  H   UNL     1      13.560  21.426  29.331  0.00  0.00    +0.000 HD
ENDBRANCH   4  21
BRANCH   9  23
ATOM     23  O   UNL     1       9.236  19.517  32.127  0.00  0.00    +0.000 OA
ATOM     24  H   UNL     1      10.088  19.115  32.418  0.00  0.00    +0.000 HD
ENDBRANCH   9  23
BRANCH  10  25
ATOM     25  O   UNL     1      10.498  24.372  29.824  0.00  0.00    +0.000 OA
ATOM     26  H   UNL     1      10.976  24.202  28.981  0.00  0.00    +0.000 HD
ENDBRANCH  10  25
BRANCH   4  28
ATOM     27  O   UNL     1      14.957  23.883  31.780  0.00  0.00    +0.000 OA
ATOM     28  C   UNL     1      14.941  22.654  31.645  0.00  0.00    +0.000 C 
BRANCH  28  29
ATOM     29  C   UNL     1      16.216  21.845  31.867  0.00  0.00    +0.000 C 
BRANCH  29  30
ATOM     30  O   UNL     1      16.982  21.748  30.672  0.00  0.00    +0.000 OA
ATOM     31  H   UNL     1      16.407  22.082  29.953  0.00  0.00    +0.000 HD
ENDBRANCH  29  30
ENDBRANCH  28  29
ENDBRANCH   4  28
BRANCH  17  32
ATOM     32  O   UNL     1       4.211  20.461  31.278  0.00  0.00    +0.000 OA
ATOM     33  C   UNL     1       3.332  19.709  30.439  0.00  0.00    +0.000 C 
ENDBRANCH  17  32
BRANCH   3  34
ATOM     34  O   UNL     1      12.242  19.300  30.996  0.00  0.00    +0.000 OA
BRANCH  34  36
ATOM     35  O   UNL     1      13.703  17.518  31.482  0.00  0.00    +0.000 OA
ATOM     36  C   UNL     1      12.346  17.956  31.475  0.00  0.00    +0.000 C 
ATOM     37  C   UNL     1      11.450  17.050  30.627  0.00  0.00    +0.000 C 
ATOM     38  C   UNL     1      12.017  16.885  29.215  0.00  0.00    +0.000 C 
ATOM     39  C   UNL     1      13.480  16.402  29.298  0.00  0.00    +0.000 C 
ATOM     40  C   UNL     1      14.279  17.382  30.177  0.00  0.00    +0.000 C 
ATOM     41  C   UNL     1      15.727  16.944  30.374  0.00  0.00    +0.000 C 
BRANCH  38  42
ATOM     42  N   UNL     1      11.203  15.936  28.434  0.00  0.00    +0.000 NA
ATOM     43  H   UNL     1      11.230  16.184  27.447  0.00  0.00    +0.000 HD
ATOM     44  H   UNL     1      10.230  16.064  28.732  0.00  0.00    +0.000 HD
ENDBRANCH  38  42
BRANCH  39  45
ATOM     45  O   UNL     1      13.485  15.071  29.846  0.00  0.00    +0.000 OA
ATOM     46  H   UNL     1      12.912  15.076  30.631  0.00  0.00    +0.000 HD
ENDBRANCH  39  45
ENDBRANCH  34  36
ENDBRANCH   3  34
TORSDOF 11
ENDMDL
MODEL 2
REMARK VINA RESULT:      -6.6     19.745     23.229
REMARK  Name = 
REMARK  13 active torsions:
REMARK  status: ('A' for Active; 'I' for Inactive)
REMARK    1  A    between atoms: O_1  and  C_13
REMARK    2  A    between atoms: O_1  and  C_19
REMARK    3  A    between atoms: O_3  and  C_14
REMARK    4  A    between atoms: O_4  and  C_22
REMARK    5  A    between atoms: O_5  and  C_24
REMARK    6  A    between atoms: O_6  and  C_26
REMARK    7  A    between atoms: O_8  and  C_30
REMARK    8  A    between atoms: O_11  and  C_35
REMARK    9  A    between atoms: O_11  and  C_39
REMARK   10  A    between atoms: N_12  and  C_21
REMARK   11  A    between atoms: C_14  and  C_25
REMARK   12  A    between atoms: C_23  and  C_29
REMARK   13  A    between atoms: C_25  and  C_30
REMARK                            x       y       z     vdW  Elec       q    Type
REMARK                         _______ _______ _______ _____ _____    ______ ____
ROOT
ATOM      1  O   UNL     1       2.914  31.132  14.821  0.00  0.00    +0.000 OA
ATOM      2  O   UNL     1       2.025  32.247   9.699  0.00  0.00    +0.000 OA
ATOM      3  C   UNL     1      -0.335  27.431  13.388  0.00  0.00    +0.000 C 
ATOM      4  C   UNL     1      -1.648  27.002  11.264  0.00  0.00    +0.000 C 
ATOM      5  C   UNL     1      -0.808  26.377  12.386  0.00  0.00    +0.000 C 
ATOM      6  C   UNL     1      -0.836  28.059  10.502  0.00  0.00    +0.000 C 
ATOM      7  C   UNL     1       0.359  28.591  12.702  0.00  0.00    +0.000 A 
ATOM      8  C   UNL     1       0.092  28.905  11.356  0.00  0.00    +0.000 A 
ATOM      9  C   UNL     1       1.245  29.410  13.428  0.00  0.00    +0.000 A 
ATOM     10  C   UNL     1       0.738  30.008  10.768  0.00  0.00    +0.000 A 
ATOM     11  C   UNL     1       1.878  30.519  12.836  0.00  0.00    +0.000 A 
ATOM     12  C   UNL     1       1.623  30.815  11.502  0.00  0.00    +0.000 A 
ATOM     13  C   UNL     1       2.795  31.374  13.623  0.00  0.00    +0.000 C 
ATOM     14  C   UNL     1       2.282  31.972  10.867  0.00  0.00    +0.000 C 
ATOM     15  C   UNL     1       3.515  32.494  12.971  0.00  0.00    +0.000 A 
ATOM     16  C   UNL     1       3.246  32.783  11.631  0.00  0.00    +0.000 A 
ATOM     17  C   UNL     1       4.451  33.285  13.654  0.00  0.00    +0.000 A 
ATOM     18  C   UNL     1       3.898  33.844  10.983  0.00  0.00    +0.000 A 
ATOM     19  C   UNL     1       5.120  34.326  13.000  0.00  0.00    +0.000 A 
ATOM     20  C   UNL     1       4.835  34.613  11.668  0.00  0.00    +0.000 A 
ENDROOT
BRANCH   4  21
ATOM     21  O   UNL     1      -2.842  27.589  11.796  0.00  0.00    +0.000 OA
ATOM     22  H   UNL     1      -3.592  27.022  11.516  0.00  0.00    +0.000 HD
ENDBRANCH   4  21
BRANCH   9  23
ATOM     23  O   UNL     1       1.465  29.075  14.743  0.00  0.00    +0.000 OA
ATOM     24  H   UNL     1       1.642  28.106  14.797  0.00  0.00    +0.000 HD
ENDBRANCH   9  23
BRANCH  10  25
ATOM     25  O   UNL     1       0.461  30.251   9.445  0.00  0.00    +0.000 OA
ATOM     26  H   UNL     1       0.658  31.194   9.246  0.00  0.00    +0.000 HD
ENDBRANCH  10  25
BRANCH   4  28
ATOM     27  O   UNL     1      -3.047  25.162  10.482  0.00  0.00    +0.000 OA
ATOM     28  C   UNL     1      -2.086  25.910  10.272  0.00  0.00    +0.000 C 
BRANCH  28  29
ATOM     29  C   UNL     1      -1.265  25.758   8.993  0.00  0.00    +0.000 C 
BRANCH  29  30
ATOM     30  O   UNL     1      -0.505  24.556   9.006  0.00  0.00    +0.000 OA
ATOM     31  H   UNL     1      -0.703  24.119   9.860  0.00  0.00    +0.000 HD
ENDBRANCH  29  30
ENDBRANCH  28  29
ENDBRANCH   4  28
BRANCH  17  32
ATOM     32  O   UNL     1       4.830  33.013  14.942  0.00  0.00    +0.000 OA
ATOM     33  C   UNL     1       4.821  34.204  15.732  0.00  0.00    +0.000 C 
ENDBRANCH  17  32
BRANCH   3  34
ATOM     34  O   UNL     1      -1.484  27.985  14.052  0.00  0.00    +0.000 OA
BRANCH  34  36
ATOM     35  O   UNL     1      -3.118  27.668  15.717  0.00  0.00    +0.000 OA
ATOM     36  C   UNL     1      -1.865  27.225  15.203  0.00  0.00    +0.000 C 
ATOM     37  C   UNL     1      -0.750  27.306  16.248  0.00  0.00    +0.000 C 
ATOM     38  C   UNL     1      -0.669  28.708  16.857  0.00  0.00    +0.000 C 
ATOM     39  C   UNL     1      -2.053  29.117  17.399  0.00  0.00    +0.000 C 
ATOM     40  C   UNL     1      -3.090  28.991  16.267  0.00  0.00    +0.000 C 
ATOM     41  C   UNL     1      -4.506  29.310  16.733  0.00  0.00    +0.000 C 
BRANCH  38  42
ATOM     42  N   UNL     1       0.341  28.752  17.930  0.00  0.00    +0.000 NA
ATOM     43  H   UNL     1       1.008  27.992  17.813  0.00  0.00    +0.000 HD
ATOM     44  H   UNL     1      -0.152  28.564  18.809  0.00  0.00    +0.000 HD
ENDBRANCH  38  42
BRANCH  39  45
ATOM     45  O   UNL     1      -2.373  28.260  18.511  0.00  0.00    +0.000 OA
ATOM     46  H   UNL     1      -2.440  27.353  18.171  0.00  0.00    +0.000 HD
ENDBRANCH  39  45
ENDBRANCH  34  36
ENDBRANCH   3  34
TORSDOF 11
ENDMDL
MODEL 3
REMARK VINA RESULT:      -6.5      2.573      5.646
REMARK  Name = 
REMARK  13 active torsions:
REMARK  status: ('A' for Active; 'I' for Inactive)
REMARK    1  A    between atoms: O_1  and  C_13
REMARK    2  A    between atoms: O_1  and  C_19
REMARK    3  A    between atoms: O_3  and  C_14
REMARK    4  A    between atoms: O_4  and  C_22
REMARK    5  A    between atoms: O_5  and  C_24
REMARK    6  A    between atoms: O_6  and  C_26
REMARK    7  A    between atoms: O_8  and  C_30
REMARK    8  A    between atoms: O_11  and  C_35
REMARK    9  A    between atoms: O_11  and  C_39
REMARK   10  A    between atoms: N_12  and  C_21
REMARK   11  A    between atoms: C_14  and  C_25
REMARK   12  A    between atoms: C_23  and  C_29
REMARK   13  A    between atoms: C_25  and  C_30
REMARK                            x       y       z     vdW  Elec       q    Type
REMARK                         _______ _______ _______ _____ _____    ______ ____
ROOT
ATOM      1  O   UNL     1       8.649  21.819  30.071  0.00  0.00    +0.000 OA
ATOM      2  O   UNL     1       5.054  18.533  32.202  0.00  0.00    +0.000 OA
ATOM      3  C   UNL     1      11.093  17.309  30.100  0.00  0.00    +0.000 C 
ATOM      4  C   UNL     1      10.523  15.034  31.058  0.00  0.00    +0.000 C 
ATOM      5  C   UNL     1      11.119  15.798  29.868  0.00  0.00    +0.000 C 
ATOM      6  C   UNL     1       9.067  15.458  31.301  0.00  0.00    +0.000 C 
ATOM      7  C   UNL     1       9.711  17.798  30.487  0.00  0.00    +0.000 A 
ATOM      8  C   UNL     1       8.775  16.932  31.085  0.00  0.00    +0.000 A 
ATOM      9  C   UNL     1       9.365  19.150  30.302  0.00  0.00    +0.000 A 
ATOM     10  C   UNL     1       7.514  17.435  31.454  0.00  0.00    +0.000 A 
ATOM     11  C   UNL     1       8.104  19.648  30.685  0.00  0.00    +0.000 A 
ATOM     12  C   UNL     1       7.179  18.785  31.260  0.00  0.00    +0.000 A 
ATOM     13  C   UNL     1       7.768  21.077  30.492  0.00  0.00    +0.000 C 
ATOM     14  C   UNL     1       5.854  19.293  31.663  0.00  0.00    +0.000 C 
ATOM     15  C   UNL     1       6.413  21.575  30.829  0.00  0.00    +0.000 A 
ATOM     16  C   UNL     1       5.494  20.699  31.410  0.00  0.00    +0.000 A 
ATOM     17  C   UNL     1       6.021  22.902  30.595  0.00  0.00    +0.000 A 
ATOM     18  C   UNL     1       4.206  21.139  31.755  0.00  0.00    +0.000 A 
ATOM     19  C   UNL     1       4.728  23.332  30.915  0.00  0.00    +0.000 A 
ATOM     20  C   UNL     1       3.824  22.453  31.505  0.00  0.00    +0.000 A 
ENDROOT
BRANCH   4  21
ATOM     21  O   UNL     1      11.302  15.254  32.240  0.00  0.00    +0.000 OA
ATOM     22  H   UNL     1      10.675  15.303  32.993  0.00  0.00    +0.000 HD
ENDBRANCH   4  21
BRANCH   9  23
ATOM     23  O   UNL     1      10.314  19.962  29.727  0.00  0.00    +0.000 OA
ATOM     24  H   UNL     1      10.134  20.021  28.760  0.00  0.00    +0.000 HD
ENDBRANCH   9  23
BRANCH  10  25
ATOM     25  O   UNL     1       6.632  16.540  32.008  0.00  0.00    +0.000 OA
ATOM     26  H   UNL     1       7.069  15.660  32.073  0.00  0.00    +0.000 HD
ENDBRANCH  10  25
BRANCH   4  28
ATOM     27  O   UNL     1       9.535  12.869  30.517  0.00  0.00    +0.000 OA
ATOM     28  C   UNL     1      10.553  13.522  30.773  0.00  0.00    +0.000 C 
BRANCH  28  29
ATOM     29  C   UNL     1      11.910  12.825  30.839  0.00  0.00    +0.000 C 
BRANCH  29  30
ATOM     30  O   UNL     1      11.775  11.416  30.702  0.00  0.00    +0.000 OA
ATOM     31  H   UNL     1      11.067  11.274  30.040  0.00  0.00    +0.000 HD
ENDBRANCH  29  30
ENDBRANCH  28  29
ENDBRANCH   4  28
BRANCH  17  32
ATOM     32  O   UNL     1       6.834  23.797  29.953  0.00  0.00    +0.000 OA
ATOM     33  C   UNL     1       6.116  24.486  28.927  0.00  0.00    +0.000 C 
ENDBRANCH  17  32
BRANCH   3  34
ATOM     34  O   UNL     1      11.954  17.621  31.208  0.00  0.00    +0.000 OA
BRANCH  34  36
ATOM     35  O   UNL     1      14.185  17.645  31.963  0.00  0.00    +0.000 OA
ATOM     36  C   UNL     1      13.330  17.691  30.823  0.00  0.00    +0.000 C 
ATOM     37  C   UNL     1      13.553  18.953  29.986  0.00  0.00    +0.000 C 
ATOM     38  C   UNL     1      13.442  20.212  30.849  0.00  0.00    +0.000 C 
ATOM     39  C   UNL     1      14.397  20.097  32.055  0.00  0.00    +0.000 C 
ATOM     40  C   UNL     1      14.086  18.793  32.815  0.00  0.00    +0.000 C 
ATOM     41  C   UNL     1      15.032  18.560  33.988  0.00  0.00    +0.000 C 
BRANCH  38  42
ATOM     42  N   UNL     1      13.753  21.416  30.058  0.00  0.00    +0.000 NA
ATOM     43  H   UNL     1      14.171  22.127  30.655  0.00  0.00    +0.000 HD
ATOM     44  H   UNL     1      12.857  21.802  29.741  0.00  0.00    +0.000 HD
ENDBRANCH  38  42
BRANCH  39  45
ATOM     45  O   UNL     1      15.750  20.115  31.564  0.00  0.00    +0.000 OA
ATOM     46  H   UNL     1      16.000  19.198  31.361  0.00  0.00    +0.000 HD
ENDBRANCH  39  45
ENDBRANCH  34  36
ENDBRANCH   3  34
TORSDOF 11
ENDMDL
MODEL 4
REMARK VINA RESULT:      -6.5     19.512     22.541
REMARK  Name = 
REMARK  13 active torsions:
REMARK  status: ('A' for Active; 'I' for Inactive)
REMARK    1  A    between atoms: O_1  and  C_13
REMARK    2  A    between atoms: O_1  and  C_19
REMARK    3  A    between atoms: O_3  and  C_14
REMARK    4  A    between atoms: O_4  and  C_22
REMARK    5  A    between atoms: O_5  and  C_24
REMARK    6  A    between atoms: O_6  and  C_26
REMARK    7  A    between atoms: O_8  and  C_30
REMARK    8  A    between atoms: O_11  and  C_35
REMARK    9  A    between atoms: O_11  and  C_39
REMARK   10  A    between atoms: N_12  and  C_21
REMARK   11  A    between atoms: C_14  and  C_25
REMARK   12  A    between atoms: C_23  and  C_29
REMARK   13  A    between atoms: C_25  and  C_30
REMARK                            x       y       z     vdW  Elec       q    Type
REMARK                         _______ _______ _______ _____ _____    ______ ____
ROOT
ATOM      1  O   UNL     1       2.840  30.806  14.924  0.00  0.00    +0.000 OA
ATOM      2  O   UNL     1       0.868  31.050   9.993  0.00  0.00    +0.000 OA
ATOM      3  C   UNL     1      -0.389  26.823  14.781  0.00  0.00    +0.000 C 
ATOM      4  C   UNL     1      -2.073  26.015  13.068  0.00  0.00    +0.000 C 
ATOM      5  C   UNL     1      -0.986  25.606  14.071  0.00  0.00    +0.000 C 
ATOM      6  C   UNL     1      -1.500  26.960  12.002  0.00  0.00    +0.000 C 
ATOM      7  C   UNL     1       0.077  27.878  13.797  0.00  0.00    +0.000 A 
ATOM      8  C   UNL     1      -0.475  27.961  12.504  0.00  0.00    +0.000 A 
ATOM      9  C   UNL     1       1.037  28.830  14.190  0.00  0.00    +0.000 A 
ATOM     10  C   UNL     1      -0.032  28.974  11.635  0.00  0.00    +0.000 A 
ATOM     11  C   UNL     1       1.466  29.848  13.316  0.00  0.00    +0.000 A 
ATOM     12  C   UNL     1       0.930  29.916  12.036  0.00  0.00    +0.000 A 
ATOM     13  C   UNL     1       2.467  30.847  13.756  0.00  0.00    +0.000 C 
ATOM     14  C   UNL     1       1.372  30.975  11.110  0.00  0.00    +0.000 C 
ATOM     15  C   UNL     1       2.967  31.868  12.805  0.00  0.00    +0.000 A 
ATOM     16  C   UNL     1       2.417  31.928  11.523  0.00  0.00    +0.000 A 
ATOM     17  C   UNL     1       3.970  32.788  13.150  0.00  0.00    +0.000 A 
ATOM     18  C   UNL     1       2.856  32.891  10.600  0.00  0.00    +0.000 A 
ATOM     19  C   UNL     1       4.425  33.730  12.220  0.00  0.00    +0.000 A 
ATOM     20  C   UNL     1       3.860  33.789  10.949  0.00  0.00    +0.000 A 
ENDROOT
BRANCH   4  21
ATOM     21  O   UNL     1      -3.170  26.644  13.742  0.00  0.00    +0.000 OA
ATOM     22  H   UNL     1      -2.800  27.109  14.523  0.00  0.00    +0.000 HD
ENDBRANCH   4  21
BRANCH   9  23
ATOM     23  O   UNL     1       1.539  28.719  15.465  0.00  0.00    +0.000 OA
ATOM     24  H   UNL     1       0.795  28.811  16.106  0.00  0.00    +0.000 HD
ENDBRANCH   9  23
BRANCH  10  25
ATOM     25  O   UNL     1      -0.585  28.991  10.377  0.00  0.00    +0.000 OA
ATOM     26  H   UNL     1      -0.468  29.888   9.990  0.00  0.00    +0.000 HD
ENDBRANCH  10  25
BRANCH   4  28
ATOM     27  O   UNL     1      -2.884  24.734  11.157  0.00  0.00    +0.000 OA
ATOM     28  C   UNL     1      -2.631  24.765  12.367  0.00  0.00    +0.000 C 
BRANCH  28  29
ATOM     29  C   UNL     1      -2.892  23.535  13.233  0.00  0.00    +0.000 C 
BRANCH  29  30
ATOM     30  O   UNL     1      -3.969  23.757  14.135  0.00  0.00    +0.000 OA
ATOM     31  H   UNL     1      -4.247  24.686  14.003  0.00  0.00    +0.000 HD
ENDBRANCH  29  30
ENDBRANCH  28  29
ENDBRANCH   4  28
BRANCH  17  32
ATOM     32  O   UNL     1       4.617  32.739  14.356  0.00  0.00    +0.000 OA
ATOM     33  C   UNL     1       4.456  33.971  15.063  0.00  0.00    +0.000 C 
ENDBRANCH  17  32
BRANCH   3  34
ATOM     34  O   UNL     1      -1.414  27.441  15.578  0.00  0.00    +0.000 OA
BRANCH  34  36
ATOM     35  O   UNL     1      -1.771  25.917  17.338  0.00  0.00    +0.000 OA
ATOM     36  C   UNL     1      -1.240  27.189  16.976  0.00  0.00    +0.000 C 
ATOM     37  C   UNL     1      -1.877  28.330  17.773  0.00  0.00    +0.000 C 
ATOM     38  C   UNL     1      -3.404  28.284  17.671  0.00  0.00    +0.000 C 
ATOM     39  C   UNL     1      -3.908  26.886  18.084  0.00  0.00    +0.000 C 
ATOM     40  C   UNL     1      -3.197  25.825  17.224  0.00  0.00    +0.000 C 
ATOM     41  C   UNL     1      -3.583  24.402  17.612  0.00  0.00    +0.000 C 
BRANCH  38  42
ATOM     42  N   UNL     1      -4.014  29.325  18.518  0.00  0.00    +0.000 NA
ATOM     43  H   UNL     1      -4.947  29.550  18.177  0.00  0.00    +0.000 HD
ATOM     44  H   UNL     1      -3.454  30.175  18.394  0.00  0.00    +0.000 HD
ENDBRANCH  38  42
BRANCH  39  45
ATOM     45  O   UNL     1      -3.636  26.704  19.486  0.00  0.00    +0.000 OA
ATOM     46  H   UNL     1      -4.485  26.549  19.931  0.00  0.00    +0.000 HD
ENDBRANCH  39  45
ENDBRANCH  34  36
ENDBRANCH   3  34
TORSDOF 11
ENDMDL
MODEL 5
REMARK VINA RESULT:      -6.4     11.656     15.145
REMARK  Name = 
REMARK  13 active torsions:
REMARK  status: ('A' for Active; 'I' for Inactive)
REMARK    1  A    between atoms: O_1  and  C_13
REMARK    2  A    between atoms: O_1  and  C_19
REMARK    3  A    between atoms: O_3  and  C_14
REMARK    4  A    between atoms: O_4  and  C_22
REMARK    5  A    between atoms: O_5  and  C_24
REMARK    6  A    between atoms: O_6  and  C_26
REMARK    7  A    between atoms: O_8  and  C_30
REMARK    8  A    between atoms: O_11  and  C_35
REMARK    9  A    between atoms: O_11  and  C_39
REMARK   10  A    between atoms: N_12  and  C_21
REMARK   11  A    between atoms: C_14  and  C_25
REMARK   12  A    between atoms: C_23  and  C_29
REMARK   13  A    between atoms: C_25  and  C_30
REMARK                            x       y       z     vdW  Elec       q    Type
REMARK                         _______ _______ _______ _____ _____    ______ ____
ROOT
ATOM      1  O   UNL     1      24.433  22.558  23.381  0.00  0.00    +0.000 OA
ATOM      2  O   UNL     1      23.611  24.902  28.082  0.00  0.00    +0.000 OA
ATOM      3  C   UNL     1      22.428  18.780  26.212  0.00  0.00    +0.000 C 
ATOM      4  C   UNL     1      21.820  18.584  28.664  0.00  0.00    +0.000 C 
ATOM      5  C   UNL     1      21.404  18.262  27.223  0.00  0.00    +0.000 C 
ATOM      6  C   UNL     1      21.964  20.100  28.860  0.00  0.00    +0.000 C 
ATOM      7  C   UNL     1      22.739  20.248  26.425  0.00  0.00    +0.000 A 
ATOM      8  C   UNL     1      22.554  20.855  27.682  0.00  0.00    +0.000 A 
ATOM      9  C   UNL     1      23.274  21.014  25.372  0.00  0.00    +0.000 A 
ATOM     10  C   UNL     1      22.883  22.213  27.842  0.00  0.00    +0.000 A 
ATOM     11  C   UNL     1      23.611  22.371  25.544  0.00  0.00    +0.000 A 
ATOM     12  C   UNL     1      23.412  22.969  26.783  0.00  0.00    +0.000 A 
ATOM     13  C   UNL     1      24.185  23.153  24.426  0.00  0.00    +0.000 C 
ATOM     14  C   UNL     1      23.758  24.390  26.976  0.00  0.00    +0.000 C 
ATOM     15  C   UNL     1      24.466  24.598  24.595  0.00  0.00    +0.000 A 
ATOM     16  C   UNL     1      24.266  25.186  25.845  0.00  0.00    +0.000 A 
ATOM     17  C   UNL     1      24.939  25.400  23.544  0.00  0.00    +0.000 A 
ATOM     18  C   UNL     1      24.534  26.550  26.047  0.00  0.00    +0.000 A 
ATOM     19  C   UNL     1      25.181  26.765  23.739  0.00  0.00    +0.000 A 
ATOM     20  C   UNL     1      24.990  27.337  24.994  0.00  0.00    +0.000 A 
ENDROOT
BRANCH   4  21
ATOM     21  O   UNL     1      23.050  17.927  28.992  0.00  0.00    +0.000 OA
ATOM     22  H   UNL     1      23.632  17.995  28.205  0.00  0.00    +0.000 HD
ENDBRANCH   4  21
BRANCH   9  23
ATOM     23  O   UNL     1      23.450  20.377  24.166  0.00  0.00    +0.000 OA
ATOM     24  H   UNL     1      22.936  19.536  24.176  0.00  0.00    +0.000 HD
ENDBRANCH   9  23
BRANCH  10  25
ATOM     25  O   UNL     1      22.656  22.760  29.082  0.00  0.00    +0.000 OA
ATOM     26  H   UNL     1      23.390  23.380  29.296  0.00  0.00    +0.000 HD
ENDBRANCH  10  25
BRANCH   4  28
ATOM     27  O   UNL     1      19.581  18.451  29.625  0.00  0.00    +0.000 OA
ATOM     28  C   UNL     1      20.755  18.062  29.643  0.00  0.00    +0.000 C 
BRANCH  28  29
ATOM     29  C   UNL     1      21.203  17.035  30.680  0.00  0.00    +0.000 C 
BRANCH  29  30
ATOM     30  O   UNL     1      21.354  15.745  30.100  0.00  0.00    +0.000 OA
ATOM     31  H   UNL     1      22.287  15.686  29.810  0.00  0.00    +0.000 HD
ENDBRANCH  29  30
ENDBRANCH  28  29
ENDBRANCH   4  28
BRANCH  17  32
ATOM     32  O   UNL     1      25.081  24.918  22.270  0.00  0.00    +0.000 OA
ATOM     33  C   UNL     1      26.451  24.958  21.866  0.00  0.00    +0.000 C 
ENDBRANCH  17  32
BRANCH   3  34
ATOM     34  O   UNL     1      23.665  18.074  26.405  0.00  0.00    +0.000 OA
BRANCH  34  36
ATOM     35  O   UNL     1      23.087  15.892  25.735  0.00  0.00    +0.000 OA
ATOM     36  C   UNL     1      23.864  17.048  25.429  0.00  0.00    +0.000 C 
ATOM     37  C   UNL     1      25.358  16.731  25.331  0.00  0.00    +0.000 C 
ATOM     38  C   UNL     1      25.850  16.014  26.590  0.00  0.00    +0.000 C 
ATOM     39  C   UNL     1      24.973  14.773  26.855  0.00  0.00    +0.000 C 
ATOM     40  C   UNL     1      23.498  15.211  26.927  0.00  0.00    +0.000 C 
ATOM     41  C   UNL     1      22.547  14.034  27.117  0.00  0.00    +0.000 C 
BRANCH  38  42
ATOM     42  N   UNL     1      27.265  15.626  26.450  0.00  0.00    +0.000 NA
ATOM     43  H   UNL     1      27.824  16.435  26.186  0.00  0.00    +0.000 HD
ATOM     44  H   UNL     1      27.318  14.976  25.658  0.00  0.00    +0.000 HD
ENDBRANCH  38  42
BRANCH  39  45
ATOM     45  O   UNL     1      25.196  13.828  25.793  0.00  0.00    +0.000 OA
ATOM     46  H   UNL     1      24.396  13.281  25.716  0.00  0.00    +0.000 HD
ENDBRANCH  39  45
ENDBRANCH  34  36
ENDBRANCH   3  34
TORSDOF 11
ENDMDL
MODEL 6
REMARK VINA RESULT:      -6.3     25.174     27.833
REMARK  Name = 
REMARK  13 active torsions:
REMARK  status: ('A' for Active; 'I' for Inactive)
REMARK    1  A    between atoms: O_1  and  C_13
REMARK    2  A    between atoms: O_1  and  C_19
REMARK    3  A    between atoms: O_3  and  C_14
REMARK    4  A    between atoms: O_4  and  C_22
REMARK    5  A    between atoms: O_5  and  C_24
REMARK    6  A    between atoms: O_6  and  C_26
REMARK    7  A    between atoms: O_8  and  C_30
REMARK    8  A    between atoms: O_11  and  C_35
REMARK    9  A    between atoms: O_11  and  C_39
REMARK   10  A    between atoms: N_12  and  C_21
REMARK   11  A    between atoms: C_14  and  C_25
REMARK   12  A    between atoms: C_23  and  C_29
REMARK   13  A    between atoms: C_25  and  C_30
REMARK                            x       y       z     vdW  Elec       q    Type
REMARK                         _______ _______ _______ _____ _____    ______ ____
ROOT
ATOM      1  O   UNL     1      23.514  31.639   8.897  0.00  0.00    +0.000 OA
ATOM      2  O   UNL     1      19.628  29.261   6.157  0.00  0.00    +0.000 OA
ATOM      3  C   UNL     1      19.264  33.417  11.154  0.00  0.00    +0.000 C 
ATOM      4  C   UNL     1      16.796  33.195  10.625  0.00  0.00    +0.000 C 
ATOM      5  C   UNL     1      17.862  33.205  11.728  0.00  0.00    +0.000 C 
ATOM      6  C   UNL     1      17.075  32.077   9.610  0.00  0.00    +0.000 C 
ATOM      7  C   UNL     1      19.573  32.437  10.039  0.00  0.00    +0.000 A 
ATOM      8  C   UNL     1      18.540  31.838   9.291  0.00  0.00    +0.000 A 
ATOM      9  C   UNL     1      20.909  32.156   9.699  0.00  0.00    +0.000 A 
ATOM     10  C   UNL     1      18.873  30.957   8.247  0.00  0.00    +0.000 A 
ATOM     11  C   UNL     1      21.234  31.282   8.644  0.00  0.00    +0.000 A 
ATOM     12  C   UNL     1      20.211  30.681   7.920  0.00  0.00    +0.000 A 
ATOM     13  C   UNL     1      22.647  31.012   8.296  0.00  0.00    +0.000 C 
ATOM     14  C   UNL     1      20.536  29.760   6.814  0.00  0.00    +0.000 C 
ATOM     15  C   UNL     1      22.979  30.033   7.233  0.00  0.00    +0.000 A 
ATOM     16  C   UNL     1      21.942  29.439   6.510  0.00  0.00    +0.000 A 
ATOM     17  C   UNL     1      24.302  29.685   6.918  0.00  0.00    +0.000 A 
ATOM     18  C   UNL     1      22.218  28.517   5.488  0.00  0.00    +0.000 A 
ATOM     19  C   UNL     1      24.574  28.747   5.916  0.00  0.00    +0.000 A 
ATOM     20  C   UNL     1      23.533  28.171   5.194  0.00  0.00    +0.000 A 
ENDROOT
BRANCH   4  21
ATOM     21  O   UNL     1      16.750  34.463   9.957  0.00  0.00    +0.000 OA
ATOM     22  H   UNL     1      16.057  34.400   9.267  0.00  0.00    +0.000 HD
ENDBRANCH   4  21
BRANCH   9  23
ATOM     23  O   UNL     1      21.884  32.774  10.446  0.00  0.00    +0.000 OA
ATOM     24  H   UNL     1      21.970  33.708  10.143  0.00  0.00    +0.000 HD
ENDBRANCH   9  23
BRANCH  10  25
ATOM     25  O   UNL     1      17.826  30.381   7.570  0.00  0.00    +0.000 OA
ATOM     26  H   UNL     1      17.205  31.088   7.281  0.00  0.00    +0.000 HD
ENDBRANCH  10  25
BRANCH   4  28
ATOM     27  O   UNL     1      14.644  33.887  11.544  0.00  0.00    +0.000 OA
ATOM     28  C   UNL     1      15.408  32.962  11.244  0.00  0.00    +0.000 C 
BRANCH  28  29
ATOM     29  C   UNL     1      14.994  31.515  11.505  0.00  0.00    +0.000 C 
BRANCH  29  30
ATOM     30  O   UNL     1      14.042  31.068  10.547  0.00  0.00    +0.000 OA
ATOM     31  H   UNL     1      14.093  30.091  10.550  0.00  0.00    +0.000 HD
ENDBRANCH  29  30
ENDBRANCH  28  29
ENDBRANCH   4  28
BRANCH  17  32
ATOM     32  O   UNL     1      25.368  30.159   7.635  0.00  0.00    +0.000 OA
ATOM     33  C   UNL     1      26.306  30.809   6.774  0.00  0.00    +0.000 C 
ENDBRANCH  17  32
BRANCH   3  34
ATOM     34  O   UNL     1      19.329  34.728  10.567  0.00  0.00    +0.000 OA
BRANCH  34  36
ATOM     35  O   UNL     1      18.952  36.909  11.373  0.00  0.00    +0.000 OA
ATOM     36  C   UNL     1      19.735  35.725  11.509  0.00  0.00    +0.000 C 
ATOM     37  C   UNL     1      21.231  35.999  11.336  0.00  0.00    +0.000 C 
ATOM     38  C   UNL     1      21.506  36.732  10.020  0.00  0.00    +0.000 C 
ATOM     39  C   UNL     1      20.635  38.002   9.944  0.00  0.00    +0.000 C 
ATOM     40  C   UNL     1      19.158  37.606  10.138  0.00  0.00    +0.000 C 
ATOM     41  C   UNL     1      18.226  38.813  10.148  0.00  0.00    +0.000 C 
BRANCH  38  42
ATOM     42  N   UNL     1      22.935  37.077   9.905  0.00  0.00    +0.000 NA
ATOM     43  H   UNL     1      23.093  37.629   9.064  0.00  0.00    +0.000 HD
ATOM     44  H   UNL     1      23.443  36.197   9.767  0.00  0.00    +0.000 HD
ENDBRANCH  38  42
BRANCH  39  45
ATOM     45  O   UNL     1      21.078  38.915  10.965  0.00  0.00    +0.000 OA
ATOM     46  H   UNL     1      20.320  39.473  11.207  0.00  0.00    +0.000 HD
ENDBRANCH  39  45
ENDBRANCH  34  36
ENDBRANCH   3  34
TORSDOF 11
ENDMDL
MODEL 7
REMARK VINA RESULT:      -6.2      3.948      5.746
REMARK  Name = 
REMARK  13 active torsions:
REMARK  status: ('A' for Active; 'I' for Inactive)
REMARK    1  A    between atoms: O_1  and  C_13
REMARK    2  A    between atoms: O_1  and  C_19
REMARK    3  A    between atoms: O_3  and  C_14
REMARK    4  A    between atoms: O_4  and  C_22
REMARK    5  A    between atoms: O_5  and  C_24
REMARK    6  A    between atoms: O_6  and  C_26
REMARK    7  A    between atoms: O_8  and  C_30
REMARK    8  A    between atoms: O_11  and  C_35
REMARK    9  A    between atoms: O_11  and  C_39
REMARK   10  A    between atoms: N_12  and  C_21
REMARK   11  A    between atoms: C_14  and  C_25
REMARK   12  A    between atoms: C_23  and  C_29
REMARK   13  A    between atoms: C_25  and  C_30
REMARK                            x       y       z     vdW  Elec       q    Type
REMARK                         _______ _______ _______ _____ _____    ______ ____
ROOT
ATOM      1  O   UNL     1       5.274  18.908  32.950  0.00  0.00    +0.000 OA
ATOM      2  O   UNL     1       8.360  21.555  29.524  0.00  0.00    +0.000 OA
ATOM      3  C   UNL     1       9.028  15.556  31.961  0.00  0.00    +0.000 C 
ATOM      4  C   UNL     1      10.969  15.555  30.331  0.00  0.00    +0.000 C 
ATOM      5  C   UNL     1      10.507  15.221  31.756  0.00  0.00    +0.000 C 
ATOM      6  C   UNL     1      10.767  17.047  30.031  0.00  0.00    +0.000 C 
ATOM      7  C   UNL     1       8.709  16.980  31.552  0.00  0.00    +0.000 A 
ATOM      8  C   UNL     1       9.509  17.664  30.616  0.00  0.00    +0.000 A 
ATOM      9  C   UNL     1       7.567  17.621  32.067  0.00  0.00    +0.000 A 
ATOM     10  C   UNL     1       9.160  18.975  30.244  0.00  0.00    +0.000 A 
ATOM     11  C   UNL     1       7.217  18.930  31.680  0.00  0.00    +0.000 A 
ATOM     12  C   UNL     1       8.019  19.606  30.768  0.00  0.00    +0.000 A 
ATOM     13  C   UNL     1       6.003  19.578  32.224  0.00  0.00    +0.000 C 
ATOM     14  C   UNL     1       7.667  20.978  30.356  0.00  0.00    +0.000 C 
ATOM     15  C   UNL     1       5.685  20.982  31.869  0.00  0.00    +0.000 A 
ATOM     16  C   UNL     1       6.496  21.649  30.949  0.00  0.00    +0.000 A 
ATOM     17  C   UNL     1       4.589  21.666  32.418  0.00  0.00    +0.000 A 
ATOM     18  C   UNL     1       6.218  22.974  30.578  0.00  0.00    +0.000 A 
ATOM     19  C   UNL     1       4.329  22.996  32.067  0.00  0.00    +0.000 A 
ATOM     20  C   UNL     1       5.137  23.646  31.139  0.00  0.00    +0.000 A 
ENDROOT
BRANCH   4  21
ATOM     21  O   UNL     1      10.258  14.761  29.372  0.00  0.00    +0.000 OA
ATOM     22  H   UNL     1       9.622  15.356  28.921  0.00  0.00    +0.000 HD
ENDBRANCH   4  21
BRANCH   9  23
ATOM     23  O   UNL     1       6.808  16.911  32.967  0.00  0.00    +0.000 OA
ATOM     24  H   UNL     1       7.316  16.821  33.807  0.00  0.00    +0.000 HD
ENDBRANCH   9  23
BRANCH  10  25
ATOM     25  O   UNL     1       9.991  19.604  29.349  0.00  0.00    +0.000 OA
ATOM     26  H   UNL     1      10.897  19.230  29.439  0.00  0.00    +0.000 HD
ENDBRANCH  10  25
BRANCH   4  28
ATOM     27  O   UNL     1      13.050  14.425  30.919  0.00  0.00    +0.000 OA
ATOM     28  C   UNL     1      12.462  15.220  30.176  0.00  0.00    +0.000 C 
BRANCH  28  29
ATOM     29  C   UNL     1      13.225  15.932  29.062  0.00  0.00    +0.000 C 
BRANCH  29  30
ATOM     30  O   UNL     1      12.846  15.442  27.780  0.00  0.00    +0.000 OA
ATOM     31  H   UNL     1      13.495  15.810  27.146  0.00  0.00    +0.000 HD
ENDBRANCH  29  30
ENDBRANCH  28  29
ENDBRANCH   4  28
BRANCH  17  32
ATOM     32  O   UNL     1       3.798  21.110  33.388  0.00  0.00    +0.000 OA
ATOM     33  C   UNL     1       2.434  21.499  33.209  0.00  0.00    +0.000 C 
ENDBRANCH  17  32
BRANCH   3  34
ATOM     34  O   UNL     1       8.240  14.707  31.109  0.00  0.00    +0.000 OA
BRANCH  34  36
ATOM     35  O   UNL     1       7.910  12.475  31.785  0.00  0.00    +0.000 OA
ATOM     36  C   UNL     1       7.412  13.809  31.854  0.00  0.00    +0.000 C 
ATOM     37  C   UNL     1       5.973  13.916  31.344  0.00  0.00    +0.000 C 
ATOM     38  C   UNL     1       5.841  13.316  29.942  0.00  0.00    +0.000 C 
ATOM     39  C   UNL     1       6.389  11.874  29.943  0.00  0.00    +0.000 C 
ATOM     40  C   UNL     1       7.833  11.890  30.479  0.00  0.00    +0.000 C 
ATOM     41  C   UNL     1       8.434  10.492  30.583  0.00  0.00    +0.000 C 
BRANCH  38  42
ATOM     42  N   UNL     1       4.436  13.334  29.497  0.00  0.00    +0.000 NA
ATOM     43  H   UNL     1       4.121  12.387  29.297  0.00  0.00    +0.000 HD
ATOM     44  H   UNL     1       4.414  13.835  28.602  0.00  0.00    +0.000 HD
ENDBRANCH  38  42
BRANCH  39  45
ATOM     45  O   UNL     1       5.527  11.064  30.764  0.00  0.00    +0.000 OA
ATOM     46  H   UNL     1       4.934  11.665  31.246  0.00  0.00    +0.000 HD
ENDBRANCH  39  45
ENDBRANCH  34  36
ENDBRANCH   3  34
TORSDOF 11
ENDMDL
MODEL 8
REMARK VINA RESULT:      -6.2      2.366      5.260
REMARK  Name = 
REMARK  13 active torsions:
REMARK  status: ('A' for Active; 'I' for Inactive)
REMARK    1  A    between atoms: O_1  and  C_13
REMARK    2  A    between atoms: O_1  and  C_19
REMARK    3  A    between atoms: O_3  and  C_14
REMARK    4  A    between atoms: O_4  and  C_22
REMARK    5  A    between atoms: O_5  and  C_24
REMARK    6  A    between atoms: O_6  and  C_26
REMARK    7  A    between atoms: O_8  and  C_30
REMARK    8  A    between atoms: O_11  and  C_35
REMARK    9  A    between atoms: O_11  and  C_39
REMARK   10  A    between atoms: N_12  and  C_21
REMARK   11  A    between atoms: C_14  and  C_25
REMARK   12  A    between atoms: C_23  and  C_29
REMARK   13  A    between atoms: C_25  and  C_30
REMARK                            x       y       z     vdW  Elec       q    Type
REMARK                         _______ _______ _______ _____ _____    ______ ____
ROOT
ATOM      1  O   UNL     1       7.319  22.370  30.508  0.00  0.00    +0.000 OA
ATOM      2  O   UNL     1       5.612  17.582  32.067  0.00  0.00    +0.000 OA
ATOM      3  C   UNL     1      11.496  19.438  29.992  0.00  0.00    +0.000 C 
ATOM      4  C   UNL     1      12.019  17.038  30.613  0.00  0.00    +0.000 C 
ATOM      5  C   UNL     1      12.177  18.139  29.557  0.00  0.00    +0.000 C 
ATOM      6  C   UNL     1      10.534  16.740  30.870  0.00  0.00    +0.000 C 
ATOM      7  C   UNL     1      10.055  19.211  30.402  0.00  0.00    +0.000 A 
ATOM      8  C   UNL     1       9.616  17.950  30.849  0.00  0.00    +0.000 A 
ATOM      9  C   UNL     1       9.143  20.284  30.393  0.00  0.00    +0.000 A 
ATOM     10  C   UNL     1       8.276  17.792  31.247  0.00  0.00    +0.000 A 
ATOM     11  C   UNL     1       7.806  20.120  30.804  0.00  0.00    +0.000 A 
ATOM     12  C   UNL     1       7.375  18.869  31.229  0.00  0.00    +0.000 A 
ATOM     13  C   UNL     1       6.870  21.266  30.798  0.00  0.00    +0.000 C 
ATOM     14  C   UNL     1       5.976  18.682  31.660  0.00  0.00    +0.000 C 
ATOM     15  C   UNL     1       5.446  21.066  31.161  0.00  0.00    +0.000 A 
ATOM     16  C   UNL     1       5.026  19.806  31.591  0.00  0.00    +0.000 A 
ATOM     17  C   UNL     1       4.502  22.103  31.098  0.00  0.00    +0.000 A 
ATOM     18  C   UNL     1       3.689  19.582  31.955  0.00  0.00    +0.000 A 
ATOM     19  C   UNL     1       3.164  21.872  31.437  0.00  0.00    +0.000 A 
ATOM     20  C   UNL     1       2.760  20.615  31.876  0.00  0.00    +0.000 A 
ENDROOT
BRANCH   4  21
ATOM     21  O   UNL     1      12.662  17.417  31.836  0.00  0.00    +0.000 OA
ATOM     22  H   UNL     1      13.271  16.688  32.079  0.00  0.00    +0.000 HD
ENDBRANCH   4  21
BRANCH   9  23
ATOM     23  O   UNL     1       9.618  21.500  29.962  0.00  0.00    +0.000 OA
ATOM     24  H   UNL     1       8.865  22.134  29.914  0.00  0.00    +0.000 HD
ENDBRANCH   9  23
BRANCH  10  25
ATOM     25  O   UNL     1       7.897  16.534  31.648  0.00  0.00    +0.000 OA
ATOM     26  H   UNL     1       7.701  15.991  30.850  0.00  0.00    +0.000 HD
ENDBRANCH  10  25
BRANCH   4  28
ATOM     27  O   UNL     1      12.866  14.762  30.855  0.00  0.00    +0.000 OA
ATOM     28  C   UNL     1      12.701  15.748  30.126  0.00  0.00    +0.000 C 
BRANCH  28  29
ATOM     29  C   UNL     1      13.201  15.723  28.684  0.00  0.00    +0.000 C 
BRANCH  29  30
ATOM     30  O   UNL     1      14.565  15.322  28.617  0.00  0.00    +0.000 OA
ATOM     31  H   UNL     1      14.596  14.571  27.989  0.00  0.00    +0.000 HD
ENDBRANCH  29  30
ENDBRANCH  28  29
ENDBRANCH   4  28
BRANCH  17  32
ATOM     32  O   UNL     1       4.817  23.343  30.609  0.00  0.00    +0.000 OA
ATOM     33  C   UNL     1       4.316  24.367  31.471  0.00  0.00    +0.000 C 
ENDBRANCH  17  32
BRANCH   3  34
ATOM     34  O   UNL     1      12.171  19.945  31.156  0.00  0.00    +0.000 OA
BRANCH  34  36
ATOM     35  O   UNL     1      14.197  20.784  32.015  0.00  0.00    +0.000 OA
ATOM     36  C   UNL     1      13.431  20.543  30.837  0.00  0.00    +0.000 C 
ATOM     37  C   UNL     1      13.189  21.822  30.033  0.00  0.00    +0.000 C 
ATOM     38  C   UNL     1      12.578  22.916  30.912  0.00  0.00    +0.000 C 
ATOM     39  C   UNL     1      13.460  23.129  32.159  0.00  0.00    +0.000 C 
ATOM     40  C   UNL     1      13.639  21.780  32.881  0.00  0.00    +0.000 C 
ATOM     41  C   UNL     1      14.559  21.882  34.093  0.00  0.00    +0.000 C 
BRANCH  38  42
ATOM     42  N   UNL     1      12.438  24.174  30.157  0.00  0.00    +0.000 NA
ATOM     43  H   UNL     1      12.718  24.032  29.188  0.00  0.00    +0.000 HD
ATOM     44  H   UNL     1      13.114  24.835  30.554  0.00  0.00    +0.000 HD
ENDBRANCH  38  42
BRANCH  39  45
ATOM     45  O   UNL     1      14.722  23.674  31.732  0.00  0.00    +0.000 OA
ATOM     46  H   UNL     1      14.894  23.344  30.834  0.00  0.00    +0.000 HD
ENDBRANCH  39  45
ENDBRANCH  34  36
ENDBRANCH   3  34
TORSDOF 11
ENDMDL
MODEL 9
REMARK VINA RESULT:      -6.1     12.923     17.170
REMARK  Name = 
REMARK  13 active torsions:
REMARK  status: ('A' for Active; 'I' for Inactive)
REMARK    1  A    between atoms: O_1  and  C_13
REMARK    2  A    between atoms: O_1  and  C_19
REMARK    3  A    between atoms: O_3  and  C_14
REMARK    4  A    between atoms: O_4  and  C_22
REMARK    5  A    between atoms: O_5  and  C_24
REMARK    6  A    between atoms: O_6  and  C_26
REMARK    7  A    between atoms: O_8  and  C_30
REMARK    8  A    between atoms: O_11  and  C_35
REMARK    9  A    between atoms: O_11  and  C_39
REMARK   10  A    between atoms: N_12  and  C_21
REMARK   11  A    between atoms: C_14  and  C_25
REMARK   12  A    between atoms: C_23  and  C_29
REMARK   13  A    between atoms: C_25  and  C_30
REMARK                            x       y       z     vdW  Elec       q    Type
REMARK                         _______ _______ _______ _____ _____    ______ ____
ROOT
ATOM      1  O   UNL     1       0.906  12.175  27.090  0.00  0.00    +0.000 OA
ATOM      2  O   UNL     1       2.958   8.565  23.768  0.00  0.00    +0.000 OA
ATOM      3  C   UNL     1      -1.266  13.379  22.602  0.00  0.00    +0.000 C 
ATOM      4  C   UNL     1      -0.933  12.543  20.233  0.00  0.00    +0.000 C 
ATOM      5  C   UNL     1      -1.952  12.979  21.295  0.00  0.00    +0.000 C 
ATOM      6  C   UNL     1      -0.110  11.345  20.731  0.00  0.00    +0.000 C 
ATOM      7  C   UNL     1      -0.319  12.304  23.095  0.00  0.00    +0.000 A 
ATOM      8  C   UNL     1       0.251  11.373  22.205  0.00  0.00    +0.000 A 
ATOM      9  C   UNL     1       0.049  12.258  24.453  0.00  0.00    +0.000 A 
ATOM     10  C   UNL     1       1.147  10.409  22.702  0.00  0.00    +0.000 A 
ATOM     11  C   UNL     1       0.956  11.298  24.941  0.00  0.00    +0.000 A 
ATOM     12  C   UNL     1       1.503  10.371  24.061  0.00  0.00    +0.000 A 
ATOM     13  C   UNL     1       1.338  11.279  26.371  0.00  0.00    +0.000 C 
ATOM     14  C   UNL     1       2.453   9.358  24.558  0.00  0.00    +0.000 C 
ATOM     15  C   UNL     1       2.235  10.218  26.888  0.00  0.00    +0.000 A 
ATOM     16  C   UNL     1       2.781   9.296  25.993  0.00  0.00    +0.000 A 
ATOM     17  C   UNL     1       2.566  10.111  28.248  0.00  0.00    +0.000 A 
ATOM     18  C   UNL     1       3.646   8.285  26.444  0.00  0.00    +0.000 A 
ATOM     19  C   UNL     1       3.407   9.087  28.700  0.00  0.00    +0.000 A 
ATOM     20  C   UNL     1       3.956   8.181  27.797  0.00  0.00    +0.000 A 
ENDROOT
BRANCH   4  21
ATOM     21  O   UNL     1      -0.063  13.629  19.894  0.00  0.00    +0.000 OA
ATOM     22  H   UNL     1      -0.585  14.257  19.350  0.00  0.00    +0.000 HD
ENDBRANCH   4  21
BRANCH   9  23
ATOM     23  O   UNL     1      -0.521  13.195  25.283  0.00  0.00    +0.000 OA
ATOM     24  H   UNL     1      -0.401  14.087  24.881  0.00  0.00    +0.000 HD
ENDBRANCH   9  23
BRANCH  10  25
ATOM     25  O   UNL     1       1.651   9.510  21.794  0.00  0.00    +0.000 OA
ATOM     26  H   UNL     1       1.694   8.622  22.216  0.00  0.00    +0.000 HD
ENDBRANCH  10  25
BRANCH   4  28
ATOM     27  O   UNL     1      -1.866  12.917  18.010  0.00  0.00    +0.000 OA
ATOM     28  C   UNL     1      -1.667  12.133  18.945  0.00  0.00    +0.000 C 
BRANCH  28  29
ATOM     29  C   UNL     1      -2.176  10.696  18.858  0.00  0.00    +0.000 C 
BRANCH  29  30
ATOM     30  O   UNL     1      -1.569   9.997  17.777  0.00  0.00    +0.000 OA
ATOM     31  H   UNL     1      -1.638   9.045  17.997  0.00  0.00    +0.000 HD
ENDBRANCH  29  30
ENDBRANCH  28  29
ENDBRANCH   4  28
BRANCH  17  32
ATOM     32  O   UNL     1       2.007  10.923  29.198  0.00  0.00    +0.000 OA
ATOM     33  C   UNL     1       3.020  11.629  29.918  0.00  0.00    +0.000 C 
ENDBRANCH  17  32
BRANCH   3  34
ATOM     34  O   UNL     1      -0.461  14.546  22.362  0.00  0.00    +0.000 OA
BRANCH  34  36
ATOM     35  O   UNL     1      -2.219  15.881  23.182  0.00  0.00    +0.000 OA
ATOM     36  C   UNL     1      -0.815  15.636  23.218  0.00  0.00    +0.000 C 
ATOM     37  C   UNL     1      -0.002  16.870  22.821  0.00  0.00    +0.000 C 
ATOM     38  C   UNL     1      -0.463  17.419  21.469  0.00  0.00    +0.000 C 
ATOM     39  C   UNL     1      -1.984  17.669  21.503  0.00  0.00    +0.000 C 
ATOM     40  C   UNL     1      -2.694  16.366  21.919  0.00  0.00    +0.000 C 
ATOM     41  C   UNL     1      -4.204  16.538  22.050  0.00  0.00    +0.000 C 
BRANCH  38  42
ATOM     42  N   UNL     1       0.257  18.662  21.138  0.00  0.00    +0.000 NA
ATOM     43  H   UNL     1       0.641  18.602  20.196  0.00  0.00    +0.000 HD
ATOM     44  H   UNL     1       1.064  18.715  21.769  0.00  0.00    +0.000 HD
ENDBRANCH  38  42
BRANCH  39  45
ATOM     45  O   UNL     1      -2.245  18.736  22.433  0.00  0.00    +0.000 OA
ATOM     46  H   UNL     1      -1.707  19.498  22.162  0.00  0.00    +0.000 HD
ENDBRANCH  39  45
ENDBRANCH  34  36
ENDBRANCH   3  34
TORSDOF 11
ENDMDL
