MODEL 1
REMARK VINA RESULT:      -6.1      0.000      0.000
REMARK  Name = Dronabinol.pdbqt.pdb
REMARK  3 active torsions:
REMARK  status: ('A' for Active; 'I' for Inactive)
REMARK    1  A    between atoms: C_13  and  O_18
REMARK    2  A    between atoms: C_16  and  C_20
REMARK    3  A    between atoms: C_21  and  C_22
REMARK                            x       y       z     vdW  Elec       q    Type
REMARK                         _______ _______ _______ _____ _____    ______ ____
ROOT
ATOM      1  O   UNL     1      -2.757  28.560  16.632  0.00  0.00    +0.000 OA
ATOM      2  C   UNL     1      -3.598  26.243  16.640  0.00  0.00    +0.000 A 
ATOM      3  C   UNL     1      -2.440  25.878  15.787  0.00  0.00    +0.000 A 
ATOM      4  C   UNL     1      -3.556  27.578  17.333  0.00  0.00    +0.000 C 
ATOM      5  C   UNL     1      -4.499  25.141  16.852  0.00  0.00    +0.000 A 
ATOM      6  C   UNL     1      -1.376  26.848  15.542  0.00  0.00    +0.000 A 
ATOM      7  C   UNL     1      -4.326  23.740  16.236  0.00  0.00    +0.000 A 
ATOM      8  C   UNL     1      -2.498  24.511  15.317  0.00  0.00    +0.000 A 
ATOM      9  C   UNL     1      -3.219  23.418  15.382  0.00  0.00    +0.000 A 
ATOM     10  C   UNL     1      -1.610  28.156  15.994  0.00  0.00    +0.000 A 
ATOM     11  C   UNL     1      -4.992  28.165  17.402  0.00  0.00    +0.000 C 
ATOM     12  C   UNL     1      -2.976  27.401  18.767  0.00  0.00    +0.000 C 
ATOM     13  C   UNL     1      -0.170  26.578  14.883  0.00  0.00    +0.000 A 
ATOM     14  C   UNL     1      -0.676  29.166  15.759  0.00  0.00    +0.000 A 
ATOM     15  C   UNL     1      -3.426  22.568  14.167  0.00  0.00    +0.000 C 
ATOM     16  C   UNL     1       0.515  28.879  15.102  0.00  0.00    +0.000 A 
ATOM     17  C   UNL     1       0.773  27.585  14.666  0.00  0.00    +0.000 A 
ENDROOT
BRANCH  13  18
ATOM     18  O   UNL     1       0.113  25.315  14.444  0.00  0.00    +0.000 OA
ATOM     19  H   UNL     1      -0.098  25.249  13.495  0.00  0.00    +0.000 HD
ENDBRANCH  13  18
BRANCH  16  20
ATOM     20  C   UNL     1       1.476  29.908  14.888  0.00  0.00    +0.000 C 
ATOM     21  C   UNL     1       2.500  31.023  14.652  0.00  0.00    +0.000 C 
BRANCH  21  22
ATOM     22  C   UNL     1       3.516  32.145  14.415  0.00  0.00    +0.000 C 
ATOM     23  C   UNL     1       4.534  33.266  14.181  0.00  0.00    +0.000 C 
ATOM     24  C   UNL     1       5.554  34.385  13.948  0.00  0.00    +0.000 C 
ENDBRANCH  21  22
ENDBRANCH  16  20
TORSDOF 3
ENDMDL
MODEL 2
REMARK VINA RESULT:      -5.6     33.412     35.400
REMARK  Name = Dronabinol.pdbqt.pdb
REMARK  3 active torsions:
REMARK  status: ('A' for Active; 'I' for Inactive)
REMARK    1  A    between atoms: C_13  and  O_18
REMARK    2  A    between atoms: C_16  and  C_20
REMARK    3  A    between atoms: C_21  and  C_22
REMARK                            x       y       z     vdW  Elec       q    Type
REMARK                         _______ _______ _______ _____ _____    ______ ____
ROOT
ATOM      1  O   UNL     1      13.937  -1.381  24.001  0.00  0.00    +0.000 OA
ATOM      2  C   UNL     1      13.388  -2.122  26.287  0.00  0.00    +0.000 A 
ATOM      3  C   UNL     1      12.674  -3.274  25.683  0.00  0.00    +0.000 A 
ATOM      4  C   UNL     1      14.312  -1.335  25.398  0.00  0.00    +0.000 C 
ATOM      5  C   UNL     1      13.249  -2.074  27.719  0.00  0.00    +0.000 A 
ATOM      6  C   UNL     1      12.780  -3.532  24.249  0.00  0.00    +0.000 A 
ATOM      7  C   UNL     1      12.421  -3.070  28.551  0.00  0.00    +0.000 A 
ATOM      8  C   UNL     1      11.956  -4.065  26.660  0.00  0.00    +0.000 A 
ATOM      9  C   UNL     1      11.706  -4.156  27.944  0.00  0.00    +0.000 A 
ATOM     10  C   UNL     1      13.423  -2.546  23.486  0.00  0.00    +0.000 A 
ATOM     11  C   UNL     1      14.263   0.163  25.805  0.00  0.00    +0.000 C 
ATOM     12  C   UNL     1      15.762  -1.886  25.540  0.00  0.00    +0.000 C 
ATOM     13  C   UNL     1      12.279  -4.662  23.591  0.00  0.00    +0.000 A 
ATOM     14  C   UNL     1      13.526  -2.675  22.100  0.00  0.00    +0.000 A 
ATOM     15  C   UNL     1      10.339  -4.523  28.429  0.00  0.00    +0.000 C 
ATOM     16  C   UNL     1      13.022  -3.804  21.463  0.00  0.00    +0.000 A 
ATOM     17  C   UNL     1      12.400  -4.800  22.206  0.00  0.00    +0.000 A 
ENDROOT
BRANCH  13  18
ATOM     18  O   UNL     1      11.665  -5.660  24.294  0.00  0.00    +0.000 OA
ATOM     19  H   UNL     1      11.515  -6.422  23.706  0.00  0.00    +0.000 HD
ENDBRANCH  13  18
BRANCH  16  20
ATOM     20  C   UNL     1      13.154  -3.944  20.053  0.00  0.00    +0.000 C 
ATOM     21  C   UNL     1      13.297  -4.108  18.535  0.00  0.00    +0.000 C 
BRANCH  21  22
ATOM     22  C   UNL     1      13.438  -4.283  17.021  0.00  0.00    +0.000 C 
ATOM     23  C   UNL     1      13.581  -4.453  15.505  0.00  0.00    +0.000 C 
ATOM     24  C   UNL     1      13.727  -4.623  13.989  0.00  0.00    +0.000 C 
ENDBRANCH  21  22
ENDBRANCH  16  20
TORSDOF 3
ENDMDL
MODEL 3
REMARK VINA RESULT:      -5.4     21.865     25.939
REMARK  Name = Dronabinol.pdbqt.pdb
REMARK  3 active torsions:
REMARK  status: ('A' for Active; 'I' for Inactive)
REMARK    1  A    between atoms: C_13  and  O_18
REMARK    2  A    between atoms: C_16  and  C_20
REMARK    3  A    between atoms: C_21  and  C_22
REMARK                            x       y       z     vdW  Elec       q    Type
REMARK                         _______ _______ _______ _____ _____    ______ ____
ROOT
ATOM      1  O   UNL     1      20.315  20.613   1.506  0.00  0.00    +0.000 OA
ATOM      2  C   UNL     1      21.591  22.670   1.968  0.00  0.00    +0.000 A 
ATOM      3  C   UNL     1      20.294  23.375   2.121  0.00  0.00    +0.000 A 
ATOM      4  C   UNL     1      21.568  21.165   1.972  0.00  0.00    +0.000 C 
ATOM      5  C   UNL     1      22.719  23.559   2.064  0.00  0.00    +0.000 A 
ATOM      6  C   UNL     1      19.045  22.616   2.141  0.00  0.00    +0.000 A 
ATOM      7  C   UNL     1      22.616  25.084   2.261  0.00  0.00    +0.000 A 
ATOM      8  C   UNL     1      20.447  24.804   2.285  0.00  0.00    +0.000 A 
ATOM      9  C   UNL     1      21.351  25.751   2.369  0.00  0.00    +0.000 A 
ATOM     10  C   UNL     1      19.142  21.252   1.827  0.00  0.00    +0.000 A 
ATOM     11  C   UNL     1      22.657  20.634   1.001  0.00  0.00    +0.000 C 
ATOM     12  C   UNL     1      21.832  20.646   3.416  0.00  0.00    +0.000 C 
ATOM     13  C   UNL     1      17.781  23.146   2.426  0.00  0.00    +0.000 A 
ATOM     14  C   UNL     1      17.998  20.454   1.767  0.00  0.00    +0.000 A 
ATOM     15  C   UNL     1      21.135  27.071   1.698  0.00  0.00    +0.000 C 
ATOM     16  C   UNL     1      16.751  20.998   2.052  0.00  0.00    +0.000 A 
ATOM     17  C   UNL     1      16.639  22.343   2.385  0.00  0.00    +0.000 A 
ENDROOT
BRANCH  13  18
ATOM     18  O   UNL     1      17.639  24.463   2.759  0.00  0.00    +0.000 OA
ATOM     19  H   UNL     1      17.303  24.530   3.671  0.00  0.00    +0.000 HD
ENDBRANCH  13  18
BRANCH  16  20
ATOM     20  C   UNL     1      15.590  20.174   2.015  0.00  0.00    +0.000 C 
ATOM     21  C   UNL     1      14.343  19.284   1.989  0.00  0.00    +0.000 C 
BRANCH  21  22
ATOM     22  C   UNL     1      13.097  18.394   1.973  0.00  0.00    +0.000 C 
ATOM     23  C   UNL     1      11.848  17.506   1.954  0.00  0.00    +0.000 C 
ATOM     24  C   UNL     1      10.599  16.619   1.932  0.00  0.00    +0.000 C 
ENDBRANCH  21  22
ENDBRANCH  16  20
TORSDOF 3
ENDMDL
MODEL 4
REMARK VINA RESULT:      -5.4     26.198     28.387
REMARK  Name = Dronabinol.pdbqt.pdb
REMARK  3 active torsions:
REMARK  status: ('A' for Active; 'I' for Inactive)
REMARK    1  A    between atoms: C_13  and  O_18
REMARK    2  A    between atoms: C_16  and  C_20
REMARK    3  A    between atoms: C_21  and  C_22
REMARK                            x       y       z     vdW  Elec       q    Type
REMARK                         _______ _______ _______ _____ _____    ______ ____
ROOT
ATOM      1  O   UNL     1      22.793  21.667  28.680  0.00  0.00    +0.000 OA
ATOM      2  C   UNL     1      22.974  23.873  27.593  0.00  0.00    +0.000 A 
ATOM      3  C   UNL     1      23.346  23.165  26.343  0.00  0.00    +0.000 A 
ATOM      4  C   UNL     1      22.373  23.052  28.703  0.00  0.00    +0.000 C 
ATOM      5  C   UNL     1      23.043  25.304  27.461  0.00  0.00    +0.000 A 
ATOM      6  C   UNL     1      23.246  21.710  26.267  0.00  0.00    +0.000 A 
ATOM      7  C   UNL     1      23.492  26.044  26.187  0.00  0.00    +0.000 A 
ATOM      8  C   UNL     1      23.742  24.068  25.284  0.00  0.00    +0.000 A 
ATOM      9  C   UNL     1      23.885  25.340  25.000  0.00  0.00    +0.000 A 
ATOM     10  C   UNL     1      22.966  21.042  27.469  0.00  0.00    +0.000 A 
ATOM     11  C   UNL     1      22.843  23.618  30.071  0.00  0.00    +0.000 C 
ATOM     12  C   UNL     1      20.820  23.100  28.602  0.00  0.00    +0.000 C 
ATOM     13  C   UNL     1      23.424  20.946  25.107  0.00  0.00    +0.000 A 
ATOM     14  C   UNL     1      22.904  19.648  27.509  0.00  0.00    +0.000 A 
ATOM     15  C   UNL     1      25.053  25.815  24.194  0.00  0.00    +0.000 C 
ATOM     16  C   UNL     1      23.085  18.906  26.347  0.00  0.00    +0.000 A 
ATOM     17  C   UNL     1      23.342  19.552  25.144  0.00  0.00    +0.000 A 
ENDROOT
BRANCH  13  18
ATOM     18  O   UNL     1      23.675  21.552  23.908  0.00  0.00    +0.000 OA
ATOM     19  H   UNL     1      24.626  21.756  23.844  0.00  0.00    +0.000 HD
ENDBRANCH  13  18
BRANCH  16  20
ATOM     20  C   UNL     1      22.994  17.486  26.388  0.00  0.00    +0.000 C 
ATOM     21  C   UNL     1      22.884  15.958  26.437  0.00  0.00    +0.000 C 
BRANCH  21  22
ATOM     22  C   UNL     1      22.762  14.432  26.487  0.00  0.00    +0.000 C 
ATOM     23  C   UNL     1      22.644  12.906  26.540  0.00  0.00    +0.000 C 
ATOM     24  C   UNL     1      22.525  11.379  26.596  0.00  0.00    +0.000 C 
ENDBRANCH  21  22
ENDBRANCH  16  20
TORSDOF 3
ENDMDL
MODEL 5
REMARK VINA RESULT:      -5.3     16.462     17.620
REMARK  Name = Dronabinol.pdbqt.pdb
REMARK  3 active torsions:
REMARK  status: ('A' for Active; 'I' for Inactive)
REMARK    1  A    between atoms: C_13  and  O_18
REMARK    2  A    between atoms: C_16  and  C_20
REMARK    3  A    between atoms: C_21  and  C_22
REMARK                            x       y       z     vdW  Elec       q    Type
REMARK                         _______ _______ _______ _____ _____    ______ ____
ROOT
ATOM      1  O   UNL     1       8.835  21.887  31.204  0.00  0.00    +0.000 OA
ATOM      2  C   UNL     1       6.872  20.401  31.331  0.00  0.00    +0.000 A 
ATOM      3  C   UNL     1       6.072  21.498  30.731  0.00  0.00    +0.000 A 
ATOM      4  C   UNL     1       8.371  20.517  31.261  0.00  0.00    +0.000 C 
ATOM      5  C   UNL     1       6.067  19.265  31.696  0.00  0.00    +0.000 A 
ATOM      6  C   UNL     1       6.736  22.693  30.218  0.00  0.00    +0.000 A 
ATOM      7  C   UNL     1       4.538  19.188  31.533  0.00  0.00    +0.000 A 
ATOM      8  C   UNL     1       4.656  21.203  30.691  0.00  0.00    +0.000 A 
ATOM      9  C   UNL     1       3.777  20.275  30.986  0.00  0.00    +0.000 A 
ATOM     10  C   UNL     1       8.107  22.809  30.493  0.00  0.00    +0.000 A 
ATOM     11  C   UNL     1       8.992  19.909  32.548  0.00  0.00    +0.000 C 
ATOM     12  C   UNL     1       8.891  19.765  30.001  0.00  0.00    +0.000 C 
ATOM     13  C   UNL     1       6.111  23.722  29.502  0.00  0.00    +0.000 A 
ATOM     14  C   UNL     1       8.818  23.941  30.091  0.00  0.00    +0.000 A 
ATOM     15  C   UNL     1       2.452  20.640  31.578  0.00  0.00    +0.000 C 
ATOM     16  C   UNL     1       8.181  24.953  29.382  0.00  0.00    +0.000 A 
ATOM     17  C   UNL     1       6.828  24.845  29.083  0.00  0.00    +0.000 A 
ENDROOT
BRANCH  13  18
ATOM     18  O   UNL     1       4.783  23.643  29.190  0.00  0.00    +0.000 OA
ATOM     19  H   UNL     1       4.377  24.523  29.289  0.00  0.00    +0.000 HD
ENDBRANCH  13  18
BRANCH  16  20
ATOM     20  C   UNL     1       8.917  26.093  28.951  0.00  0.00    +0.000 C 
ATOM     21  C   UNL     1       9.707  27.327  28.500  0.00  0.00    +0.000 C 
BRANCH  21  22
ATOM     22  C   UNL     1      10.497  28.562  28.060  0.00  0.00    +0.000 C 
ATOM     23  C   UNL     1      11.285  29.801  27.622  0.00  0.00    +0.000 C 
ATOM     24  C   UNL     1      12.074  31.041  27.188  0.00  0.00    +0.000 C 
ENDBRANCH  21  22
ENDBRANCH  16  20
TORSDOF 3
ENDMDL
MODEL 6
REMARK VINA RESULT:      -5.2     15.717     16.796
REMARK  Name = Dronabinol.pdbqt.pdb
REMARK  3 active torsions:
REMARK  status: ('A' for Active; 'I' for Inactive)
REMARK    1  A    between atoms: C_13  and  O_18
REMARK    2  A    between atoms: C_16  and  C_20
REMARK    3  A    between atoms: C_21  and  C_22
REMARK                            x       y       z     vdW  Elec       q    Type
REMARK                         _______ _______ _______ _____ _____    ______ ____
ROOT
ATOM      1  O   UNL     1       4.377  23.721  29.181  0.00  0.00    +0.000 OA
ATOM      2  C   UNL     1       3.951  21.646  30.441  0.00  0.00    +0.000 A 
ATOM      3  C   UNL     1       5.412  21.564  30.691  0.00  0.00    +0.000 A 
ATOM      4  C   UNL     1       3.407  22.954  29.932  0.00  0.00    +0.000 C 
ATOM      5  C   UNL     1       3.237  20.504  30.949  0.00  0.00    +0.000 A 
ATOM      6  C   UNL     1       6.282  22.678  30.324  0.00  0.00    +0.000 A 
ATOM      7  C   UNL     1       3.898  19.296  31.640  0.00  0.00    +0.000 A 
ATOM      8  C   UNL     1       5.801  20.333  31.345  0.00  0.00    +0.000 A 
ATOM      9  C   UNL     1       5.317  19.218  31.837  0.00  0.00    +0.000 A 
ATOM     10  C   UNL     1       5.691  23.709  29.578  0.00  0.00    +0.000 A 
ATOM     11  C   UNL     1       2.232  22.674  28.955  0.00  0.00    +0.000 C 
ATOM     12  C   UNL     1       2.917  23.815  31.133  0.00  0.00    +0.000 C 
ATOM     13  C   UNL     1       7.643  22.781  30.641  0.00  0.00    +0.000 A 
ATOM     14  C   UNL     1       6.453  24.791  29.133  0.00  0.00    +0.000 A 
ATOM     15  C   UNL     1       6.035  17.921  31.636  0.00  0.00    +0.000 C 
ATOM     16  C   UNL     1       7.803  24.875  29.457  0.00  0.00    +0.000 A 
ATOM     17  C   UNL     1       8.400  23.873  30.213  0.00  0.00    +0.000 A 
ENDROOT
BRANCH  13  18
ATOM     18  O   UNL     1       8.257  21.813  31.385  0.00  0.00    +0.000 OA
ATOM     19  H   UNL     1       8.170  20.955  30.932  0.00  0.00    +0.000 HD
ENDBRANCH  13  18
BRANCH  16  20
ATOM     20  C   UNL     1       8.570  25.994  29.024  0.00  0.00    +0.000 C 
ATOM     21  C   UNL     1       9.398  27.202  28.571  0.00  0.00    +0.000 C 
BRANCH  21  22
ATOM     22  C   UNL     1      10.230  28.408  28.128  0.00  0.00    +0.000 C 
ATOM     23  C   UNL     1      11.059  29.617  27.682  0.00  0.00    +0.000 C 
ATOM     24  C   UNL     1      11.886  30.827  27.235  0.00  0.00    +0.000 C 
ENDBRANCH  21  22
ENDBRANCH  16  20
TORSDOF 3
ENDMDL
MODEL 7
REMARK VINA RESULT:      -5.2     34.572     36.444
REMARK  Name = Dronabinol.pdbqt.pdb
REMARK  3 active torsions:
REMARK  status: ('A' for Active; 'I' for Inactive)
REMARK    1  A    between atoms: C_13  and  O_18
REMARK    2  A    between atoms: C_16  and  C_20
REMARK    3  A    between atoms: C_21  and  C_22
REMARK                            x       y       z     vdW  Elec       q    Type
REMARK                         _______ _______ _______ _____ _____    ______ ____
ROOT
ATOM      1  O   UNL     1      19.646  -1.596  17.201  0.00  0.00    +0.000 OA
ATOM      2  C   UNL     1      20.030  -1.834  14.778  0.00  0.00    +0.000 A 
ATOM      3  C   UNL     1      18.821  -2.693  14.727  0.00  0.00    +0.000 A 
ATOM      4  C   UNL     1      20.245  -1.012  16.020  0.00  0.00    +0.000 C 
ATOM      5  C   UNL     1      20.705  -1.752  13.509  0.00  0.00    +0.000 A 
ATOM      6  C   UNL     1      17.961  -2.819  15.900  0.00  0.00    +0.000 A 
ATOM      7  C   UNL     1      20.267  -2.499  12.235  0.00  0.00    +0.000 A 
ATOM      8  C   UNL     1      18.616  -3.297  13.427  0.00  0.00    +0.000 A 
ATOM      9  C   UNL     1      19.116  -3.356  12.217  0.00  0.00    +0.000 A 
ATOM     10  C   UNL     1      18.441  -2.245  17.087  0.00  0.00    +0.000 A 
ATOM     11  C   UNL     1      21.767  -0.918  16.314  0.00  0.00    +0.000 C 
ATOM     12  C   UNL     1      19.645   0.410  15.812  0.00  0.00    +0.000 C 
ATOM     13  C   UNL     1      16.724  -3.475  15.931  0.00  0.00    +0.000 A 
ATOM     14  C   UNL     1      17.717  -2.359  18.275  0.00  0.00    +0.000 A 
ATOM     15  C   UNL     1      19.154  -4.652  11.470  0.00  0.00    +0.000 C 
ATOM     16  C   UNL     1      16.491  -3.015  18.286  0.00  0.00    +0.000 A 
ATOM     17  C   UNL     1      15.990  -3.571  17.115  0.00  0.00    +0.000 A 
ENDROOT
BRANCH  13  18
ATOM     18  O   UNL     1      16.204  -4.029  14.795  0.00  0.00    +0.000 OA
ATOM     19  H   UNL     1      16.903  -4.093  14.120  0.00  0.00    +0.000 HD
ENDBRANCH  13  18
BRANCH  16  20
ATOM     20  C   UNL     1      15.743  -3.105  19.495  0.00  0.00    +0.000 C 
ATOM     21  C   UNL     1      14.949  -3.199  20.803  0.00  0.00    +0.000 C 
BRANCH  21  22
ATOM     22  C   UNL     1      14.164  -3.287  22.115  0.00  0.00    +0.000 C 
ATOM     23  C   UNL     1      13.379  -3.380  23.427  0.00  0.00    +0.000 C 
ATOM     24  C   UNL     1      12.596  -3.474  24.740  0.00  0.00    +0.000 C 
ENDBRANCH  21  22
ENDBRANCH  16  20
TORSDOF 3
ENDMDL
MODEL 8
REMARK VINA RESULT:      -5.1     35.111     37.246
REMARK  Name = Dronabinol.pdbqt.pdb
REMARK  3 active torsions:
REMARK  status: ('A' for Active; 'I' for Inactive)
REMARK    1  A    between atoms: C_13  and  O_18
REMARK    2  A    between atoms: C_16  and  C_20
REMARK    3  A    between atoms: C_21  and  C_22
REMARK                            x       y       z     vdW  Elec       q    Type
REMARK                         _______ _______ _______ _____ _____    ______ ____
ROOT
ATOM      1  O   UNL     1      18.215  -4.297  14.091  0.00  0.00    +0.000 OA
ATOM      2  C   UNL     1      18.554  -2.569  15.816  0.00  0.00    +0.000 A 
ATOM      3  C   UNL     1      19.367  -1.819  14.827  0.00  0.00    +0.000 A 
ATOM      4  C   UNL     1      17.697  -3.694  15.300  0.00  0.00    +0.000 C 
ATOM      5  C   UNL     1      18.542  -1.943  17.112  0.00  0.00    +0.000 A 
ATOM      6  C   UNL     1      19.419  -2.260  13.435  0.00  0.00    +0.000 A 
ATOM      7  C   UNL     1      19.316  -0.661  17.471  0.00  0.00    +0.000 A 
ATOM      8  C   UNL     1      20.009  -0.654  15.396  0.00  0.00    +0.000 A 
ATOM      9  C   UNL     1      20.129   0.028  16.510  0.00  0.00    +0.000 A 
ATOM     10  C   UNL     1      18.822  -3.498  13.153  0.00  0.00    +0.000 A 
ATOM     11  C   UNL     1      17.650  -4.829  16.358  0.00  0.00    +0.000 C 
ATOM     12  C   UNL     1      16.262  -3.163  15.012  0.00  0.00    +0.000 C 
ATOM     13  C   UNL     1      20.026  -1.558  12.386  0.00  0.00    +0.000 A 
ATOM     14  C   UNL     1      18.867  -4.030  11.863  0.00  0.00    +0.000 A 
ATOM     15  C   UNL     1      21.451   0.601  16.914  0.00  0.00    +0.000 C 
ATOM     16  C   UNL     1      19.474  -3.319  10.834  0.00  0.00    +0.000 A 
ATOM     17  C   UNL     1      20.052  -2.082  11.092  0.00  0.00    +0.000 A 
ENDROOT
BRANCH  13  18
ATOM     18  O   UNL     1      20.600  -0.338  12.607  0.00  0.00    +0.000 OA
ATOM     19  H   UNL     1      20.466   0.227  11.825  0.00  0.00    +0.000 HD
ENDBRANCH  13  18
BRANCH  16  20
ATOM     20  C   UNL     1      19.494  -3.854   9.515  0.00  0.00    +0.000 C 
ATOM     21  C   UNL     1      19.504  -4.422   8.091  0.00  0.00    +0.000 C 
BRANCH  21  22
ATOM     22  C   UNL     1      19.507  -4.982   6.666  0.00  0.00    +0.000 C 
ATOM     23  C   UNL     1      19.506  -5.543   5.240  0.00  0.00    +0.000 C 
ATOM     24  C   UNL     1      19.502  -6.103   3.814  0.00  0.00    +0.000 C 
ENDBRANCH  21  22
ENDBRANCH  16  20
TORSDOF 3
ENDMDL
MODEL 9
REMARK VINA RESULT:      -5.1     12.612     15.665
REMARK  Name = Dronabinol.pdbqt.pdb
REMARK  3 active torsions:
REMARK  status: ('A' for Active; 'I' for Inactive)
REMARK    1  A    between atoms: C_13  and  O_18
REMARK    2  A    between atoms: C_16  and  C_20
REMARK    3  A    between atoms: C_21  and  C_22
REMARK                            x       y       z     vdW  Elec       q    Type
REMARK                         _______ _______ _______ _____ _____    ______ ____
ROOT
ATOM      1  O   UNL     1      -0.700  13.803  24.668  0.00  0.00    +0.000 OA
ATOM      2  C   UNL     1       0.198  11.685  23.782  0.00  0.00    +0.000 A 
ATOM      3  C   UNL     1      -0.158  12.165  22.425  0.00  0.00    +0.000 A 
ATOM      4  C   UNL     1       0.204  12.696  24.897  0.00  0.00    +0.000 C 
ATOM      5  C   UNL     1       0.710  10.340  23.777  0.00  0.00    +0.000 A 
ATOM      6  C   UNL     1      -0.610  13.541  22.229  0.00  0.00    +0.000 A 
ATOM      7  C   UNL     1       0.843   9.460  22.520  0.00  0.00    +0.000 A 
ATOM      8  C   UNL     1       0.041  11.160  21.403  0.00  0.00    +0.000 A 
ATOM      9  C   UNL     1       0.456   9.929  21.221  0.00  0.00    +0.000 A 
ATOM     10  C   UNL     1      -0.853  14.287  23.392  0.00  0.00    +0.000 A 
ATOM     11  C   UNL     1      -0.276  12.016  26.208  0.00  0.00    +0.000 C 
ATOM     12  C   UNL     1       1.644  13.262  25.077  0.00  0.00    +0.000 C 
ATOM     13  C   UNL     1      -0.832  14.151  20.988  0.00  0.00    +0.000 A 
ATOM     14  C   UNL     1      -1.339  15.593  23.310  0.00  0.00    +0.000 A 
ATOM     15  C   UNL     1      -0.256   9.018  20.271  0.00  0.00    +0.000 C 
ATOM     16  C   UNL     1      -1.554  16.182  22.069  0.00  0.00    +0.000 A 
ATOM     17  C   UNL     1      -1.298  15.465  20.906  0.00  0.00    +0.000 A 
ENDROOT
BRANCH  13  18
ATOM     18  O   UNL     1      -0.587  13.473  19.827  0.00  0.00    +0.000 OA
ATOM     19  H   UNL     1      -1.095  13.881  19.103  0.00  0.00    +0.000 HD
ENDBRANCH  13  18
BRANCH  16  20
ATOM     20  C   UNL     1      -2.024  17.524  21.990  0.00  0.00    +0.000 C 
ATOM     21  C   UNL     1      -2.539  18.964  21.895  0.00  0.00    +0.000 C 
BRANCH  21  22
ATOM     22  C   UNL     1      -3.062  20.400  21.794  0.00  0.00    +0.000 C 
ATOM     23  C   UNL     1      -3.589  21.835  21.698  0.00  0.00    +0.000 C 
ATOM     24  C   UNL     1      -4.115  23.271  21.604  0.00  0.00    +0.000 C 
ENDBRANCH  21  22
ENDBRANCH  16  20
TORSDOF 3
ENDMDL
