MODEL 1
REMARK VINA RESULT:      -5.9      0.000      0.000
REMARK  Name = Ellipticine.pdbqt.pdb
REMARK  0 active torsions:
REMARK  status: ('A' for Active; 'I' for Inactive)
REMARK                            x       y       z     vdW  Elec       q    Type
REMARK                         _______ _______ _______ _____ _____    ______ ____
ROOT
ATOM      1  N   UNL     1      18.717  30.086   5.991  0.00  0.00    +0.000 N 
ATOM      2  N   UNL     1      22.951  26.208   3.116  0.00  0.00    +0.000 NA
ATOM      3  C   UNL     1      20.837  29.385   6.168  0.00  0.00    +0.000 A 
ATOM      4  C   UNL     1      19.665  29.268   5.413  0.00  0.00    +0.000 A 
ATOM      5  C   UNL     1      21.972  28.632   5.770  0.00  0.00    +0.000 A 
ATOM      6  C   UNL     1      20.551  30.313   7.230  0.00  0.00    +0.000 A 
ATOM      7  C   UNL     1      19.564  28.441   4.284  0.00  0.00    +0.000 A 
ATOM      8  C   UNL     1      20.691  27.695   3.891  0.00  0.00    +0.000 A 
ATOM      9  C   UNL     1      21.887  27.793   4.634  0.00  0.00    +0.000 A 
ATOM     10  C   UNL     1      19.229  30.727   7.090  0.00  0.00    +0.000 A 
ATOM     11  C   UNL     1      23.256  28.734   6.564  0.00  0.00    +0.000 C 
ATOM     12  C   UNL     1      21.304  30.838   8.300  0.00  0.00    +0.000 A 
ATOM     13  C   UNL     1      18.248  28.392   3.543  0.00  0.00    +0.000 C 
ATOM     14  C   UNL     1      18.616  31.636   7.959  0.00  0.00    +0.000 A 
ATOM     15  C   UNL     1      20.663  26.848   2.773  0.00  0.00    +0.000 A 
ATOM     16  C   UNL     1      22.965  27.027   4.190  0.00  0.00    +0.000 A 
ATOM     17  C   UNL     1      20.711  31.747   9.180  0.00  0.00    +0.000 A 
ATOM     18  C   UNL     1      19.389  32.137   9.008  0.00  0.00    +0.000 A 
ATOM     19  C   UNL     1      21.797  26.136   2.429  0.00  0.00    +0.000 A 
ATOM     20  H   UNL     1      17.771  30.192   5.642  0.00  0.00    +0.000 HD
ENDROOT
TORSDOF 0
ENDMDL
MODEL 2
REMARK VINA RESULT:      -5.7     23.636     26.048
REMARK  Name = Ellipticine.pdbqt.pdb
REMARK  0 active torsions:
REMARK  status: ('A' for Active; 'I' for Inactive)
REMARK                            x       y       z     vdW  Elec       q    Type
REMARK                         _______ _______ _______ _____ _____    ______ ____
ROOT
ATOM      1  N   UNL     1      -2.873  23.821  15.336  0.00  0.00    +0.000 N 
ATOM      2  N   UNL     1       0.281  29.280  16.550  0.00  0.00    +0.000 NA
ATOM      3  C   UNL     1      -2.779  25.482  16.835  0.00  0.00    +0.000 A 
ATOM      4  C   UNL     1      -2.227  25.000  15.644  0.00  0.00    +0.000 A 
ATOM      5  C   UNL     1      -2.277  26.698  17.366  0.00  0.00    +0.000 A 
ATOM      6  C   UNL     1      -3.790  24.538  17.232  0.00  0.00    +0.000 A 
ATOM      7  C   UNL     1      -1.202  25.664  14.954  0.00  0.00    +0.000 A 
ATOM      8  C   UNL     1      -0.705  26.870  15.483  0.00  0.00    +0.000 A 
ATOM      9  C   UNL     1      -1.243  27.381  16.684  0.00  0.00    +0.000 A 
ATOM     10  C   UNL     1      -3.821  23.521  16.280  0.00  0.00    +0.000 A 
ATOM     11  C   UNL     1      -2.851  27.249  18.654  0.00  0.00    +0.000 C 
ATOM     12  C   UNL     1      -4.683  24.459  18.320  0.00  0.00    +0.000 A 
ATOM     13  C   UNL     1      -0.679  25.052  13.675  0.00  0.00    +0.000 C 
ATOM     14  C   UNL     1      -4.694  22.430  16.354  0.00  0.00    +0.000 A 
ATOM     15  C   UNL     1       0.320  27.589  14.848  0.00  0.00    +0.000 A 
ATOM     16  C   UNL     1      -0.705  28.580  17.152  0.00  0.00    +0.000 A 
ATOM     17  C   UNL     1      -5.563  23.378  18.413  0.00  0.00    +0.000 A 
ATOM     18  C   UNL     1      -5.565  22.382  17.444  0.00  0.00    +0.000 A 
ATOM     19  C   UNL     1       0.773  28.768  15.408  0.00  0.00    +0.000 A 
ATOM     20  H   UNL     1      -2.667  23.259  14.518  0.00  0.00    +0.000 HD
ENDROOT
TORSDOF 0
ENDMDL
MODEL 3
REMARK VINA RESULT:      -5.7      1.337      5.718
REMARK  Name = Ellipticine.pdbqt.pdb
REMARK  0 active torsions:
REMARK  status: ('A' for Active; 'I' for Inactive)
REMARK                            x       y       z     vdW  Elec       q    Type
REMARK                         _______ _______ _______ _____ _____    ______ ____
ROOT
ATOM      1  N   UNL     1      20.719  27.053   3.084  0.00  0.00    +0.000 N 
ATOM      2  N   UNL     1      20.728  31.343   7.862  0.00  0.00    +0.000 NA
ATOM      3  C   UNL     1      22.018  27.809   4.745  0.00  0.00    +0.000 A 
ATOM      4  C   UNL     1      20.774  27.957   4.124  0.00  0.00    +0.000 A 
ATOM      5  C   UNL     1      22.319  28.637   5.857  0.00  0.00    +0.000 A 
ATOM      6  C   UNL     1      22.713  26.771   4.029  0.00  0.00    +0.000 A 
ATOM      7  C   UNL     1      19.813  28.887   4.552  0.00  0.00    +0.000 A 
ATOM      8  C   UNL     1      20.114  29.708   5.656  0.00  0.00    +0.000 A 
ATOM      9  C   UNL     1      21.363  29.580   6.302  0.00  0.00    +0.000 A 
ATOM     10  C   UNL     1      21.878  26.326   3.007  0.00  0.00    +0.000 A 
ATOM     11  C   UNL     1      23.657  28.503   6.552  0.00  0.00    +0.000 C 
ATOM     12  C   UNL     1      23.981  26.171   4.163  0.00  0.00    +0.000 A 
ATOM     13  C   UNL     1      18.501  28.963   3.807  0.00  0.00    +0.000 C 
ATOM     14  C   UNL     1      22.240  25.315   2.110  0.00  0.00    +0.000 A 
ATOM     15  C   UNL     1      19.203  30.659   6.139  0.00  0.00    +0.000 A 
ATOM     16  C   UNL     1      21.596  30.424   7.387  0.00  0.00    +0.000 A 
ATOM     17  C   UNL     1      24.362  25.160   3.278  0.00  0.00    +0.000 A 
ATOM     18  C   UNL     1      23.503  24.742   2.270  0.00  0.00    +0.000 A 
ATOM     19  C   UNL     1      19.547  31.441   7.226  0.00  0.00    +0.000 A 
ATOM     20  H   UNL     1      19.922  26.949   2.465  0.00  0.00    +0.000 HD
ENDROOT
TORSDOF 0
ENDMDL
MODEL 4
REMARK VINA RESULT:      -5.6     20.460     22.940
REMARK  Name = Ellipticine.pdbqt.pdb
REMARK  0 active torsions:
REMARK  status: ('A' for Active; 'I' for Inactive)
REMARK                            x       y       z     vdW  Elec       q    Type
REMARK                         _______ _______ _______ _____ _____    ______ ____
ROOT
ATOM      1  N   UNL     1       0.338  28.399  12.094  0.00  0.00    +0.000 N 
ATOM      2  N   UNL     1      -2.370  25.067  16.868  0.00  0.00    +0.000 NA
ATOM      3  C   UNL     1       0.165  28.381  14.327  0.00  0.00    +0.000 A 
ATOM      4  C   UNL     1      -0.221  27.720  13.157  0.00  0.00    +0.000 A 
ATOM      5  C   UNL     1      -0.288  27.870  15.570  0.00  0.00    +0.000 A 
ATOM      6  C   UNL     1       0.983  29.494  13.920  0.00  0.00    +0.000 A 
ATOM      7  C   UNL     1      -1.033  26.575  13.159  0.00  0.00    +0.000 A 
ATOM      8  C   UNL     1      -1.481  26.069  14.394  0.00  0.00    +0.000 A 
ATOM      9  C   UNL     1      -1.107  26.717  15.591  0.00  0.00    +0.000 A 
ATOM     10  C   UNL     1       1.069  29.473  12.530  0.00  0.00    +0.000 A 
ATOM     11  C   UNL     1       0.110  28.561  16.856  0.00  0.00    +0.000 C 
ATOM     12  C   UNL     1       1.659  30.517  14.614  0.00  0.00    +0.000 A 
ATOM     13  C   UNL     1      -1.388  25.941  11.835  0.00  0.00    +0.000 C 
ATOM     14  C   UNL     1       1.792  30.419  11.794  0.00  0.00    +0.000 A 
ATOM     15  C   UNL     1      -2.295  24.929  14.473  0.00  0.00    +0.000 A 
ATOM     16  C   UNL     1      -1.585  26.163  16.779  0.00  0.00    +0.000 A 
ATOM     17  C   UNL     1       2.387  31.471  13.899  0.00  0.00    +0.000 A 
ATOM     18  C   UNL     1       2.450  31.419  12.512  0.00  0.00    +0.000 A 
ATOM     19  C   UNL     1      -2.708  24.472  15.711  0.00  0.00    +0.000 A 
ATOM     20  H   UNL     1       0.217  28.130  11.123  0.00  0.00    +0.000 HD
ENDROOT
TORSDOF 0
ENDMDL
MODEL 5
REMARK VINA RESULT:      -5.6     24.245     26.848
REMARK  Name = Ellipticine.pdbqt.pdb
REMARK  0 active torsions:
REMARK  status: ('A' for Active; 'I' for Inactive)
REMARK                            x       y       z     vdW  Elec       q    Type
REMARK                         _______ _______ _______ _____ _____    ______ ____
ROOT
ATOM      1  N   UNL     1      -1.828  28.537  17.706  0.00  0.00    +0.000 N 
ATOM      2  N   UNL     1      -5.957  23.768  18.905  0.00  0.00    +0.000 NA
ATOM      3  C   UNL     1      -2.347  26.469  17.021  0.00  0.00    +0.000 A 
ATOM      4  C   UNL     1      -2.690  27.482  17.922  0.00  0.00    +0.000 A 
ATOM      5  C   UNL     1      -3.096  25.264  17.046  0.00  0.00    +0.000 A 
ATOM      6  C   UNL     1      -1.236  26.962  16.250  0.00  0.00    +0.000 A 
ATOM      7  C   UNL     1      -3.739  27.360  18.846  0.00  0.00    +0.000 A 
ATOM      8  C   UNL     1      -4.481  26.164  18.868  0.00  0.00    +0.000 A 
ATOM      9  C   UNL     1      -4.157  25.124  17.971  0.00  0.00    +0.000 A 
ATOM     10  C   UNL     1      -0.941  28.246  16.701  0.00  0.00    +0.000 A 
ATOM     11  C   UNL     1      -2.753  24.146  16.085  0.00  0.00    +0.000 C 
ATOM     12  C   UNL     1      -0.455  26.427  15.206  0.00  0.00    +0.000 A 
ATOM     13  C   UNL     1      -4.022  28.519  19.773  0.00  0.00    +0.000 C 
ATOM     14  C   UNL     1       0.090  29.027  16.167  0.00  0.00    +0.000 A 
ATOM     15  C   UNL     1      -5.543  25.971  19.765  0.00  0.00    +0.000 A 
ATOM     16  C   UNL     1      -4.933  23.967  18.047  0.00  0.00    +0.000 A 
ATOM     17  C   UNL     1       0.580  27.189  14.659  0.00  0.00    +0.000 A 
ATOM     18  C   UNL     1       0.845  28.467  15.135  0.00  0.00    +0.000 A 
ATOM     19  C   UNL     1      -6.241  24.777  19.747  0.00  0.00    +0.000 A 
ATOM     20  H   UNL     1      -1.855  29.407  18.226  0.00  0.00    +0.000 HD
ENDROOT
TORSDOF 0
ENDMDL
MODEL 6
REMARK VINA RESULT:      -5.5     20.589     23.172
REMARK  Name = Ellipticine.pdbqt.pdb
REMARK  0 active torsions:
REMARK  status: ('A' for Active; 'I' for Inactive)
REMARK                            x       y       z     vdW  Elec       q    Type
REMARK                         _______ _______ _______ _____ _____    ______ ____
ROOT
ATOM      1  N   UNL     1       0.688  29.698  14.938  0.00  0.00    +0.000 N 
ATOM      2  N   UNL     1      -2.622  24.208  15.306  0.00  0.00    +0.000 NA
ATOM      3  C   UNL     1      -0.112  28.055  13.642  0.00  0.00    +0.000 A 
ATOM      4  C   UNL     1      -0.018  28.513  14.960  0.00  0.00    +0.000 A 
ATOM      5  C   UNL     1      -0.801  26.840  13.399  0.00  0.00    +0.000 A 
ATOM      6  C   UNL     1       0.572  29.020  12.822  0.00  0.00    +0.000 A 
ATOM      7  C   UNL     1      -0.575  27.824  16.049  0.00  0.00    +0.000 A 
ATOM      8  C   UNL     1      -1.258  26.618  15.805  0.00  0.00    +0.000 A 
ATOM      9  C   UNL     1      -1.369  26.132  14.485  0.00  0.00    +0.000 A 
ATOM     10  C   UNL     1       1.055  30.024  13.658  0.00  0.00    +0.000 A 
ATOM     11  C   UNL     1      -0.922  26.315  11.984  0.00  0.00    +0.000 C 
ATOM     12  C   UNL     1       0.822  29.128  11.439  0.00  0.00    +0.000 A 
ATOM     13  C   UNL     1      -0.413  28.411  17.432  0.00  0.00    +0.000 C 
ATOM     14  C   UNL     1       1.774  31.129  13.190  0.00  0.00    +0.000 A 
ATOM     15  C   UNL     1      -1.839  25.876  16.844  0.00  0.00    +0.000 A 
ATOM     16  C   UNL     1      -2.058  24.932  14.314  0.00  0.00    +0.000 A 
ATOM     17  C   UNL     1       1.539  30.223  10.950  0.00  0.00    +0.000 A 
ATOM     18  C   UNL     1       2.005  31.205  11.815  0.00  0.00    +0.000 A 
ATOM     19  C   UNL     1      -2.500  24.697  16.552  0.00  0.00    +0.000 A 
ATOM     20  H   UNL     1       0.902  30.246  15.764  0.00  0.00    +0.000 HD
ENDROOT
TORSDOF 0
ENDMDL
MODEL 7
REMARK VINA RESULT:      -5.5     31.636     33.167
REMARK  Name = Ellipticine.pdbqt.pdb
REMARK  0 active torsions:
REMARK  status: ('A' for Active; 'I' for Inactive)
REMARK                            x       y       z     vdW  Elec       q    Type
REMARK                         _______ _______ _______ _____ _____    ______ ____
ROOT
ATOM      1  N   UNL     1      17.293  -2.676  18.390  0.00  0.00    +0.000 N 
ATOM      2  N   UNL     1      21.988   1.070  16.119  0.00  0.00    +0.000 NA
ATOM      3  C   UNL     1      18.223  -2.027  16.459  0.00  0.00    +0.000 A 
ATOM      4  C   UNL     1      18.286  -1.887  17.849  0.00  0.00    +0.000 A 
ATOM      5  C   UNL     1      19.154  -1.306  15.667  0.00  0.00    +0.000 A 
ATOM      6  C   UNL     1      17.144  -2.938  16.186  0.00  0.00    +0.000 A 
ATOM      7  C   UNL     1      19.227  -1.068  18.492  0.00  0.00    +0.000 A 
ATOM      8  C   UNL     1      20.149  -0.353  17.704  0.00  0.00    +0.000 A 
ATOM      9  C   UNL     1      20.109  -0.475  16.299  0.00  0.00    +0.000 A 
ATOM     10  C   UNL     1      16.590  -3.320  17.405  0.00  0.00    +0.000 A 
ATOM     11  C   UNL     1      19.114  -1.433  14.159  0.00  0.00    +0.000 C 
ATOM     12  C   UNL     1      16.588  -3.472  15.005  0.00  0.00    +0.000 A 
ATOM     13  C   UNL     1      19.205  -0.992  20.001  0.00  0.00    +0.000 C 
ATOM     14  C   UNL     1      15.512  -4.206  17.512  0.00  0.00    +0.000 A 
ATOM     15  C   UNL     1      21.117   0.484  18.278  0.00  0.00    +0.000 A 
ATOM     16  C   UNL     1      21.051   0.260  15.579  0.00  0.00    +0.000 A 
ATOM     17  C   UNL     1      15.512  -4.358  15.089  0.00  0.00    +0.000 A 
ATOM     18  C   UNL     1      14.986  -4.717  16.324  0.00  0.00    +0.000 A 
ATOM     19  C   UNL     1      22.000   1.165  17.460  0.00  0.00    +0.000 A 
ATOM     20  H   UNL     1      17.115  -2.761  19.385  0.00  0.00    +0.000 HD
ENDROOT
TORSDOF 0
ENDMDL
MODEL 8
REMARK VINA RESULT:      -5.5      1.292      2.889
REMARK  Name = Ellipticine.pdbqt.pdb
REMARK  0 active torsions:
REMARK  status: ('A' for Active; 'I' for Inactive)
REMARK                            x       y       z     vdW  Elec       q    Type
REMARK                         _______ _______ _______ _____ _____    ______ ____
ROOT
ATOM      1  N   UNL     1      22.148  29.303   6.835  0.00  0.00    +0.000 N 
ATOM      2  N   UNL     1      20.651  26.087   1.482  0.00  0.00    +0.000 NA
ATOM      3  C   UNL     1      20.465  29.022   5.384  0.00  0.00    +0.000 A 
ATOM      4  C   UNL     1      21.774  28.637   5.686  0.00  0.00    +0.000 A 
ATOM      5  C   UNL     1      19.848  28.467   4.233  0.00  0.00    +0.000 A 
ATOM      6  C   UNL     1      20.064  29.953   6.406  0.00  0.00    +0.000 A 
ATOM      7  C   UNL     1      22.503  27.728   4.903  0.00  0.00    +0.000 A 
ATOM      8  C   UNL     1      21.889  27.179   3.762  0.00  0.00    +0.000 A 
ATOM      9  C   UNL     1      20.567  27.550   3.432  0.00  0.00    +0.000 A 
ATOM     10  C   UNL     1      21.131  30.104   7.288  0.00  0.00    +0.000 A 
ATOM     11  C   UNL     1      18.431  28.863   3.876  0.00  0.00    +0.000 C 
ATOM     12  C   UNL     1      18.885  30.683   6.657  0.00  0.00    +0.000 A 
ATOM     13  C   UNL     1      23.912  27.382   5.323  0.00  0.00    +0.000 C 
ATOM     14  C   UNL     1      21.087  30.942   8.407  0.00  0.00    +0.000 A 
ATOM     15  C   UNL     1      22.556  26.264   2.932  0.00  0.00    +0.000 A 
ATOM     16  C   UNL     1      20.020  26.968   2.289  0.00  0.00    +0.000 A 
ATOM     17  C   UNL     1      18.819  31.526   7.769  0.00  0.00    +0.000 A 
ATOM     18  C   UNL     1      19.904  31.650   8.628  0.00  0.00    +0.000 A 
ATOM     19  C   UNL     1      21.908  25.754   1.822  0.00  0.00    +0.000 A 
ATOM     20  H   UNL     1      23.055  29.205   7.277  0.00  0.00    +0.000 HD
ENDROOT
TORSDOF 0
ENDMDL
MODEL 9
REMARK VINA RESULT:      -5.5      2.373      5.207
REMARK  Name = Ellipticine.pdbqt.pdb
REMARK  0 active torsions:
REMARK  status: ('A' for Active; 'I' for Inactive)
REMARK                            x       y       z     vdW  Elec       q    Type
REMARK                         _______ _______ _______ _____ _____    ______ ____
ROOT
ATOM      1  N   UNL     1      21.440  26.315   2.724  0.00  0.00    +0.000 N 
ATOM      2  N   UNL     1      25.401  28.270   7.385  0.00  0.00    +0.000 NA
ATOM      3  C   UNL     1      21.553  27.781   4.414  0.00  0.00    +0.000 A 
ATOM      4  C   UNL     1      22.251  26.773   3.742  0.00  0.00    +0.000 A 
ATOM      5  C   UNL     1      22.183  28.418   5.514  0.00  0.00    +0.000 A 
ATOM      6  C   UNL     1      20.281  27.911   3.753  0.00  0.00    +0.000 A 
ATOM      7  C   UNL     1      23.543  26.364   4.108  0.00  0.00    +0.000 A 
ATOM      8  C   UNL     1      24.166  26.997   5.200  0.00  0.00    +0.000 A 
ATOM      9  C   UNL     1      23.485  28.019   5.897  0.00  0.00    +0.000 A 
ATOM     10  C   UNL     1      20.245  26.987   2.711  0.00  0.00    +0.000 A 
ATOM     11  C   UNL     1      21.457  29.513   6.264  0.00  0.00    +0.000 C 
ATOM     12  C   UNL     1      19.155  28.735   3.951  0.00  0.00    +0.000 A 
ATOM     13  C   UNL     1      24.204  25.264   3.311  0.00  0.00    +0.000 C 
ATOM     14  C   UNL     1      19.148  26.840   1.856  0.00  0.00    +0.000 A 
ATOM     15  C   UNL     1      25.456  26.641   5.622  0.00  0.00    +0.000 A 
ATOM     16  C   UNL     1      24.160  28.603   6.968  0.00  0.00    +0.000 A 
ATOM     17  C   UNL     1      18.048  28.605   3.109  0.00  0.00    +0.000 A 
ATOM     18  C   UNL     1      18.049  27.672   2.079  0.00  0.00    +0.000 A 
ATOM     19  C   UNL     1      26.023  27.294   6.701  0.00  0.00    +0.000 A 
ATOM     20  H   UNL     1      21.702  25.579   2.078  0.00  0.00    +0.000 HD
ENDROOT
TORSDOF 0
ENDMDL
