MODEL 1
REMARK VINA RESULT:      -7.5      0.000      0.000
REMARK  Name = Enterolactone.pdbqt.pdb
REMARK  2 active torsions:
REMARK  status: ('A' for Active; 'I' for Inactive)
REMARK    1  A    between atoms: C_10  and  O_14
REMARK    2  A    between atoms: C_19  and  O_23
REMARK                            x       y       z     vdW  Elec       q    Type
REMARK                         _______ _______ _______ _____ _____    ______ ____
ROOT
ATOM      1  O   UNL     1       4.674  14.375   4.622  0.00  0.00    +0.000 OA
ATOM      2  O   UNL     1       5.675  12.517   5.613  0.00  0.00    +0.000 OA
ATOM      3  C   UNL     1       2.883  14.704   6.139  0.00  0.00    +0.000 C 
ATOM      4  C   UNL     1       3.677  13.575   6.563  0.00  0.00    +0.000 C 
ATOM      5  C   UNL     1       3.608  15.061   5.001  0.00  0.00    +0.000 C 
ATOM      6  C   UNL     1       4.811  13.374   5.576  0.00  0.00    +0.000 C 
ATOM      7  C   UNL     1       2.028  15.471   6.952  0.00  0.00    +0.000 C 
ATOM      8  C   UNL     1       1.159  16.232   7.788  0.00  0.00    +0.000 C 
ATOM      9  C   UNL     1       1.458  16.384   9.140  0.00  0.00    +0.000 C 
ATOM     10  C   UNL     1       0.597  17.120   9.948  0.00  0.00    +0.000 C 
ATOM     11  C   UNL     1      -0.553  17.702   9.423  0.00  0.00    +0.000 C 
ATOM     12  C   UNL     1      -0.846  17.546   8.071  0.00  0.00    +0.000 C 
ATOM     13  C   UNL     1       0.010  16.810   7.253  0.00  0.00    +0.000 C 
ATOM     14  C   UNL     1       3.486  12.829   7.748  0.00  0.00    +0.000 C 
ATOM     15  C   UNL     1       3.289  12.085   8.947  0.00  0.00    +0.000 C 
ATOM     16  C   UNL     1       1.998  11.801   9.382  0.00  0.00    +0.000 C 
ATOM     17  C   UNL     1       1.820  11.083  10.561  0.00  0.00    +0.000 C 
ATOM     18  C   UNL     1       2.911  10.649  11.305  0.00  0.00    +0.000 C 
ATOM     19  C   UNL     1       4.201  10.936  10.864  0.00  0.00    +0.000 C 
ATOM     20  C   UNL     1       4.392  11.655   9.685  0.00  0.00    +0.000 C 
ENDROOT
BRANCH  10  21
ATOM     21  O   UNL     1       0.861  17.289  11.276  0.00  0.00    +0.000 OA
ATOM     22  H   UNL     1       0.018  17.423  11.745  0.00  0.00    +0.000 HD
ENDBRANCH  10  21
BRANCH  17  23
ATOM     23  O   UNL     1       0.568  10.788  11.016  0.00  0.00    +0.000 OA
ATOM     24  H   UNL     1       0.112  10.255  10.341  0.00  0.00    +0.000 HD
ENDBRANCH  17  23
TORSDOF 2
ENDMDL
MODEL 2
REMARK VINA RESULT:      -5.9     26.463     28.276
REMARK  Name = Enterolactone.pdbqt.pdb
REMARK  2 active torsions:
REMARK  status: ('A' for Active; 'I' for Inactive)
REMARK    1  A    between atoms: C_10  and  O_14
REMARK    2  A    between atoms: C_19  and  O_23
REMARK                            x       y       z     vdW  Elec       q    Type
REMARK                         _______ _______ _______ _____ _____    ______ ____
ROOT
ATOM      1  O   UNL     1      20.325  18.603  30.629  0.00  0.00    +0.000 OA
ATOM      2  O   UNL     1      20.487  16.278  30.683  0.00  0.00    +0.000 OA
ATOM      3  C   UNL     1      21.779  19.049  28.811  0.00  0.00    +0.000 C 
ATOM      4  C   UNL     1      21.707  17.625  29.037  0.00  0.00    +0.000 C 
ATOM      5  C   UNL     1      20.906  19.470  29.816  0.00  0.00    +0.000 C 
ATOM      6  C   UNL     1      20.782  17.359  30.209  0.00  0.00    +0.000 C 
ATOM      7  C   UNL     1      22.165  19.683  27.615  0.00  0.00    +0.000 C 
ATOM      8  C   UNL     1      22.566  20.308  26.399  0.00  0.00    +0.000 C 
ATOM      9  C   UNL     1      22.314  19.680  25.182  0.00  0.00    +0.000 C 
ATOM     10  C   UNL     1      22.720  20.296  24.002  0.00  0.00    +0.000 C 
ATOM     11  C   UNL     1      23.372  21.524  24.024  0.00  0.00    +0.000 C 
ATOM     12  C   UNL     1      23.621  22.147  25.244  0.00  0.00    +0.000 C 
ATOM     13  C   UNL     1      23.218  21.540  26.432  0.00  0.00    +0.000 C 
ATOM     14  C   UNL     1      22.327  16.632  28.246  0.00  0.00    +0.000 C 
ATOM     15  C   UNL     1      22.951  15.635  27.441  0.00  0.00    +0.000 C 
ATOM     16  C   UNL     1      24.227  15.855  26.932  0.00  0.00    +0.000 C 
ATOM     17  C   UNL     1      24.821  14.878  26.138  0.00  0.00    +0.000 C 
ATOM     18  C   UNL     1      24.156  13.692  25.848  0.00  0.00    +0.000 C 
ATOM     19  C   UNL     1      22.879  13.478  26.360  0.00  0.00    +0.000 C 
ATOM     20  C   UNL     1      22.274  14.449  27.157  0.00  0.00    +0.000 C 
ENDROOT
BRANCH  10  21
ATOM     21  O   UNL     1      22.488  19.707  22.793  0.00  0.00    +0.000 OA
ATOM     22  H   UNL     1      23.334  19.633  22.316  0.00  0.00    +0.000 HD
ENDBRANCH  10  21
BRANCH  17  23
ATOM     23  O   UNL     1      26.070  15.063  25.622  0.00  0.00    +0.000 OA
ATOM     24  H   UNL     1      26.310  14.275  25.102  0.00  0.00    +0.000 HD
ENDBRANCH  17  23
TORSDOF 2
ENDMDL
MODEL 3
REMARK VINA RESULT:      -5.9     22.948     25.089
REMARK  Name = Enterolactone.pdbqt.pdb
REMARK  2 active torsions:
REMARK  status: ('A' for Active; 'I' for Inactive)
REMARK    1  A    between atoms: C_10  and  O_14
REMARK    2  A    between atoms: C_19  and  O_23
REMARK                            x       y       z     vdW  Elec       q    Type
REMARK                         _______ _______ _______ _____ _____    ______ ____
ROOT
ATOM      1  O   UNL     1      12.834  23.630  29.991  0.00  0.00    +0.000 OA
ATOM      2  O   UNL     1      10.663  24.407  30.334  0.00  0.00    +0.000 OA
ATOM      3  C   UNL     1      12.495  21.326  30.437  0.00  0.00    +0.000 C 
ATOM      4  C   UNL     1      11.247  22.037  30.582  0.00  0.00    +0.000 C 
ATOM      5  C   UNL     1      13.313  22.399  30.079  0.00  0.00    +0.000 C 
ATOM      6  C   UNL     1      11.485  23.510  30.303  0.00  0.00    +0.000 C 
ATOM      7  C   UNL     1      12.643  19.947  30.197  0.00  0.00    +0.000 C 
ATOM      8  C   UNL     1      12.774  18.548  29.962  0.00  0.00    +0.000 C 
ATOM      9  C   UNL     1      11.793  17.872  29.239  0.00  0.00    +0.000 C 
ATOM     10  C   UNL     1      11.928  16.504  29.026  0.00  0.00    +0.000 C 
ATOM     11  C   UNL     1      13.024  15.807  29.523  0.00  0.00    +0.000 C 
ATOM     12  C   UNL     1      14.001  16.488  30.245  0.00  0.00    +0.000 C 
ATOM     13  C   UNL     1      13.876  17.859  30.465  0.00  0.00    +0.000 C 
ATOM     14  C   UNL     1       9.990  21.453  30.854  0.00  0.00    +0.000 C 
ATOM     15  C   UNL     1       8.725  20.856  31.124  0.00  0.00    +0.000 C 
ATOM     16  C   UNL     1       8.638  19.791  32.017  0.00  0.00    +0.000 C 
ATOM     17  C   UNL     1       7.398  19.209  32.263  0.00  0.00    +0.000 C 
ATOM     18  C   UNL     1       6.251  19.676  31.631  0.00  0.00    +0.000 C 
ATOM     19  C   UNL     1       6.344  20.742  30.739  0.00  0.00    +0.000 C 
ATOM     20  C   UNL     1       7.581  21.333  30.484  0.00  0.00    +0.000 C 
ENDROOT
BRANCH  10  21
ATOM     21  O   UNL     1      10.985  15.812  28.321  0.00  0.00    +0.000 OA
ATOM     22  H   UNL     1      11.430  15.110  27.816  0.00  0.00    +0.000 HD
ENDBRANCH  10  21
BRANCH  17  23
ATOM     23  O   UNL     1       7.278  18.164  33.131  0.00  0.00    +0.000 OA
ATOM     24  H   UNL     1       7.771  17.405  32.771  0.00  0.00    +0.000 HD
ENDBRANCH  17  23
TORSDOF 2
ENDMDL
MODEL 4
REMARK VINA RESULT:      -5.8     22.789     24.671
REMARK  Name = Enterolactone.pdbqt.pdb
REMARK  2 active torsions:
REMARK  status: ('A' for Active; 'I' for Inactive)
REMARK    1  A    between atoms: C_10  and  O_14
REMARK    2  A    between atoms: C_19  and  O_23
REMARK                            x       y       z     vdW  Elec       q    Type
REMARK                         _______ _______ _______ _____ _____    ______ ____
ROOT
ATOM      1  O   UNL     1      13.136  23.429  30.851  0.00  0.00    +0.000 OA
ATOM      2  O   UNL     1      14.858  21.884  30.558  0.00  0.00    +0.000 OA
ATOM      3  C   UNL     1      11.276  22.009  30.473  0.00  0.00    +0.000 C 
ATOM      4  C   UNL     1      12.497  21.250  30.351  0.00  0.00    +0.000 C 
ATOM      5  C   UNL     1      11.826  23.254  30.779  0.00  0.00    +0.000 C 
ATOM      6  C   UNL     1      13.677  22.176  30.585  0.00  0.00    +0.000 C 
ATOM      7  C   UNL     1       9.997  21.487  30.743  0.00  0.00    +0.000 C 
ATOM      8  C   UNL     1       8.707  20.941  31.008  0.00  0.00    +0.000 C 
ATOM      9  C   UNL     1       8.590  19.786  31.778  0.00  0.00    +0.000 C 
ATOM     10  C   UNL     1       7.326  19.257  32.021  0.00  0.00    +0.000 C 
ATOM     11  C   UNL     1       6.186  19.864  31.506  0.00  0.00    +0.000 C 
ATOM     12  C   UNL     1       6.310  21.018  30.737  0.00  0.00    +0.000 C 
ATOM     13  C   UNL     1       7.571  21.557  30.487  0.00  0.00    +0.000 C 
ATOM     14  C   UNL     1      12.587  19.857  30.133  0.00  0.00    +0.000 C 
ATOM     15  C   UNL     1      12.668  18.451  29.918  0.00  0.00    +0.000 C 
ATOM     16  C   UNL     1      11.770  17.829  29.056  0.00  0.00    +0.000 C 
ATOM     17  C   UNL     1      11.853  16.453  28.864  0.00  0.00    +0.000 C 
ATOM     18  C   UNL     1      12.817  15.696  29.520  0.00  0.00    +0.000 C 
ATOM     19  C   UNL     1      13.713  16.325  30.382  0.00  0.00    +0.000 C 
ATOM     20  C   UNL     1      13.639  17.703  30.583  0.00  0.00    +0.000 C 
ENDROOT
BRANCH  10  21
ATOM     21  O   UNL     1       7.176  18.127  32.772  0.00  0.00    +0.000 OA
ATOM     22  H   UNL     1       6.667  17.478  32.257  0.00  0.00    +0.000 HD
ENDBRANCH  10  21
BRANCH  17  23
ATOM     23  O   UNL     1      10.988  15.812  28.026  0.00  0.00    +0.000 OA
ATOM     24  H   UNL     1      10.227  15.500  28.547  0.00  0.00    +0.000 HD
ENDBRANCH  17  23
TORSDOF 2
ENDMDL
MODEL 5
REMARK VINA RESULT:      -5.7     22.781     24.630
REMARK  Name = Enterolactone.pdbqt.pdb
REMARK  2 active torsions:
REMARK  status: ('A' for Active; 'I' for Inactive)
REMARK    1  A    between atoms: C_10  and  O_14
REMARK    2  A    between atoms: C_19  and  O_23
REMARK                            x       y       z     vdW  Elec       q    Type
REMARK                         _______ _______ _______ _____ _____    ______ ____
ROOT
ATOM      1  O   UNL     1       8.074  20.125  31.622  0.00  0.00    +0.000 OA
ATOM      2  O   UNL     1      10.237  20.995  31.594  0.00  0.00    +0.000 OA
ATOM      3  C   UNL     1       8.533  17.923  30.875  0.00  0.00    +0.000 C 
ATOM      4  C   UNL     1       9.762  18.677  30.949  0.00  0.00    +0.000 C 
ATOM      5  C   UNL     1       7.650  18.911  31.312  0.00  0.00    +0.000 C 
ATOM      6  C   UNL     1       9.448  20.084  31.419  0.00  0.00    +0.000 C 
ATOM      7  C   UNL     1       8.415  16.521  30.895  0.00  0.00    +0.000 C 
ATOM      8  C   UNL     1       8.315  15.099  30.909  0.00  0.00    +0.000 C 
ATOM      9  C   UNL     1       9.254  14.346  31.610  0.00  0.00    +0.000 C 
ATOM     10  C   UNL     1       9.151  12.958  31.606  0.00  0.00    +0.000 C 
ATOM     11  C   UNL     1       8.128  12.319  30.915  0.00  0.00    +0.000 C 
ATOM     12  C   UNL     1       7.192  13.078  30.216  0.00  0.00    +0.000 C 
ATOM     13  C   UNL     1       7.286  14.468  30.213  0.00  0.00    +0.000 C 
ATOM     14  C   UNL     1      11.059  18.169  30.707  0.00  0.00    +0.000 C 
ATOM     15  C   UNL     1      12.363  17.647  30.467  0.00  0.00    +0.000 C 
ATOM     16  C   UNL     1      12.564  16.731  29.439  0.00  0.00    +0.000 C 
ATOM     17  C   UNL     1      13.841  16.221  29.222  0.00  0.00    +0.000 C 
ATOM     18  C   UNL     1      14.912  16.614  30.017  0.00  0.00    +0.000 C 
ATOM     19  C   UNL     1      14.704  17.532  31.044  0.00  0.00    +0.000 C 
ATOM     20  C   UNL     1      13.429  18.050  31.271  0.00  0.00    +0.000 C 
ENDROOT
BRANCH  10  21
ATOM     21  O   UNL     1      10.054  12.191  32.283  0.00  0.00    +0.000 OA
ATOM     22  H   UNL     1      10.948  12.413  31.968  0.00  0.00    +0.000 HD
ENDBRANCH  10  21
BRANCH  17  23
ATOM     23  O   UNL     1      14.072  15.320  28.224  0.00  0.00    +0.000 OA
ATOM     24  H   UNL     1      13.462  14.570  28.338  0.00  0.00    +0.000 HD
ENDBRANCH  17  23
TORSDOF 2
ENDMDL
MODEL 6
REMARK VINA RESULT:      -5.7     24.030     26.218
REMARK  Name = Enterolactone.pdbqt.pdb
REMARK  2 active torsions:
REMARK  status: ('A' for Active; 'I' for Inactive)
REMARK    1  A    between atoms: C_10  and  O_14
REMARK    2  A    between atoms: C_19  and  O_23
REMARK                            x       y       z     vdW  Elec       q    Type
REMARK                         _______ _______ _______ _____ _____    ______ ____
ROOT
ATOM      1  O   UNL     1      12.162  27.942  32.995  0.00  0.00    +0.000 OA
ATOM      2  O   UNL     1      12.940  26.057  34.126  0.00  0.00    +0.000 OA
ATOM      3  C   UNL     1      11.639  26.950  30.907  0.00  0.00    +0.000 C 
ATOM      4  C   UNL     1      12.147  25.943  31.808  0.00  0.00    +0.000 C 
ATOM      5  C   UNL     1      11.701  28.053  31.760  0.00  0.00    +0.000 C 
ATOM      6  C   UNL     1      12.486  26.597  33.134  0.00  0.00    +0.000 C 
ATOM      7  C   UNL     1      10.841  26.721  29.770  0.00  0.00    +0.000 C 
ATOM      8  C   UNL     1      10.041  26.470  28.617  0.00  0.00    +0.000 C 
ATOM      9  C   UNL     1       9.171  25.383  28.602  0.00  0.00    +0.000 C 
ATOM     10  C   UNL     1       8.403  25.142  27.467  0.00  0.00    +0.000 C 
ATOM     11  C   UNL     1       8.494  25.971  26.354  0.00  0.00    +0.000 C 
ATOM     12  C   UNL     1       9.366  27.057  26.375  0.00  0.00    +0.000 C 
ATOM     13  C   UNL     1      10.140  27.307  27.507  0.00  0.00    +0.000 C 
ATOM     14  C   UNL     1      12.238  24.560  31.535  0.00  0.00    +0.000 C 
ATOM     15  C   UNL     1      12.321  23.165  31.255  0.00  0.00    +0.000 C 
ATOM     16  C   UNL     1      12.698  22.736  29.985  0.00  0.00    +0.000 C 
ATOM     17  C   UNL     1      12.764  21.371  29.721  0.00  0.00    +0.000 C 
ATOM     18  C   UNL     1      12.459  20.436  30.705  0.00  0.00    +0.000 C 
ATOM     19  C   UNL     1      12.083  20.873  31.973  0.00  0.00    +0.000 C 
ATOM     20  C   UNL     1      12.013  22.238  32.249  0.00  0.00    +0.000 C 
ENDROOT
BRANCH  10  21
ATOM     21  O   UNL     1       7.541  24.086  27.419  0.00  0.00    +0.000 OA
ATOM     22  H   UNL     1       7.675  23.540  28.214  0.00  0.00    +0.000 HD
ENDBRANCH  10  21
BRANCH  17  23
ATOM     23  O   UNL     1      13.129  20.916  28.488  0.00  0.00    +0.000 OA
ATOM     24  H   UNL     1      12.346  20.932  27.908  0.00  0.00    +0.000 HD
ENDBRANCH  17  23
TORSDOF 2
ENDMDL
MODEL 7
REMARK VINA RESULT:      -5.3     26.584     28.370
REMARK  Name = Enterolactone.pdbqt.pdb
REMARK  2 active torsions:
REMARK  status: ('A' for Active; 'I' for Inactive)
REMARK    1  A    between atoms: C_10  and  O_14
REMARK    2  A    between atoms: C_19  and  O_23
REMARK                            x       y       z     vdW  Elec       q    Type
REMARK                         _______ _______ _______ _____ _____    ______ ____
ROOT
ATOM      1  O   UNL     1      24.090  13.354  26.608  0.00  0.00    +0.000 OA
ATOM      2  O   UNL     1      23.537  12.975  28.841  0.00  0.00    +0.000 OA
ATOM      3  C   UNL     1      23.128  15.502  26.331  0.00  0.00    +0.000 C 
ATOM      4  C   UNL     1      22.915  15.046  27.684  0.00  0.00    +0.000 C 
ATOM      5  C   UNL     1      23.838  14.404  25.843  0.00  0.00    +0.000 C 
ATOM      6  C   UNL     1      23.528  13.667  27.840  0.00  0.00    +0.000 C 
ATOM      7  C   UNL     1      23.103  16.839  25.890  0.00  0.00    +0.000 C 
ATOM      8  C   UNL     1      23.064  18.197  25.461  0.00  0.00    +0.000 C 
ATOM      9  C   UNL     1      23.449  19.211  26.335  0.00  0.00    +0.000 C 
ATOM     10  C   UNL     1      23.397  20.534  25.906  0.00  0.00    +0.000 C 
ATOM     11  C   UNL     1      22.968  20.853  24.622  0.00  0.00    +0.000 C 
ATOM     12  C   UNL     1      22.585  19.835  23.753  0.00  0.00    +0.000 C 
ATOM     13  C   UNL     1      22.633  18.506  24.172  0.00  0.00    +0.000 C 
ATOM     14  C   UNL     1      22.311  15.791  28.721  0.00  0.00    +0.000 C 
ATOM     15  C   UNL     1      21.706  16.551  29.764  0.00  0.00    +0.000 C 
ATOM     16  C   UNL     1      20.613  17.366  29.482  0.00  0.00    +0.000 C 
ATOM     17  C   UNL     1      20.038  18.111  30.507  0.00  0.00    +0.000 C 
ATOM     18  C   UNL     1      20.540  18.053  31.802  0.00  0.00    +0.000 C 
ATOM     19  C   UNL     1      21.634  17.235  32.078  0.00  0.00    +0.000 C 
ATOM     20  C   UNL     1      22.219  16.484  31.059  0.00  0.00    +0.000 C 
ENDROOT
BRANCH  10  21
ATOM     21  O   UNL     1      23.767  21.551  26.737  0.00  0.00    +0.000 OA
ATOM     22  H   UNL     1      23.253  21.481  27.561  0.00  0.00    +0.000 HD
ENDBRANCH  10  21
BRANCH  17  23
ATOM     23  O   UNL     1      18.967  18.920  30.265  0.00  0.00    +0.000 OA
ATOM     24  H   UNL     1      18.171  18.364  30.183  0.00  0.00    +0.000 HD
ENDBRANCH  17  23
TORSDOF 2
ENDMDL
MODEL 8
REMARK VINA RESULT:      -5.3     11.244     14.093
REMARK  Name = Enterolactone.pdbqt.pdb
REMARK  2 active torsions:
REMARK  status: ('A' for Active; 'I' for Inactive)
REMARK    1  A    between atoms: C_10  and  O_14
REMARK    2  A    between atoms: C_19  and  O_23
REMARK                            x       y       z     vdW  Elec       q    Type
REMARK                         _______ _______ _______ _____ _____    ______ ____
ROOT
ATOM      1  O   UNL     1      11.324  15.142   1.812  0.00  0.00    +0.000 OA
ATOM      2  O   UNL     1      10.234  13.090   1.998  0.00  0.00    +0.000 OA
ATOM      3  C   UNL     1      13.394  14.571   2.817  0.00  0.00    +0.000 C 
ATOM      4  C   UNL     1      12.525  13.419   2.809  0.00  0.00    +0.000 C 
ATOM      5  C   UNL     1      12.546  15.485   2.190  0.00  0.00    +0.000 C 
ATOM      6  C   UNL     1      11.203  13.805   2.171  0.00  0.00    +0.000 C 
ATOM      7  C   UNL     1      14.797  14.554   2.921  0.00  0.00    +0.000 C 
ATOM      8  C   UNL     1      16.218  14.517   3.035  0.00  0.00    +0.000 C 
ATOM      9  C   UNL     1      16.926  13.434   2.520  0.00  0.00    +0.000 C 
ATOM     10  C   UNL     1      18.311  13.406   2.647  0.00  0.00    +0.000 C 
ATOM     11  C   UNL     1      18.993  14.441   3.278  0.00  0.00    +0.000 C 
ATOM     12  C   UNL     1      18.279  15.521   3.791  0.00  0.00    +0.000 C 
ATOM     13  C   UNL     1      16.891  15.560   3.669  0.00  0.00    +0.000 C 
ATOM     14  C   UNL     1      12.872  12.120   3.242  0.00  0.00    +0.000 C 
ATOM     15  C   UNL     1      13.231  10.811   3.676  0.00  0.00    +0.000 C 
ATOM     16  C   UNL     1      14.030  10.650   4.804  0.00  0.00    +0.000 C 
ATOM     17  C   UNL     1      14.382   9.367   5.211  0.00  0.00    +0.000 C 
ATOM     18  C   UNL     1      13.949   8.249   4.507  0.00  0.00    +0.000 C 
ATOM     19  C   UNL     1      13.149   8.416   3.379  0.00  0.00    +0.000 C 
ATOM     20  C   UNL     1      12.790   9.697   2.962  0.00  0.00    +0.000 C 
ENDROOT
BRANCH  10  21
ATOM     21  O   UNL     1      19.035  12.359   2.154  0.00  0.00    +0.000 OA
ATOM     22  H   UNL     1      19.213  12.522   1.211  0.00  0.00    +0.000 HD
ENDBRANCH  10  21
BRANCH  17  23
ATOM     23  O   UNL     1      15.165   9.174   6.312  0.00  0.00    +0.000 OA
ATOM     24  H   UNL     1      15.304  10.035   6.747  0.00  0.00    +0.000 HD
ENDBRANCH  17  23
TORSDOF 2
ENDMDL
MODEL 9
REMARK VINA RESULT:      -5.2     28.532     30.130
REMARK  Name = Enterolactone.pdbqt.pdb
REMARK  2 active torsions:
REMARK  status: ('A' for Active; 'I' for Inactive)
REMARK    1  A    between atoms: C_10  and  O_14
REMARK    2  A    between atoms: C_19  and  O_23
REMARK                            x       y       z     vdW  Elec       q    Type
REMARK                         _______ _______ _______ _____ _____    ______ ____
ROOT
ATOM      1  O   UNL     1      28.883  22.639  11.818  0.00  0.00    +0.000 OA
ATOM      2  O   UNL     1      28.887  24.967  11.700  0.00  0.00    +0.000 OA
ATOM      3  C   UNL     1      29.424  22.367  14.110  0.00  0.00    +0.000 C 
ATOM      4  C   UNL     1      29.358  23.773  13.791  0.00  0.00    +0.000 C 
ATOM      5  C   UNL     1      29.110  21.846  12.853  0.00  0.00    +0.000 C 
ATOM      6  C   UNL     1      29.021  23.928  12.319  0.00  0.00    +0.000 C 
ATOM      7  C   UNL     1      29.292  21.798  15.390  0.00  0.00    +0.000 C 
ATOM      8  C   UNL     1      29.165  21.239  16.695  0.00  0.00    +0.000 C 
ATOM      9  C   UNL     1      28.362  21.870  17.643  0.00  0.00    +0.000 C 
ATOM     10  C   UNL     1      28.254  21.321  18.917  0.00  0.00    +0.000 C 
ATOM     11  C   UNL     1      28.935  20.156  19.253  0.00  0.00    +0.000 C 
ATOM     12  C   UNL     1      29.736  19.529  18.301  0.00  0.00    +0.000 C 
ATOM     13  C   UNL     1      29.851  20.071  17.022  0.00  0.00    +0.000 C 
ATOM     14  C   UNL     1      29.497  24.836  14.710  0.00  0.00    +0.000 C 
ATOM     15  C   UNL     1      29.634  25.903  15.645  0.00  0.00    +0.000 C 
ATOM     16  C   UNL     1      30.572  25.810  16.669  0.00  0.00    +0.000 C 
ATOM     17  C   UNL     1      30.688  26.854  17.582  0.00  0.00    +0.000 C 
ATOM     18  C   UNL     1      29.882  27.983  17.484  0.00  0.00    +0.000 C 
ATOM     19  C   UNL     1      28.945  28.070  16.456  0.00  0.00    +0.000 C 
ATOM     20  C   UNL     1      28.820  27.030  15.536  0.00  0.00    +0.000 C 
ENDROOT
BRANCH  10  21
ATOM     21  O   UNL     1      27.476  21.914  19.868  0.00  0.00    +0.000 OA
ATOM     22  H   UNL     1      27.016  22.671  19.465  0.00  0.00    +0.000 HD
ENDBRANCH  10  21
BRANCH  17  23
ATOM     23  O   UNL     1      31.597  26.795  18.598  0.00  0.00    +0.000 OA
ATOM     24  H   UNL     1      32.419  26.400  18.256  0.00  0.00    +0.000 HD
ENDBRANCH  17  23
TORSDOF 2
ENDMDL
