MODEL 1
REMARK VINA RESULT:      -6.8      0.000      0.000
REMARK  Name = 
REMARK  12 active torsions:
REMARK  status: ('A' for Active; 'I' for Inactive)
REMARK    1  A    between atoms: O_2  and  C_12
REMARK    2  A    between atoms: O_2  and  C_24
REMARK    3  A    between atoms: O_3  and  C_18
REMARK    4  A    between atoms: O_4  and  C_23
REMARK    5  A    between atoms: O_5  and  C_25
REMARK    6  A    between atoms: O_6  and  C_26
REMARK    7  A    between atoms: O_8  and  C_27
REMARK    8  A    between atoms: O_9  and  C_31
REMARK    9  A    between atoms: O_10  and  C_32
REMARK   10  A    between atoms: O_11  and  C_33
REMARK   11  A    between atoms: C_13  and  C_16
REMARK   12  A    between atoms: C_24  and  C_28
REMARK                            x       y       z     vdW  Elec       q    Type
REMARK                         _______ _______ _______ _____ _____    ______ ____
ROOT
ATOM      1  O   UNL     1      26.879  14.907  25.000  0.00  0.00    +0.000 OA
ATOM      2  C   UNL     1      25.199  15.062  26.805  0.00  0.00    +0.000 C 
ATOM      3  C   UNL     1      26.131  14.162  25.976  0.00  0.00    +0.000 C 
ATOM      4  C   UNL     1      26.057  16.065  27.576  0.00  0.00    +0.000 C 
ATOM      5  C   UNL     1      27.148  16.636  26.706  0.00  0.00    +0.000 A 
ATOM      6  C   UNL     1      27.493  16.029  25.491  0.00  0.00    +0.000 A 
ATOM      7  C   UNL     1      27.857  17.774  27.107  0.00  0.00    +0.000 A 
ATOM      8  C   UNL     1      28.489  16.574  24.678  0.00  0.00    +0.000 A 
ATOM      9  C   UNL     1      28.861  18.319  26.309  0.00  0.00    +0.000 A 
ATOM     10  C   UNL     1      29.165  17.715  25.096  0.00  0.00    +0.000 A 
ENDROOT
BRANCH   3  11
ATOM     11  C   UNL     1      25.360  13.056  25.268  0.00  0.00    +0.000 A 
ATOM     12  C   UNL     1      25.651  12.750  23.924  0.00  0.00    +0.000 A 
ATOM     13  C   UNL     1      24.381  12.303  25.943  0.00  0.00    +0.000 A 
ATOM     14  C   UNL     1      23.714  11.279  25.280  0.00  0.00    +0.000 A 
ATOM     15  C   UNL     1      24.971  11.721  23.270  0.00  0.00    +0.000 A 
ATOM     16  C   UNL     1      24.004  10.987  23.949  0.00  0.00    +0.000 A 
BRANCH  14  17
ATOM     17  O   UNL     1      22.758  10.521  25.903  0.00  0.00    +0.000 OA
ATOM     18  H   UNL     1      23.204   9.910  26.515  0.00  0.00    +0.000 HD
ENDBRANCH  14  17
BRANCH  15  19
ATOM     19  O   UNL     1      25.249  11.424  21.967  0.00  0.00    +0.000 OA
ATOM     20  H   UNL     1      24.621  11.882  21.388  0.00  0.00    +0.000 HD
ENDBRANCH  15  19
BRANCH  16  21
ATOM     21  O   UNL     1      23.329   9.972  23.328  0.00  0.00    +0.000 OA
ATOM     22  H   UNL     1      23.606  10.026  22.394  0.00  0.00    +0.000 HD
ENDBRANCH  16  21
ENDBRANCH   3  11
BRANCH   7  23
ATOM     23  O   UNL     1      27.545  18.350  28.307  0.00  0.00    +0.000 OA
ATOM     24  H   UNL     1      27.157  17.674  28.887  0.00  0.00    +0.000 HD
ENDBRANCH   7  23
BRANCH  10  25
ATOM     25  O   UNL     1      30.150  18.275  24.338  0.00  0.00    +0.000 OA
ATOM     26  H   UNL     1      30.308  19.183  24.650  0.00  0.00    +0.000 HD
ENDBRANCH  10  25
BRANCH   2  27
ATOM     27  O   UNL     1      24.308  15.787  25.921  0.00  0.00    +0.000 OA
BRANCH  27  29
ATOM     28  O   UNL     1      22.381  15.515  27.138  0.00  0.00    +0.000 OA
ATOM     29  C   UNL     1      23.130  16.187  26.448  0.00  0.00    +0.000 C 
BRANCH  29  30
ATOM     30  C   UNL     1      22.841  17.582  26.031  0.00  0.00    +0.000 A 
ATOM     31  C   UNL     1      22.811  17.866  24.657  0.00  0.00    +0.000 A 
ATOM     32  C   UNL     1      22.594  18.599  26.970  0.00  0.00    +0.000 A 
ATOM     33  C   UNL     1      22.332  19.895  26.532  0.00  0.00    +0.000 A 
ATOM     34  C   UNL     1      22.551  19.165  24.238  0.00  0.00    +0.000 A 
ATOM     35  C   UNL     1      22.317  20.177  25.169  0.00  0.00    +0.000 A 
BRANCH  33  36
ATOM     36  O   UNL     1      22.092  20.895  27.430  0.00  0.00    +0.000 OA
ATOM     37  H   UNL     1      21.141  20.958  27.602  0.00  0.00    +0.000 HD
ENDBRANCH  33  36
BRANCH  34  38
ATOM     38  O   UNL     1      22.515  19.499  22.912  0.00  0.00    +0.000 OA
ATOM     39  H   UNL     1      21.634  19.859  22.705  0.00  0.00    +0.000 HD
ENDBRANCH  34  38
BRANCH  35  40
ATOM     40  O   UNL     1      22.065  21.445  24.720  0.00  0.00    +0.000 OA
ATOM     41  H   UNL     1      22.609  21.541  23.914  0.00  0.00    +0.000 HD
ENDBRANCH  35  40
ENDBRANCH  29  30
ENDBRANCH  27  29
ENDBRANCH   2  27
TORSDOF 12
ENDMDL
MODEL 2
REMARK VINA RESULT:      -6.6      1.872      7.614
REMARK  Name = 
REMARK  12 active torsions:
REMARK  status: ('A' for Active; 'I' for Inactive)
REMARK    1  A    between atoms: O_2  and  C_12
REMARK    2  A    between atoms: O_2  and  C_24
REMARK    3  A    between atoms: O_3  and  C_18
REMARK    4  A    between atoms: O_4  and  C_23
REMARK    5  A    between atoms: O_5  and  C_25
REMARK    6  A    between atoms: O_6  and  C_26
REMARK    7  A    between atoms: O_8  and  C_27
REMARK    8  A    between atoms: O_9  and  C_31
REMARK    9  A    between atoms: O_10  and  C_32
REMARK   10  A    between atoms: O_11  and  C_33
REMARK   11  A    between atoms: C_13  and  C_16
REMARK   12  A    between atoms: C_24  and  C_28
REMARK                            x       y       z     vdW  Elec       q    Type
REMARK                         _______ _______ _______ _____ _____    ______ ____
ROOT
ATOM      1  O   UNL     1      22.816  15.773  26.150  0.00  0.00    +0.000 OA
ATOM      2  C   UNL     1      25.158  16.332  26.708  0.00  0.00    +0.000 C 
ATOM      3  C   UNL     1      23.680  16.759  26.741  0.00  0.00    +0.000 C 
ATOM      4  C   UNL     1      25.309  15.056  27.536  0.00  0.00    +0.000 C 
ATOM      5  C   UNL     1      24.192  14.083  27.255  0.00  0.00    +0.000 A 
ATOM      6  C   UNL     1      23.027  14.495  26.593  0.00  0.00    +0.000 A 
ATOM      7  C   UNL     1      24.287  12.750  27.671  0.00  0.00    +0.000 A 
ATOM      8  C   UNL     1      22.005  13.585  26.315  0.00  0.00    +0.000 A 
ATOM      9  C   UNL     1      23.267  11.836  27.409  0.00  0.00    +0.000 A 
ATOM     10  C   UNL     1      22.135  12.263  26.727  0.00  0.00    +0.000 A 
ENDROOT
BRANCH   3  11
ATOM     11  C   UNL     1      23.465  18.091  26.034  0.00  0.00    +0.000 A 
ATOM     12  C   UNL     1      23.007  18.110  24.702  0.00  0.00    +0.000 A 
ATOM     13  C   UNL     1      23.681  19.312  26.700  0.00  0.00    +0.000 A 
ATOM     14  C   UNL     1      23.448  20.513  26.039  0.00  0.00    +0.000 A 
ATOM     15  C   UNL     1      22.780  19.324  24.050  0.00  0.00    +0.000 A 
ATOM     16  C   UNL     1      23.000  20.523  24.719  0.00  0.00    +0.000 A 
BRANCH  14  17
ATOM     17  O   UNL     1      23.642  21.721  26.653  0.00  0.00    +0.000 OA
ATOM     18  H   UNL     1      23.944  21.557  27.563  0.00  0.00    +0.000 HD
ENDBRANCH  14  17
BRANCH  15  19
ATOM     19  O   UNL     1      22.339  19.346  22.758  0.00  0.00    +0.000 OA
ATOM     20  H   UNL     1      21.464  19.759  22.720  0.00  0.00    +0.000 HD
ENDBRANCH  15  19
BRANCH  16  21
ATOM     21  O   UNL     1      22.780  21.723  24.101  0.00  0.00    +0.000 OA
ATOM     22  H   UNL     1      22.062  22.138  24.615  0.00  0.00    +0.000 HD
ENDBRANCH  16  21
ENDBRANCH   3  11
BRANCH   7  23
ATOM     23  O   UNL     1      25.408  12.353  28.344  0.00  0.00    +0.000 OA
ATOM     24  H   UNL     1      25.989  13.122  28.466  0.00  0.00    +0.000 HD
ENDBRANCH   7  23
BRANCH  10  25
ATOM     25  O   UNL     1      21.158  11.344  26.484  0.00  0.00    +0.000 OA
ATOM     26  H   UNL     1      20.604  11.661  25.750  0.00  0.00    +0.000 HD
ENDBRANCH  10  25
BRANCH   2  27
ATOM     27  O   UNL     1      25.554  16.055  25.341  0.00  0.00    +0.000 OA
BRANCH  27  29
ATOM     28  O   UNL     1      27.814  15.731  25.578  0.00  0.00    +0.000 OA
ATOM     29  C   UNL     1      26.716  15.385  25.175  0.00  0.00    +0.000 C 
BRANCH  29  30
ATOM     30  C   UNL     1      26.477  14.154  24.380  0.00  0.00    +0.000 A 
ATOM     31  C   UNL     1      27.566  13.592  23.695  0.00  0.00    +0.000 A 
ATOM     32  C   UNL     1      25.209  13.552  24.312  0.00  0.00    +0.000 A 
ATOM     33  C   UNL     1      25.032  12.400  23.548  0.00  0.00    +0.000 A 
ATOM     34  C   UNL     1      27.369  12.444  22.936  0.00  0.00    +0.000 A 
ATOM     35  C   UNL     1      26.109  11.852  22.858  0.00  0.00    +0.000 A 
BRANCH  33  36
ATOM     36  O   UNL     1      23.806  11.803  23.469  0.00  0.00    +0.000 OA
ATOM     37  H   UNL     1      23.575  11.417  24.327  0.00  0.00    +0.000 HD
ENDBRANCH  33  36
BRANCH  34  38
ATOM     38  O   UNL     1      28.393  11.857  22.244  0.00  0.00    +0.000 OA
ATOM     39  H   UNL     1      28.019  11.375  21.484  0.00  0.00    +0.000 HD
ENDBRANCH  34  38
BRANCH  35  40
ATOM     40  O   UNL     1      25.953  10.723  22.101  0.00  0.00    +0.000 OA
ATOM     41  H   UNL     1      26.736  10.699  21.517  0.00  0.00    +0.000 HD
ENDBRANCH  35  40
ENDBRANCH  29  30
ENDBRANCH  27  29
ENDBRANCH   2  27
TORSDOF 12
ENDMDL
MODEL 3
REMARK VINA RESULT:      -6.5      2.882      6.557
REMARK  Name = 
REMARK  12 active torsions:
REMARK  status: ('A' for Active; 'I' for Inactive)
REMARK    1  A    between atoms: O_2  and  C_12
REMARK    2  A    between atoms: O_2  and  C_24
REMARK    3  A    between atoms: O_3  and  C_18
REMARK    4  A    between atoms: O_4  and  C_23
REMARK    5  A    between atoms: O_5  and  C_25
REMARK    6  A    between atoms: O_6  and  C_26
REMARK    7  A    between atoms: O_8  and  C_27
REMARK    8  A    between atoms: O_9  and  C_31
REMARK    9  A    between atoms: O_10  and  C_32
REMARK   10  A    between atoms: O_11  and  C_33
REMARK   11  A    between atoms: C_13  and  C_16
REMARK   12  A    between atoms: C_24  and  C_28
REMARK                            x       y       z     vdW  Elec       q    Type
REMARK                         _______ _______ _______ _____ _____    ______ ____
ROOT
ATOM      1  O   UNL     1      22.752  14.550  28.452  0.00  0.00    +0.000 OA
ATOM      2  C   UNL     1      23.497  16.679  27.443  0.00  0.00    +0.000 C 
ATOM      3  C   UNL     1      23.466  15.775  28.688  0.00  0.00    +0.000 C 
ATOM      4  C   UNL     1      24.240  15.941  26.330  0.00  0.00    +0.000 C 
ATOM      5  C   UNL     1      23.819  14.495  26.254  0.00  0.00    +0.000 A 
ATOM      6  C   UNL     1      23.115  13.893  27.306  0.00  0.00    +0.000 A 
ATOM      7  C   UNL     1      24.144  13.716  25.137  0.00  0.00    +0.000 A 
ATOM      8  C   UNL     1      22.708  12.560  27.222  0.00  0.00    +0.000 A 
ATOM      9  C   UNL     1      23.753  12.381  25.048  0.00  0.00    +0.000 A 
ATOM     10  C   UNL     1      23.032  11.816  26.093  0.00  0.00    +0.000 A 
ENDROOT
BRANCH   3  11
ATOM     11  C   UNL     1      22.844  16.486  29.882  0.00  0.00    +0.000 A 
ATOM     12  C   UNL     1      23.421  17.676  30.367  0.00  0.00    +0.000 A 
ATOM     13  C   UNL     1      21.675  15.995  30.495  0.00  0.00    +0.000 A 
ATOM     14  C   UNL     1      21.112  16.683  31.565  0.00  0.00    +0.000 A 
ATOM     15  C   UNL     1      22.846  18.354  31.444  0.00  0.00    +0.000 A 
ATOM     16  C   UNL     1      21.693  17.856  32.041  0.00  0.00    +0.000 A 
BRANCH  14  17
ATOM     17  O   UNL     1      19.973  16.240  32.184  0.00  0.00    +0.000 OA
ATOM     18  H   UNL     1      19.515  15.630  31.581  0.00  0.00    +0.000 HD
ENDBRANCH  14  17
BRANCH  15  19
ATOM     19  O   UNL     1      23.405  19.506  31.917  0.00  0.00    +0.000 OA
ATOM     20  H   UNL     1      24.316  19.334  32.198  0.00  0.00    +0.000 HD
ENDBRANCH  15  19
BRANCH  16  21
ATOM     21  O   UNL     1      21.111  18.506  33.094  0.00  0.00    +0.000 OA
ATOM     22  H   UNL     1      20.178  18.619  32.831  0.00  0.00    +0.000 HD
ENDBRANCH  16  21
ENDBRANCH   3  11
BRANCH   7  23
ATOM     23  O   UNL     1      24.857  14.291  24.124  0.00  0.00    +0.000 OA
ATOM     24  H   UNL     1      25.485  13.638  23.773  0.00  0.00    +0.000 HD
ENDBRANCH   7  23
BRANCH  10  25
ATOM     25  O   UNL     1      22.662  10.509  25.972  0.00  0.00    +0.000 OA
ATOM     26  H   UNL     1      23.386  10.015  25.553  0.00  0.00    +0.000 HD
ENDBRANCH  10  25
BRANCH   2  27
ATOM     27  O   UNL     1      22.142  16.951  27.004  0.00  0.00    +0.000 OA
BRANCH  27  29
ATOM     28  O   UNL     1      20.872  18.461  28.177  0.00  0.00    +0.000 OA
ATOM     29  C   UNL     1      21.654  18.179  27.283  0.00  0.00    +0.000 C 
BRANCH  29  30
ATOM     30  C   UNL     1      22.181  19.164  26.305  0.00  0.00    +0.000 A 
ATOM     31  C   UNL     1      22.036  18.876  24.939  0.00  0.00    +0.000 A 
ATOM     32  C   UNL     1      22.800  20.357  26.717  0.00  0.00    +0.000 A 
ATOM     33  C   UNL     1      23.284  21.249  25.762  0.00  0.00    +0.000 A 
ATOM     34  C   UNL     1      22.528  19.776  24.001  0.00  0.00    +0.000 A 
ATOM     35  C   UNL     1      23.153  20.955  24.408  0.00  0.00    +0.000 A 
BRANCH  33  36
ATOM     36  O   UNL     1      23.890  22.411  26.144  0.00  0.00    +0.000 OA
ATOM     37  H   UNL     1      23.642  22.624  27.056  0.00  0.00    +0.000 HD
ENDBRANCH  33  36
BRANCH  34  38
ATOM     38  O   UNL     1      22.419  19.544  22.657  0.00  0.00    +0.000 OA
ATOM     39  H   UNL     1      22.776  20.314  22.178  0.00  0.00    +0.000 HD
ENDBRANCH  34  38
BRANCH  35  40
ATOM     40  O   UNL     1      23.625  21.817  23.457  0.00  0.00    +0.000 OA
ATOM     41  H   UNL     1      22.897  21.907  22.812  0.00  0.00    +0.000 HD
ENDBRANCH  35  40
ENDBRANCH  29  30
ENDBRANCH  27  29
ENDBRANCH   2  27
TORSDOF 12
ENDMDL
MODEL 4
REMARK VINA RESULT:      -6.3      1.904      7.696
REMARK  Name = 
REMARK  12 active torsions:
REMARK  status: ('A' for Active; 'I' for Inactive)
REMARK    1  A    between atoms: O_2  and  C_12
REMARK    2  A    between atoms: O_2  and  C_24
REMARK    3  A    between atoms: O_3  and  C_18
REMARK    4  A    between atoms: O_4  and  C_23
REMARK    5  A    between atoms: O_5  and  C_25
REMARK    6  A    between atoms: O_6  and  C_26
REMARK    7  A    between atoms: O_8  and  C_27
REMARK    8  A    between atoms: O_9  and  C_31
REMARK    9  A    between atoms: O_10  and  C_32
REMARK   10  A    between atoms: O_11  and  C_33
REMARK   11  A    between atoms: C_13  and  C_16
REMARK   12  A    between atoms: C_24  and  C_28
REMARK                            x       y       z     vdW  Elec       q    Type
REMARK                         _______ _______ _______ _____ _____    ______ ____
ROOT
ATOM      1  O   UNL     1      22.777  15.886  26.161  0.00  0.00    +0.000 OA
ATOM      2  C   UNL     1      24.927  16.639  27.119  0.00  0.00    +0.000 C 
ATOM      3  C   UNL     1      23.443  16.953  26.858  0.00  0.00    +0.000 C 
ATOM      4  C   UNL     1      25.008  15.405  28.017  0.00  0.00    +0.000 C 
ATOM      5  C   UNL     1      24.035  14.341  27.576  0.00  0.00    +0.000 A 
ATOM      6  C   UNL     1      22.990  14.641  26.692  0.00  0.00    +0.000 A 
ATOM      7  C   UNL     1      24.142  13.032  28.062  0.00  0.00    +0.000 A 
ATOM      8  C   UNL     1      22.105  13.648  26.269  0.00  0.00    +0.000 A 
ATOM      9  C   UNL     1      23.257  12.036  27.656  0.00  0.00    +0.000 A 
ATOM     10  C   UNL     1      22.246  12.353  26.757  0.00  0.00    +0.000 A 
ENDROOT
BRANCH   3  11
ATOM     11  C   UNL     1      23.273  18.242  26.065  0.00  0.00    +0.000 A 
ATOM     12  C   UNL     1      23.567  19.479  26.670  0.00  0.00    +0.000 A 
ATOM     13  C   UNL     1      22.860  18.220  24.719  0.00  0.00    +0.000 A 
ATOM     14  C   UNL     1      22.743  19.412  24.011  0.00  0.00    +0.000 A 
ATOM     15  C   UNL     1      23.441  20.667  25.947  0.00  0.00    +0.000 A 
ATOM     16  C   UNL     1      23.030  20.631  24.619  0.00  0.00    +0.000 A 
BRANCH  14  17
ATOM     17  O   UNL     1      22.349  19.432  22.699  0.00  0.00    +0.000 OA
ATOM     18  H   UNL     1      23.146  19.437  22.141  0.00  0.00    +0.000 HD
ENDBRANCH  14  17
BRANCH  15  19
ATOM     19  O   UNL     1      23.722  21.869  26.532  0.00  0.00    +0.000 OA
ATOM     20  H   UNL     1      24.346  22.362  25.979  0.00  0.00    +0.000 HD
ENDBRANCH  15  19
BRANCH  16  21
ATOM     21  O   UNL     1      22.905  21.783  23.892  0.00  0.00    +0.000 OA
ATOM     22  H   UNL     1      22.394  22.384  24.467  0.00  0.00    +0.000 HD
ENDBRANCH  16  21
ENDBRANCH   3  11
BRANCH   7  23
ATOM     23  O   UNL     1      25.141  12.743  28.949  0.00  0.00    +0.000 OA
ATOM     24  H   UNL     1      25.513  13.576  29.284  0.00  0.00    +0.000 HD
ENDBRANCH   7  23
BRANCH  10  25
ATOM     25  O   UNL     1      21.399  11.354  26.377  0.00  0.00    +0.000 OA
ATOM     26  H   UNL     1      20.856  11.095  27.141  0.00  0.00    +0.000 HD
ENDBRANCH  10  25
BRANCH   2  27
ATOM     27  O   UNL     1      25.593  16.352  25.864  0.00  0.00    +0.000 OA
BRANCH  27  29
ATOM     28  O   UNL     1      27.781  16.634  26.497  0.00  0.00    +0.000 OA
ATOM     29  C   UNL     1      26.896  16.005  25.939  0.00  0.00    +0.000 C 
BRANCH  29  30
ATOM     30  C   UNL     1      27.123  14.738  25.199  0.00  0.00    +0.000 A 
ATOM     31  C   UNL     1      26.042  14.186  24.494  0.00  0.00    +0.000 A 
ATOM     32  C   UNL     1      28.377  14.104  25.185  0.00  0.00    +0.000 A 
ATOM     33  C   UNL     1      28.541  12.913  24.479  0.00  0.00    +0.000 A 
ATOM     34  C   UNL     1      26.223  12.996  23.799  0.00  0.00    +0.000 A 
ATOM     35  C   UNL     1      27.463  12.359  23.794  0.00  0.00    +0.000 A 
BRANCH  33  36
ATOM     36  O   UNL     1      29.752  12.282  24.457  0.00  0.00    +0.000 OA
ATOM     37  H   UNL     1      29.883  11.860  23.595  0.00  0.00    +0.000 HD
ENDBRANCH  33  36
BRANCH  34  38
ATOM     38  O   UNL     1      25.203  12.410  23.100  0.00  0.00    +0.000 OA
ATOM     39  H   UNL     1      24.716  11.817  23.700  0.00  0.00    +0.000 HD
ENDBRANCH  34  38
BRANCH  35  40
ATOM     40  O   UNL     1      27.605  11.189  23.098  0.00  0.00    +0.000 OA
ATOM     41  H   UNL     1      28.457  11.275  22.629  0.00  0.00    +0.000 HD
ENDBRANCH  35  40
ENDBRANCH  29  30
ENDBRANCH  27  29
ENDBRANCH   2  27
TORSDOF 12
ENDMDL
MODEL 5
REMARK VINA RESULT:      -6.2     23.642     26.372
REMARK  Name = 
REMARK  12 active torsions:
REMARK  status: ('A' for Active; 'I' for Inactive)
REMARK    1  A    between atoms: O_2  and  C_12
REMARK    2  A    between atoms: O_2  and  C_24
REMARK    3  A    between atoms: O_3  and  C_18
REMARK    4  A    between atoms: O_4  and  C_23
REMARK    5  A    between atoms: O_5  and  C_25
REMARK    6  A    between atoms: O_6  and  C_26
REMARK    7  A    between atoms: O_8  and  C_27
REMARK    8  A    between atoms: O_9  and  C_31
REMARK    9  A    between atoms: O_10  and  C_32
REMARK   10  A    between atoms: O_11  and  C_33
REMARK   11  A    between atoms: C_13  and  C_16
REMARK   12  A    between atoms: C_24  and  C_28
REMARK                            x       y       z     vdW  Elec       q    Type
REMARK                         _______ _______ _______ _____ _____    ______ ____
ROOT
ATOM      1  O   UNL     1      -0.070  15.179  23.426  0.00  0.00    +0.000 OA
ATOM      2  C   UNL     1      -1.434  13.583  22.123  0.00  0.00    +0.000 C 
ATOM      3  C   UNL     1      -0.922  14.023  23.506  0.00  0.00    +0.000 C 
ATOM      4  C   UNL     1      -2.278  14.716  21.539  0.00  0.00    +0.000 C 
ATOM      5  C   UNL     1      -1.622  16.056  21.755  0.00  0.00    +0.000 A 
ATOM      6  C   UNL     1      -0.577  16.207  22.676  0.00  0.00    +0.000 A 
ATOM      7  C   UNL     1      -2.062  17.186  21.054  0.00  0.00    +0.000 A 
ATOM      8  C   UNL     1       0.042  17.445  22.856  0.00  0.00    +0.000 A 
ATOM      9  C   UNL     1      -1.459  18.429  21.236  0.00  0.00    +0.000 A 
ATOM     10  C   UNL     1      -0.407  18.546  22.135  0.00  0.00    +0.000 A 
ENDROOT
BRANCH   3  11
ATOM     11  C   UNL     1      -0.167  12.902  24.208  0.00  0.00    +0.000 A 
ATOM     12  C   UNL     1      -0.833  11.701  24.521  0.00  0.00    +0.000 A 
ATOM     13  C   UNL     1       1.199  13.028  24.521  0.00  0.00    +0.000 A 
ATOM     14  C   UNL     1       1.870  11.975  25.135  0.00  0.00    +0.000 A 
ATOM     15  C   UNL     1      -0.147  10.654  25.140  0.00  0.00    +0.000 A 
ATOM     16  C   UNL     1       1.202  10.792  25.446  0.00  0.00    +0.000 A 
BRANCH  14  17
ATOM     17  O   UNL     1       3.200  12.057  25.450  0.00  0.00    +0.000 OA
ATOM     18  H   UNL     1       3.346  12.878  25.951  0.00  0.00    +0.000 HD
ENDBRANCH  14  17
BRANCH  15  19
ATOM     19  O   UNL     1      -0.790   9.489  25.448  0.00  0.00    +0.000 OA
ATOM     20  H   UNL     1      -0.529   9.197  26.334  0.00  0.00    +0.000 HD
ENDBRANCH  15  19
BRANCH  16  21
ATOM     21  O   UNL     1       1.894   9.778  26.049  0.00  0.00    +0.000 OA
ATOM     22  H   UNL     1       2.042  10.089  26.963  0.00  0.00    +0.000 HD
ENDBRANCH  16  21
ENDBRANCH   3  11
BRANCH   7  23
ATOM     23  O   UNL     1      -3.102  17.048  20.179  0.00  0.00    +0.000 OA
ATOM     24  H   UNL     1      -2.888  16.344  19.545  0.00  0.00    +0.000 HD
ENDBRANCH   7  23
BRANCH  10  25
ATOM     25  O   UNL     1       0.163  19.775  22.286  0.00  0.00    +0.000 OA
ATOM     26  H   UNL     1       0.169  20.005  23.230  0.00  0.00    +0.000 HD
ENDBRANCH  10  25
BRANCH   2  27
ATOM     27  O   UNL     1      -0.310  13.332  21.244  0.00  0.00    +0.000 OA
BRANCH  27  29
ATOM     28  O   UNL     1      -0.880  12.975  19.049  0.00  0.00    +0.000 OA
ATOM     29  C   UNL     1      -0.556  12.572  20.154  0.00  0.00    +0.000 C 
BRANCH  29  30
ATOM     30  C   UNL     1      -0.411  11.135  20.500  0.00  0.00    +0.000 A 
ATOM     31  C   UNL     1       0.611  10.773  21.392  0.00  0.00    +0.000 A 
ATOM     32  C   UNL     1      -1.268  10.156  19.968  0.00  0.00    +0.000 A 
ATOM     33  C   UNL     1      -1.090   8.819  20.319  0.00  0.00    +0.000 A 
ATOM     34  C   UNL     1       0.775   9.435  21.728  0.00  0.00    +0.000 A 
ATOM     35  C   UNL     1      -0.067   8.460  21.192  0.00  0.00    +0.000 A 
BRANCH  33  36
ATOM     36  O   UNL     1      -1.912   7.854  19.810  0.00  0.00    +0.000 OA
ATOM     37  H   UNL     1      -2.836   8.131  19.903  0.00  0.00    +0.000 HD
ENDBRANCH  33  36
BRANCH  34  38
ATOM     38  O   UNL     1       1.757   9.024  22.587  0.00  0.00    +0.000 OA
ATOM     39  H   UNL     1       2.517   8.712  22.065  0.00  0.00    +0.000 HD
ENDBRANCH  34  38
BRANCH  35  40
ATOM     40  O   UNL     1       0.124   7.152  21.545  0.00  0.00    +0.000 OA
ATOM     41  H   UNL     1       0.371   7.178  22.489  0.00  0.00    +0.000 HD
ENDBRANCH  35  40
ENDBRANCH  29  30
ENDBRANCH  27  29
ENDBRANCH   2  27
TORSDOF 12
ENDMDL
MODEL 6
REMARK VINA RESULT:      -6.1     23.528     25.856
REMARK  Name = 
REMARK  12 active torsions:
REMARK  status: ('A' for Active; 'I' for Inactive)
REMARK    1  A    between atoms: O_2  and  C_12
REMARK    2  A    between atoms: O_2  and  C_24
REMARK    3  A    between atoms: O_3  and  C_18
REMARK    4  A    between atoms: O_4  and  C_23
REMARK    5  A    between atoms: O_5  and  C_25
REMARK    6  A    between atoms: O_6  and  C_26
REMARK    7  A    between atoms: O_8  and  C_27
REMARK    8  A    between atoms: O_9  and  C_31
REMARK    9  A    between atoms: O_10  and  C_32
REMARK   10  A    between atoms: O_11  and  C_33
REMARK   11  A    between atoms: C_13  and  C_16
REMARK   12  A    between atoms: C_24  and  C_28
REMARK                            x       y       z     vdW  Elec       q    Type
REMARK                         _______ _______ _______ _____ _____    ______ ____
ROOT
ATOM      1  O   UNL     1       0.225  12.442  23.511  0.00  0.00    +0.000 OA
ATOM      2  C   UNL     1      -0.382  14.536  24.675  0.00  0.00    +0.000 C 
ATOM      3  C   UNL     1      -0.850  13.348  23.816  0.00  0.00    +0.000 C 
ATOM      4  C   UNL     1       0.133  13.994  26.008  0.00  0.00    +0.000 C 
ATOM      5  C   UNL     1       0.990  12.769  25.809  0.00  0.00    +0.000 A 
ATOM      6  C   UNL     1       0.981  12.074  24.593  0.00  0.00    +0.000 A 
ATOM      7  C   UNL     1       1.797  12.288  26.847  0.00  0.00    +0.000 A 
ATOM      8  C   UNL     1       1.793  10.953  24.405  0.00  0.00    +0.000 A 
ATOM      9  C   UNL     1       2.602  11.164  26.674  0.00  0.00    +0.000 A 
ATOM     10  C   UNL     1       2.596  10.508  25.450  0.00  0.00    +0.000 A 
ENDROOT
BRANCH   3  11
ATOM     11  C   UNL     1      -1.487  13.813  22.514  0.00  0.00    +0.000 A 
ATOM     12  C   UNL     1      -2.529  14.760  22.545  0.00  0.00    +0.000 A 
ATOM     13  C   UNL     1      -1.030  13.340  21.270  0.00  0.00    +0.000 A 
ATOM     14  C   UNL     1      -1.612  13.806  20.095  0.00  0.00    +0.000 A 
ATOM     15  C   UNL     1      -3.105  15.216  21.357  0.00  0.00    +0.000 A 
ATOM     16  C   UNL     1      -2.645  14.739  20.135  0.00  0.00    +0.000 A 
BRANCH  14  17
ATOM     17  O   UNL     1      -1.192  13.374  18.865  0.00  0.00    +0.000 OA
ATOM     18  H   UNL     1      -1.902  13.544  18.222  0.00  0.00    +0.000 HD
ENDBRANCH  14  17
BRANCH  15  19
ATOM     19  O   UNL     1      -4.118  16.132  21.384  0.00  0.00    +0.000 OA
ATOM     20  H   UNL     1      -4.063  16.701  20.601  0.00  0.00    +0.000 HD
ENDBRANCH  15  19
BRANCH  16  21
ATOM     21  O   UNL     1      -3.193  15.175  18.960  0.00  0.00    +0.000 OA
ATOM     22  H   UNL     1      -3.200  16.148  19.036  0.00  0.00    +0.000 HD
ENDBRANCH  16  21
ENDBRANCH   3  11
BRANCH   7  23
ATOM     23  O   UNL     1       1.784  12.946  28.045  0.00  0.00    +0.000 OA
ATOM     24  H   UNL     1       0.993  12.677  28.541  0.00  0.00    +0.000 HD
ENDBRANCH   7  23
BRANCH  10  25
ATOM     25  O   UNL     1       3.397   9.414  25.313  0.00  0.00    +0.000 OA
ATOM     26  H   UNL     1       3.026   8.836  24.625  0.00  0.00    +0.000 HD
ENDBRANCH  10  25
BRANCH   2  27
ATOM     27  O   UNL     1       0.698  15.229  24.001  0.00  0.00    +0.000 OA
BRANCH  27  29
ATOM     28  O   UNL     1       1.659  17.002  25.099  0.00  0.00    +0.000 OA
ATOM     29  C   UNL     1       0.857  16.536  24.305  0.00  0.00    +0.000 C 
BRANCH  29  30
ATOM     30  C   UNL     1      -0.128  17.351  23.551  0.00  0.00    +0.000 A 
ATOM     31  C   UNL     1      -0.047  17.351  22.150  0.00  0.00    +0.000 A 
ATOM     32  C   UNL     1      -1.124  18.098  24.204  0.00  0.00    +0.000 A 
ATOM     33  C   UNL     1      -2.024  18.853  23.453  0.00  0.00    +0.000 A 
ATOM     34  C   UNL     1      -0.951  18.112  21.418  0.00  0.00    +0.000 A 
ATOM     35  C   UNL     1      -1.933  18.863  22.065  0.00  0.00    +0.000 A 
BRANCH  33  36
ATOM     36  O   UNL     1      -2.997  19.586  24.071  0.00  0.00    +0.000 OA
ATOM     37  H   UNL     1      -3.675  18.993  24.427  0.00  0.00    +0.000 HD
ENDBRANCH  33  36
BRANCH  34  38
ATOM     38  O   UNL     1      -0.915  18.154  20.051  0.00  0.00    +0.000 OA
ATOM     39  H   UNL     1       0.012  18.248  19.767  0.00  0.00    +0.000 HD
ENDBRANCH  34  38
BRANCH  35  40
ATOM     40  O   UNL     1      -2.806  19.600  21.312  0.00  0.00    +0.000 OA
ATOM     41  H   UNL     1      -3.643  19.097  21.330  0.00  0.00    +0.000 HD
ENDBRANCH  35  40
ENDBRANCH  29  30
ENDBRANCH  27  29
ENDBRANCH   2  27
TORSDOF 12
ENDMDL
MODEL 7
REMARK VINA RESULT:      -6.0     23.124     25.366
REMARK  Name = 
REMARK  12 active torsions:
REMARK  status: ('A' for Active; 'I' for Inactive)
REMARK    1  A    between atoms: O_2  and  C_12
REMARK    2  A    between atoms: O_2  and  C_24
REMARK    3  A    between atoms: O_3  and  C_18
REMARK    4  A    between atoms: O_4  and  C_23
REMARK    5  A    between atoms: O_5  and  C_25
REMARK    6  A    between atoms: O_6  and  C_26
REMARK    7  A    between atoms: O_8  and  C_27
REMARK    8  A    between atoms: O_9  and  C_31
REMARK    9  A    between atoms: O_10  and  C_32
REMARK   10  A    between atoms: O_11  and  C_33
REMARK   11  A    between atoms: C_13  and  C_16
REMARK   12  A    between atoms: C_24  and  C_28
REMARK                            x       y       z     vdW  Elec       q    Type
REMARK                         _______ _______ _______ _____ _____    ______ ____
ROOT
ATOM      1  O   UNL     1       0.883  12.206  24.169  0.00  0.00    +0.000 OA
ATOM      2  C   UNL     1      -0.320  14.314  24.633  0.00  0.00    +0.000 C 
ATOM      3  C   UNL     1      -0.352  12.920  23.983  0.00  0.00    +0.000 C 
ATOM      4  C   UNL     1      -0.131  14.140  26.140  0.00  0.00    +0.000 C 
ATOM      5  C   UNL     1       0.913  13.095  26.445  0.00  0.00    +0.000 A 
ATOM      6  C   UNL     1       1.347  12.201  25.458  0.00  0.00    +0.000 A 
ATOM      7  C   UNL     1       1.454  12.983  27.731  0.00  0.00    +0.000 A 
ATOM      8  C   UNL     1       2.330  11.250  25.739  0.00  0.00    +0.000 A 
ATOM      9  C   UNL     1       2.427  12.030  28.025  0.00  0.00    +0.000 A 
ATOM     10  C   UNL     1       2.860  11.173  27.022  0.00  0.00    +0.000 A 
ENDROOT
BRANCH   3  11
ATOM     11  C   UNL     1      -0.655  13.002  22.493  0.00  0.00    +0.000 A 
ATOM     12  C   UNL     1      -0.406  11.889  21.667  0.00  0.00    +0.000 A 
ATOM     13  C   UNL     1      -1.216  14.162  21.927  0.00  0.00    +0.000 A 
ATOM     14  C   UNL     1      -1.511  14.197  20.568  0.00  0.00    +0.000 A 
ATOM     15  C   UNL     1      -0.704  11.940  20.303  0.00  0.00    +0.000 A 
ATOM     16  C   UNL     1      -1.256  13.094  19.757  0.00  0.00    +0.000 A 
BRANCH  14  17
ATOM     17  O   UNL     1      -2.062  15.305  19.981  0.00  0.00    +0.000 OA
ATOM     18  H   UNL     1      -1.866  16.077  20.539  0.00  0.00    +0.000 HD
ENDBRANCH  14  17
BRANCH  15  19
ATOM     19  O   UNL     1      -0.462  10.864  19.499  0.00  0.00    +0.000 OA
ATOM     20  H   UNL     1       0.425  10.938  19.114  0.00  0.00    +0.000 HD
ENDBRANCH  15  19
BRANCH  16  21
ATOM     21  O   UNL     1      -1.560  13.164  18.425  0.00  0.00    +0.000 OA
ATOM     22  H   UNL     1      -0.694  13.152  17.973  0.00  0.00    +0.000 HD
ENDBRANCH  16  21
ENDBRANCH   3  11
BRANCH   7  23
ATOM     23  O   UNL     1       1.010  13.834  28.704  0.00  0.00    +0.000 OA
ATOM     24  H   UNL     1       1.383  13.556  29.557  0.00  0.00    +0.000 HD
ENDBRANCH   7  23
BRANCH  10  25
ATOM     25  O   UNL     1       3.815  10.254  27.343  0.00  0.00    +0.000 OA
ATOM     26  H   UNL     1       4.170   9.871  26.522  0.00  0.00    +0.000 HD
ENDBRANCH  10  25
BRANCH   2  27
ATOM     27  O   UNL     1       0.796  15.073  24.104  0.00  0.00    +0.000 OA
BRANCH  27  29
ATOM     28  O   UNL     1       1.722  16.644  25.498  0.00  0.00    +0.000 OA
ATOM     29  C   UNL     1       0.965  16.319  24.598  0.00  0.00    +0.000 C 
BRANCH  29  30
ATOM     30  C   UNL     1       0.052  17.263  23.905  0.00  0.00    +0.000 A 
ATOM     31  C   UNL     1      -0.955  17.881  24.663  0.00  0.00    +0.000 A 
ATOM     32  C   UNL     1       0.184  17.548  22.535  0.00  0.00    +0.000 A 
ATOM     33  C   UNL     1      -0.701  18.437  21.927  0.00  0.00    +0.000 A 
ATOM     34  C   UNL     1      -1.829  18.762  24.039  0.00  0.00    +0.000 A 
ATOM     35  C   UNL     1      -1.708  19.037  22.677  0.00  0.00    +0.000 A 
BRANCH  33  36
ATOM     36  O   UNL     1      -0.589  18.724  20.596  0.00  0.00    +0.000 OA
ATOM     37  H   UNL     1       0.271  18.421  20.268  0.00  0.00    +0.000 HD
ENDBRANCH  33  36
BRANCH  34  38
ATOM     38  O   UNL     1      -2.833  19.388  24.728  0.00  0.00    +0.000 OA
ATOM     39  H   UNL     1      -2.717  20.351  24.640  0.00  0.00    +0.000 HD
ENDBRANCH  34  38
BRANCH  35  40
ATOM     40  O   UNL     1      -2.587  19.910  22.096  0.00  0.00    +0.000 OA
ATOM     41  H   UNL     1      -2.380  20.778  22.491  0.00  0.00    +0.000 HD
ENDBRANCH  35  40
ENDBRANCH  29  30
ENDBRANCH  27  29
ENDBRANCH   2  27
TORSDOF 12
ENDMDL
MODEL 8
REMARK VINA RESULT:      -6.0     29.083     32.191
REMARK  Name = 
REMARK  12 active torsions:
REMARK  status: ('A' for Active; 'I' for Inactive)
REMARK    1  A    between atoms: O_2  and  C_12
REMARK    2  A    between atoms: O_2  and  C_24
REMARK    3  A    between atoms: O_3  and  C_18
REMARK    4  A    between atoms: O_4  and  C_23
REMARK    5  A    between atoms: O_5  and  C_25
REMARK    6  A    between atoms: O_6  and  C_26
REMARK    7  A    between atoms: O_8  and  C_27
REMARK    8  A    between atoms: O_9  and  C_31
REMARK    9  A    between atoms: O_10  and  C_32
REMARK   10  A    between atoms: O_11  and  C_33
REMARK   11  A    between atoms: C_13  and  C_16
REMARK   12  A    between atoms: C_24  and  C_28
REMARK                            x       y       z     vdW  Elec       q    Type
REMARK                         _______ _______ _______ _____ _____    ______ ____
ROOT
ATOM      1  O   UNL     1      -3.525  29.806  17.378  0.00  0.00    +0.000 OA
ATOM      2  C   UNL     1      -2.764  27.588  18.158  0.00  0.00    +0.000 C 
ATOM      3  C   UNL     1      -2.376  28.978  17.625  0.00  0.00    +0.000 C 
ATOM      4  C   UNL     1      -3.476  27.768  19.498  0.00  0.00    +0.000 C 
ATOM      5  C   UNL     1      -4.465  28.906  19.446  0.00  0.00    +0.000 A 
ATOM      6  C   UNL     1      -4.427  29.846  18.408  0.00  0.00    +0.000 A 
ATOM      7  C   UNL     1      -5.428  29.060  20.451  0.00  0.00    +0.000 A 
ATOM      8  C   UNL     1      -5.358  30.885  18.352  0.00  0.00    +0.000 A 
ATOM      9  C   UNL     1      -6.354  30.100  20.411  0.00  0.00    +0.000 A 
ATOM     10  C   UNL     1      -6.313  31.003  19.356  0.00  0.00    +0.000 A 
ENDROOT
BRANCH   3  11
ATOM     11  C   UNL     1      -1.555  28.879  16.346  0.00  0.00    +0.000 A 
ATOM     12  C   UNL     1      -0.220  28.434  16.404  0.00  0.00    +0.000 A 
ATOM     13  C   UNL     1      -2.117  29.192  15.094  0.00  0.00    +0.000 A 
ATOM     14  C   UNL     1      -1.353  29.063  13.938  0.00  0.00    +0.000 A 
ATOM     15  C   UNL     1       0.536  28.312  15.236  0.00  0.00    +0.000 A 
ATOM     16  C   UNL     1      -0.032  28.627  14.006  0.00  0.00    +0.000 A 
BRANCH  14  17
ATOM     17  O   UNL     1      -1.865  29.352  12.702  0.00  0.00    +0.000 OA
ATOM     18  H   UNL     1      -2.467  28.633  12.444  0.00  0.00    +0.000 HD
ENDBRANCH  14  17
BRANCH  15  19
ATOM     19  O   UNL     1       1.831  27.883  15.289  0.00  0.00    +0.000 OA
ATOM     20  H   UNL     1       1.867  27.005  15.696  0.00  0.00    +0.000 HD
ENDBRANCH  15  19
BRANCH  16  21
ATOM     21  O   UNL     1       0.690  28.511  12.850  0.00  0.00    +0.000 OA
ATOM     22  H   UNL     1       1.550  28.144  13.130  0.00  0.00    +0.000 HD
ENDBRANCH  16  21
ENDBRANCH   3  11
BRANCH   7  23
ATOM     23  O   UNL     1      -5.447  28.163  21.482  0.00  0.00    +0.000 OA
ATOM     24  H   UNL     1      -4.574  27.741  21.546  0.00  0.00    +0.000 HD
ENDBRANCH   7  23
BRANCH  10  25
ATOM     25  O   UNL     1      -7.236  32.006  19.345  0.00  0.00    +0.000 OA
ATOM     26  H   UNL     1      -7.167  32.487  18.502  0.00  0.00    +0.000 HD
ENDBRANCH  10  25
BRANCH   2  27
ATOM     27  O   UNL     1      -3.669  26.945  17.227  0.00  0.00    +0.000 OA
BRANCH  27  29
ATOM     28  O   UNL     1      -3.485  24.691  17.623  0.00  0.00    +0.000 OA
ATOM     29  C   UNL     1      -3.384  25.666  16.896  0.00  0.00    +0.000 C 
BRANCH  29  30
ATOM     30  C   UNL     1      -2.881  25.608  15.501  0.00  0.00    +0.000 A 
ATOM     31  C   UNL     1      -3.777  25.916  14.465  0.00  0.00    +0.000 A 
ATOM     32  C   UNL     1      -1.549  25.268  15.208  0.00  0.00    +0.000 A 
ATOM     33  C   UNL     1      -1.123  25.222  13.882  0.00  0.00    +0.000 A 
ATOM     34  C   UNL     1      -3.335  25.863  13.148  0.00  0.00    +0.000 A 
ATOM     35  C   UNL     1      -2.017  25.513  12.855  0.00  0.00    +0.000 A 
BRANCH  33  36
ATOM     36  O   UNL     1       0.167  24.890  13.579  0.00  0.00    +0.000 OA
ATOM     37  H   UNL     1       0.215  23.953  13.341  0.00  0.00    +0.000 HD
ENDBRANCH  33  36
BRANCH  34  38
ATOM     38  O   UNL     1      -4.167  26.147  12.099  0.00  0.00    +0.000 OA
ATOM     39  H   UNL     1      -4.377  25.317  11.635  0.00  0.00    +0.000 HD
ENDBRANCH  34  38
BRANCH  35  40
ATOM     40  O   UNL     1      -1.618  25.470  11.548  0.00  0.00    +0.000 OA
ATOM     41  H   UNL     1      -0.860  24.854  11.535  0.00  0.00    +0.000 HD
ENDBRANCH  35  40
ENDBRANCH  29  30
ENDBRANCH  27  29
ENDBRANCH   2  27
TORSDOF 12
ENDMDL
MODEL 9
REMARK VINA RESULT:      -5.9     27.596     29.625
REMARK  Name = 
REMARK  12 active torsions:
REMARK  status: ('A' for Active; 'I' for Inactive)
REMARK    1  A    between atoms: O_2  and  C_12
REMARK    2  A    between atoms: O_2  and  C_24
REMARK    3  A    between atoms: O_3  and  C_18
REMARK    4  A    between atoms: O_4  and  C_23
REMARK    5  A    between atoms: O_5  and  C_25
REMARK    6  A    between atoms: O_6  and  C_26
REMARK    7  A    between atoms: O_8  and  C_27
REMARK    8  A    between atoms: O_9  and  C_31
REMARK    9  A    between atoms: O_10  and  C_32
REMARK   10  A    between atoms: O_11  and  C_33
REMARK   11  A    between atoms: C_13  and  C_16
REMARK   12  A    between atoms: C_24  and  C_28
REMARK                            x       y       z     vdW  Elec       q    Type
REMARK                         _______ _______ _______ _____ _____    ______ ____
ROOT
ATOM      1  O   UNL     1       3.027  15.099   6.569  0.00  0.00    +0.000 OA
ATOM      2  C   UNL     1       2.110  12.933   7.327  0.00  0.00    +0.000 C 
ATOM      3  C   UNL     1       1.821  14.365   6.845  0.00  0.00    +0.000 C 
ATOM      4  C   UNL     1       2.837  12.186   6.209  0.00  0.00    +0.000 C 
ATOM      5  C   UNL     1       3.904  13.044   5.579  0.00  0.00    +0.000 A 
ATOM      6  C   UNL     1       3.932  14.429   5.788  0.00  0.00    +0.000 A 
ATOM      7  C   UNL     1       4.878  12.476   4.749  0.00  0.00    +0.000 A 
ATOM      8  C   UNL     1       4.935  15.217   5.221  0.00  0.00    +0.000 A 
ATOM      9  C   UNL     1       5.877  13.255   4.168  0.00  0.00    +0.000 A 
ATOM     10  C   UNL     1       5.899  14.622   4.414  0.00  0.00    +0.000 A 
ENDROOT
BRANCH   3  11
ATOM     11  C   UNL     1       0.992  15.142   7.859  0.00  0.00    +0.000 A 
ATOM     12  C   UNL     1      -0.022  14.486   8.583  0.00  0.00    +0.000 A 
ATOM     13  C   UNL     1       1.244  16.503   8.116  0.00  0.00    +0.000 A 
ATOM     14  C   UNL     1       0.491  17.180   9.071  0.00  0.00    +0.000 A 
ATOM     15  C   UNL     1      -0.772  15.179   9.536  0.00  0.00    +0.000 A 
ATOM     16  C   UNL     1      -0.514  16.524   9.778  0.00  0.00    +0.000 A 
BRANCH  14  17
ATOM     17  O   UNL     1       0.709  18.502   9.353  0.00  0.00    +0.000 OA
ATOM     18  H   UNL     1       1.522  18.572   9.882  0.00  0.00    +0.000 HD
ENDBRANCH  14  17
BRANCH  15  19
ATOM     19  O   UNL     1      -1.759  14.547  10.237  0.00  0.00    +0.000 OA
ATOM     20  H   UNL     1      -1.363  13.965  10.903  0.00  0.00    +0.000 HD
ENDBRANCH  15  19
BRANCH  16  21
ATOM     21  O   UNL     1      -1.234  17.220  10.709  0.00  0.00    +0.000 OA
ATOM     22  H   UNL     1      -1.997  17.578  10.216  0.00  0.00    +0.000 HD
ENDBRANCH  16  21
ENDBRANCH   3  11
BRANCH   7  23
ATOM     23  O   UNL     1       4.835  11.130   4.517  0.00  0.00    +0.000 OA
ATOM     24  H   UNL     1       5.738  10.774   4.567  0.00  0.00    +0.000 HD
ENDBRANCH   7  23
BRANCH  10  25
ATOM     25  O   UNL     1       6.891  15.354   3.833  0.00  0.00    +0.000 OA
ATOM     26  H   UNL     1       7.747  14.941   4.038  0.00  0.00    +0.000 HD
ENDBRANCH  10  25
BRANCH   2  27
ATOM     27  O   UNL     1       2.964  12.975   8.497  0.00  0.00    +0.000 OA
BRANCH  27  29
ATOM     28  O   UNL     1       4.210  11.185   9.212  0.00  0.00    +0.000 OA
ATOM     29  C   UNL     1       3.161  11.804   9.142  0.00  0.00    +0.000 C 
BRANCH  29  30
ATOM     30  C   UNL     1       1.884  11.338   9.738  0.00  0.00    +0.000 A 
ATOM     31  C   UNL     1       1.249  12.174  10.670  0.00  0.00    +0.000 A 
ATOM     32  C   UNL     1       1.309  10.105   9.385  0.00  0.00    +0.000 A 
ATOM     33  C   UNL     1       0.111   9.707   9.976  0.00  0.00    +0.000 A 
ATOM     34  C   UNL     1       0.057  11.760  11.251  0.00  0.00    +0.000 A 
ATOM     35  C   UNL     1      -0.509  10.531  10.911  0.00  0.00    +0.000 A 
BRANCH  33  36
ATOM     36  O   UNL     1      -0.460   8.511   9.646  0.00  0.00    +0.000 OA
ATOM     37  H   UNL     1      -0.916   8.144  10.418  0.00  0.00    +0.000 HD
ENDBRANCH  33  36
BRANCH  34  38
ATOM     38  O   UNL     1      -0.602  12.531  12.169  0.00  0.00    +0.000 OA
ATOM     39  H   UNL     1      -0.118  13.370  12.276  0.00  0.00    +0.000 HD
ENDBRANCH  34  38
BRANCH  35  40
ATOM     40  O   UNL     1      -1.684  10.155  11.503  0.00  0.00    +0.000 OA
ATOM     41  H   UNL     1      -1.455   9.992  12.438  0.00  0.00    +0.000 HD
ENDBRANCH  35  40
ENDBRANCH  29  30
ENDBRANCH  27  29
ENDBRANCH   2  27
TORSDOF 12
ENDMDL
