MODEL 1
REMARK VINA RESULT:      -6.3      0.000      0.000
REMARK  Name = Estradiol.pdbqt.pdb
REMARK  2 active torsions:
REMARK  status: ('A' for Active; 'I' for Inactive)
REMARK    1  A    between atoms: C_5  and  O_19
REMARK    2  A    between atoms: C_18  and  O_21
REMARK                            x       y       z     vdW  Elec       q    Type
REMARK                         _______ _______ _______ _____ _____    ______ ____
ROOT
ATOM      1  C   UNL     1      19.374  27.902   2.933  0.00  0.00    +0.000 C 
ATOM      2  C   UNL     1      20.457  26.781   2.550  0.00  0.00    +0.000 C 
ATOM      3  C   UNL     1      21.754  26.697   3.238  0.00  0.00    +0.000 A 
ATOM      4  C   UNL     1      22.148  27.432   4.501  0.00  0.00    +0.000 A 
ATOM      5  C   UNL     1      18.054  27.102   2.966  0.00  0.00    +0.000 C 
ATOM      6  C   UNL     1      19.782  28.429   4.236  0.00  0.00    +0.000 C 
ATOM      7  C   UNL     1      19.729  25.585   2.245  0.00  0.00    +0.000 C 
ATOM      8  C   UNL     1      21.087  28.245   4.974  0.00  0.00    +0.000 C 
ATOM      9  C   UNL     1      18.260  25.766   2.529  0.00  0.00    +0.000 C 
ATOM     10  C   UNL     1      22.795  25.845   2.788  0.00  0.00    +0.000 A 
ATOM     11  C   UNL     1      19.339  28.968   1.807  0.00  0.00    +0.000 C 
ATOM     12  C   UNL     1      23.488  27.311   5.168  0.00  0.00    +0.000 A 
ATOM     13  C   UNL     1      24.136  25.716   3.469  0.00  0.00    +0.000 A 
ATOM     14  C   UNL     1      24.492  26.442   4.642  0.00  0.00    +0.000 A 
ATOM     15  C   UNL     1      23.786  28.048   6.314  0.00  0.00    +0.000 A 
ATOM     16  C   UNL     1      25.740  26.323   5.238  0.00  0.00    +0.000 A 
ATOM     17  C   UNL     1      25.038  27.933   6.918  0.00  0.00    +0.000 A 
ATOM     18  C   UNL     1      25.998  27.077   6.377  0.00  0.00    +0.000 A 
ENDROOT
BRANCH   5  19
ATOM     19  O   UNL     1      16.977  27.468   3.744  0.00  0.00    +0.000 OA
ATOM     20  H   UNL     1      16.606  28.324   3.466  0.00  0.00    +0.000 HD
ENDBRANCH   5  19
BRANCH  18  21
ATOM     21  O   UNL     1      27.228  26.962   6.960  0.00  0.00    +0.000 OA
ATOM     22  H   UNL     1      27.586  26.081   6.751  0.00  0.00    +0.000 HD
ENDBRANCH  18  21
TORSDOF 2
ENDMDL
MODEL 2
REMARK VINA RESULT:      -6.3     21.253     23.860
REMARK  Name = Estradiol.pdbqt.pdb
REMARK  2 active torsions:
REMARK  status: ('A' for Active; 'I' for Inactive)
REMARK    1  A    between atoms: C_5  and  O_19
REMARK    2  A    between atoms: C_18  and  O_21
REMARK                            x       y       z     vdW  Elec       q    Type
REMARK                         _______ _______ _______ _____ _____    ______ ____
ROOT
ATOM      1  C   UNL     1       1.610  31.751  12.460  0.00  0.00    +0.000 C 
ATOM      2  C   UNL     1       1.655  31.105  13.929  0.00  0.00    +0.000 C 
ATOM      3  C   UNL     1       1.052  29.793  14.210  0.00  0.00    +0.000 A 
ATOM      4  C   UNL     1       0.556  28.795  13.186  0.00  0.00    +0.000 A 
ATOM      5  C   UNL     1       3.046  32.290  12.282  0.00  0.00    +0.000 C 
ATOM      6  C   UNL     1       1.268  30.659  11.548  0.00  0.00    +0.000 C 
ATOM      7  C   UNL     1       2.926  31.445  14.495  0.00  0.00    +0.000 C 
ATOM      8  C   UNL     1       0.745  29.278  11.866  0.00  0.00    +0.000 C 
ATOM      9  C   UNL     1       3.795  32.144  13.480  0.00  0.00    +0.000 C 
ATOM     10  C   UNL     1       0.910  29.293  15.531  0.00  0.00    +0.000 A 
ATOM     11  C   UNL     1       0.586  32.916  12.459  0.00  0.00    +0.000 C 
ATOM     12  C   UNL     1      -0.051  27.465  13.525  0.00  0.00    +0.000 A 
ATOM     13  C   UNL     1       0.311  27.950  15.867  0.00  0.00    +0.000 A 
ATOM     14  C   UNL     1      -0.175  27.041  14.883  0.00  0.00    +0.000 A 
ATOM     15  C   UNL     1      -0.515  26.613  12.522  0.00  0.00    +0.000 A 
ATOM     16  C   UNL     1      -0.742  25.819  15.218  0.00  0.00    +0.000 A 
ATOM     17  C   UNL     1      -1.086  25.384  12.851  0.00  0.00    +0.000 A 
ATOM     18  C   UNL     1      -1.194  25.001  14.189  0.00  0.00    +0.000 A 
ENDROOT
BRANCH   5  19
ATOM     19  O   UNL     1       3.644  32.430  11.049  0.00  0.00    +0.000 OA
ATOM     20  H   UNL     1       3.984  33.333  10.914  0.00  0.00    +0.000 HD
ENDBRANCH   5  19
BRANCH  18  21
ATOM     21  O   UNL     1      -1.756  23.801  14.520  0.00  0.00    +0.000 OA
ATOM     22  H   UNL     1      -1.641  23.661  15.477  0.00  0.00    +0.000 HD
ENDBRANCH  18  21
TORSDOF 2
ENDMDL
MODEL 3
REMARK VINA RESULT:      -6.2     21.075     24.035
REMARK  Name = Estradiol.pdbqt.pdb
REMARK  2 active torsions:
REMARK  status: ('A' for Active; 'I' for Inactive)
REMARK    1  A    between atoms: C_5  and  O_19
REMARK    2  A    between atoms: C_18  and  O_21
REMARK                            x       y       z     vdW  Elec       q    Type
REMARK                         _______ _______ _______ _____ _____    ______ ____
ROOT
ATOM      1  C   UNL     1      -1.757  27.590  15.596  0.00  0.00    +0.000 C 
ATOM      2  C   UNL     1      -1.254  27.566  14.071  0.00  0.00    +0.000 C 
ATOM      3  C   UNL     1      -0.209  28.485  13.592  0.00  0.00    +0.000 A 
ATOM      4  C   UNL     1       0.680  29.358  14.451  0.00  0.00    +0.000 A 
ATOM      5  C   UNL     1      -1.828  26.090  15.953  0.00  0.00    +0.000 C 
ATOM      6  C   UNL     1      -0.741  28.332  16.345  0.00  0.00    +0.000 C 
ATOM      7  C   UNL     1      -1.249  26.195  13.656  0.00  0.00    +0.000 C 
ATOM      8  C   UNL     1       0.389  29.189  15.828  0.00  0.00    +0.000 C 
ATOM      9  C   UNL     1      -1.569  25.284  14.813  0.00  0.00    +0.000 C 
ATOM     10  C   UNL     1       0.111  28.613  12.216  0.00  0.00    +0.000 A 
ATOM     11  C   UNL     1      -3.168  28.231  15.646  0.00  0.00    +0.000 C 
ATOM     12  C   UNL     1       1.736  30.279  13.912  0.00  0.00    +0.000 A 
ATOM     13  C   UNL     1       1.182  29.530  11.679  0.00  0.00    +0.000 A 
ATOM     14  C   UNL     1       1.987  30.364  12.508  0.00  0.00    +0.000 A 
ATOM     15  C   UNL     1       2.494  31.078  14.768  0.00  0.00    +0.000 A 
ATOM     16  C   UNL     1       2.952  31.216  11.989  0.00  0.00    +0.000 A 
ATOM     17  C   UNL     1       3.465  31.936  14.253  0.00  0.00    +0.000 A 
ATOM     18  C   UNL     1       3.684  31.998  12.876  0.00  0.00    +0.000 A 
ENDROOT
BRANCH   5  19
ATOM     19  O   UNL     1      -1.678  25.620  17.240  0.00  0.00    +0.000 OA
ATOM     20  H   UNL     1      -2.364  24.967  17.467  0.00  0.00    +0.000 HD
ENDBRANCH   5  19
BRANCH  18  21
ATOM     21  O   UNL     1       4.630  32.839  12.364  0.00  0.00    +0.000 OA
ATOM     22  H   UNL     1       4.176  33.579  11.923  0.00  0.00    +0.000 HD
ENDBRANCH  18  21
TORSDOF 2
ENDMDL
MODEL 4
REMARK VINA RESULT:      -6.1     17.357     20.331
REMARK  Name = Estradiol.pdbqt.pdb
REMARK  2 active torsions:
REMARK  status: ('A' for Active; 'I' for Inactive)
REMARK    1  A    between atoms: C_5  and  O_19
REMARK    2  A    between atoms: C_18  and  O_21
REMARK                            x       y       z     vdW  Elec       q    Type
REMARK                         _______ _______ _______ _____ _____    ______ ____
ROOT
ATOM      1  C   UNL     1      29.224  11.536  18.658  0.00  0.00    +0.000 C 
ATOM      2  C   UNL     1      29.305  13.129  18.841  0.00  0.00    +0.000 C 
ATOM      3  C   UNL     1      29.225  14.041  17.689  0.00  0.00    +0.000 A 
ATOM      4  C   UNL     1      28.823  13.669  16.278  0.00  0.00    +0.000 A 
ATOM      5  C   UNL     1      28.272  11.111  19.796  0.00  0.00    +0.000 C 
ATOM      6  C   UNL     1      28.684  11.311  17.316  0.00  0.00    +0.000 C 
ATOM      7  C   UNL     1      28.611  13.445  20.054  0.00  0.00    +0.000 C 
ATOM      8  C   UNL     1      28.515  12.289  16.179  0.00  0.00    +0.000 C 
ATOM      9  C   UNL     1      27.949  12.217  20.627  0.00  0.00    +0.000 C 
ATOM     10  C   UNL     1      29.486  15.430  17.805  0.00  0.00    +0.000 A 
ATOM     11  C   UNL     1      30.637  10.936  18.875  0.00  0.00    +0.000 C 
ATOM     12  C   UNL     1      28.755  14.640  15.135  0.00  0.00    +0.000 A 
ATOM     13  C   UNL     1      29.404  16.405  16.657  0.00  0.00    +0.000 A 
ATOM     14  C   UNL     1      29.050  16.024  15.330  0.00  0.00    +0.000 A 
ATOM     15  C   UNL     1      28.406  14.213  13.854  0.00  0.00    +0.000 A 
ATOM     16  C   UNL     1      29.002  16.935  14.284  0.00  0.00    +0.000 A 
ATOM     17  C   UNL     1      28.355  15.124  12.798  0.00  0.00    +0.000 A 
ATOM     18  C   UNL     1      28.653  16.469  13.022  0.00  0.00    +0.000 A 
ENDROOT
BRANCH   5  19
ATOM     19  O   UNL     1      27.485   9.981  19.731  0.00  0.00    +0.000 OA
ATOM     20  H   UNL     1      27.641   9.480  18.911  0.00  0.00    +0.000 HD
ENDBRANCH   5  19
BRANCH  18  21
ATOM     21  O   UNL     1      28.610  17.366  11.993  0.00  0.00    +0.000 OA
ATOM     22  H   UNL     1      29.522  17.536  11.696  0.00  0.00    +0.000 HD
ENDBRANCH  18  21
TORSDOF 2
ENDMDL
MODEL 5
REMARK VINA RESULT:      -5.8     21.264     24.176
REMARK  Name = Estradiol.pdbqt.pdb
REMARK  2 active torsions:
REMARK  status: ('A' for Active; 'I' for Inactive)
REMARK    1  A    between atoms: C_5  and  O_19
REMARK    2  A    between atoms: C_18  and  O_21
REMARK                            x       y       z     vdW  Elec       q    Type
REMARK                         _______ _______ _______ _____ _____    ______ ____
ROOT
ATOM      1  C   UNL     1      -1.342  26.217  14.403  0.00  0.00    +0.000 C 
ATOM      2  C   UNL     1      -0.521  27.320  15.232  0.00  0.00    +0.000 C 
ATOM      3  C   UNL     1       0.285  28.348  14.554  0.00  0.00    +0.000 A 
ATOM      4  C   UNL     1       0.266  28.673  13.076  0.00  0.00    +0.000 A 
ATOM      5  C   UNL     1      -2.701  26.185  15.134  0.00  0.00    +0.000 C 
ATOM      6  C   UNL     1      -1.418  26.717  13.029  0.00  0.00    +0.000 C 
ATOM      7  C   UNL     1      -1.321  27.669  16.367  0.00  0.00    +0.000 C 
ATOM      8  C   UNL     1      -0.653  27.846  12.381  0.00  0.00    +0.000 C 
ATOM      9  C   UNL     1      -2.671  27.001  16.296  0.00  0.00    +0.000 C 
ATOM     10  C   UNL     1       1.166  29.205  15.262  0.00  0.00    +0.000 A 
ATOM     11  C   UNL     1      -0.618  24.852  14.535  0.00  0.00    +0.000 C 
ATOM     12  C   UNL     1       1.107  29.736  12.433  0.00  0.00    +0.000 A 
ATOM     13  C   UNL     1       2.001  30.282  14.614  0.00  0.00    +0.000 A 
ATOM     14  C   UNL     1       1.985  30.548  13.214  0.00  0.00    +0.000 A 
ATOM     15  C   UNL     1       1.056  29.953  11.056  0.00  0.00    +0.000 A 
ATOM     16  C   UNL     1       2.779  31.530  12.637  0.00  0.00    +0.000 A 
ATOM     17  C   UNL     1       1.851  30.938  10.470  0.00  0.00    +0.000 A 
ATOM     18  C   UNL     1       2.701  31.713  11.261  0.00  0.00    +0.000 A 
ENDROOT
BRANCH   5  19
ATOM     19  O   UNL     1      -3.878  25.828  14.512  0.00  0.00    +0.000 OA
ATOM     20  H   UNL     1      -4.335  25.112  14.988  0.00  0.00    +0.000 HD
ENDBRANCH   5  19
BRANCH  18  21
ATOM     21  O   UNL     1       3.485  32.676  10.694  0.00  0.00    +0.000 OA
ATOM     22  H   UNL     1       2.942  33.472  10.555  0.00  0.00    +0.000 HD
ENDBRANCH  18  21
TORSDOF 2
ENDMDL
MODEL 6
REMARK VINA RESULT:      -5.8     23.477     25.685
REMARK  Name = Estradiol.pdbqt.pdb
REMARK  2 active torsions:
REMARK  status: ('A' for Active; 'I' for Inactive)
REMARK    1  A    between atoms: C_5  and  O_19
REMARK    2  A    between atoms: C_18  and  O_21
REMARK                            x       y       z     vdW  Elec       q    Type
REMARK                         _______ _______ _______ _____ _____    ______ ____
ROOT
ATOM      1  C   UNL     1      23.567  17.111  26.018  0.00  0.00    +0.000 C 
ATOM      2  C   UNL     1      23.000  15.850  26.834  0.00  0.00    +0.000 C 
ATOM      3  C   UNL     1      23.219  14.472  26.370  0.00  0.00    +0.000 A 
ATOM      4  C   UNL     1      24.165  14.035  25.271  0.00  0.00    +0.000 A 
ATOM      5  C   UNL     1      24.148  18.005  27.134  0.00  0.00    +0.000 C 
ATOM      6  C   UNL     1      24.573  16.578  25.099  0.00  0.00    +0.000 C 
ATOM      7  C   UNL     1      23.123  16.166  28.226  0.00  0.00    +0.000 C 
ATOM      8  C   UNL     1      24.849  15.144  24.714  0.00  0.00    +0.000 C 
ATOM      9  C   UNL     1      23.854  17.470  28.417  0.00  0.00    +0.000 C 
ATOM     10  C   UNL     1      22.568  13.361  26.965  0.00  0.00    +0.000 A 
ATOM     11  C   UNL     1      22.383  17.821  25.311  0.00  0.00    +0.000 C 
ATOM     12  C   UNL     1      24.355  12.612  24.835  0.00  0.00    +0.000 A 
ATOM     13  C   UNL     1      22.771  11.930  26.532  0.00  0.00    +0.000 A 
ATOM     14  C   UNL     1      23.647  11.549  25.475  0.00  0.00    +0.000 A 
ATOM     15  C   UNL     1      25.223  12.293  23.791  0.00  0.00    +0.000 A 
ATOM     16  C   UNL     1      23.802  10.227  25.080  0.00  0.00    +0.000 A 
ATOM     17  C   UNL     1      25.383  10.967  23.389  0.00  0.00    +0.000 A 
ATOM     18  C   UNL     1      24.674   9.951  24.034  0.00  0.00    +0.000 A 
ENDROOT
BRANCH   5  19
ATOM     19  O   UNL     1      25.184  18.889  26.921  0.00  0.00    +0.000 OA
ATOM     20  H   UNL     1      25.907  18.757  27.560  0.00  0.00    +0.000 HD
ENDBRANCH   5  19
BRANCH  18  21
ATOM     21  O   UNL     1      24.822   8.651  23.643  0.00  0.00    +0.000 OA
ATOM     22  H   UNL     1      24.168   8.464  22.946  0.00  0.00    +0.000 HD
ENDBRANCH  18  21
TORSDOF 2
ENDMDL
MODEL 7
REMARK VINA RESULT:      -5.6      1.842      2.516
REMARK  Name = Estradiol.pdbqt.pdb
REMARK  2 active torsions:
REMARK  status: ('A' for Active; 'I' for Inactive)
REMARK    1  A    between atoms: C_5  and  O_19
REMARK    2  A    between atoms: C_18  and  O_21
REMARK                            x       y       z     vdW  Elec       q    Type
REMARK                         _______ _______ _______ _____ _____    ______ ____
ROOT
ATOM      1  C   UNL     1      18.570  26.653   2.031  0.00  0.00    +0.000 C 
ATOM      2  C   UNL     1      20.075  26.160   2.298  0.00  0.00    +0.000 C 
ATOM      3  C   UNL     1      20.950  26.847   3.260  0.00  0.00    +0.000 A 
ATOM      4  C   UNL     1      20.526  27.890   4.272  0.00  0.00    +0.000 A 
ATOM      5  C   UNL     1      17.778  25.329   2.011  0.00  0.00    +0.000 C 
ATOM      6  C   UNL     1      18.229  27.533   3.151  0.00  0.00    +0.000 C 
ATOM      7  C   UNL     1      20.062  24.729   2.235  0.00  0.00    +0.000 C 
ATOM      8  C   UNL     1      19.134  28.146   4.192  0.00  0.00    +0.000 C 
ATOM      9  C   UNL     1      18.653  24.212   2.092  0.00  0.00    +0.000 C 
ATOM     10  C   UNL     1      22.333  26.552   3.369  0.00  0.00    +0.000 A 
ATOM     11  C   UNL     1      18.510  27.347   0.646  0.00  0.00    +0.000 C 
ATOM     12  C   UNL     1      21.460  28.562   5.236  0.00  0.00    +0.000 A 
ATOM     13  C   UNL     1      23.266  27.219   4.348  0.00  0.00    +0.000 A 
ATOM     14  C   UNL     1      22.846  28.221   5.272  0.00  0.00    +0.000 A 
ATOM     15  C   UNL     1      20.997  29.539   6.117  0.00  0.00    +0.000 A 
ATOM     16  C   UNL     1      23.728  28.836   6.150  0.00  0.00    +0.000 A 
ATOM     17  C   UNL     1      21.878  30.162   7.002  0.00  0.00    +0.000 A 
ATOM     18  C   UNL     1      23.228  29.807   7.009  0.00  0.00    +0.000 A 
ENDROOT
BRANCH   5  19
ATOM     19  O   UNL     1      16.445  25.249   2.353  0.00  0.00    +0.000 OA
ATOM     20  H   UNL     1      15.939  26.009   2.011  0.00  0.00    +0.000 HD
ENDBRANCH   5  19
BRANCH  18  21
ATOM     21  O   UNL     1      24.097  30.416   7.869  0.00  0.00    +0.000 OA
ATOM     22  H   UNL     1      24.627  31.059   7.366  0.00  0.00    +0.000 HD
ENDBRANCH  18  21
TORSDOF 2
ENDMDL
MODEL 8
REMARK VINA RESULT:      -5.3     25.647     28.453
REMARK  Name = Estradiol.pdbqt.pdb
REMARK  2 active torsions:
REMARK  status: ('A' for Active; 'I' for Inactive)
REMARK    1  A    between atoms: C_5  and  O_19
REMARK    2  A    between atoms: C_18  and  O_21
REMARK                            x       y       z     vdW  Elec       q    Type
REMARK                         _______ _______ _______ _____ _____    ______ ____
ROOT
ATOM      1  C   UNL     1      -5.335  25.761  19.221  0.00  0.00    +0.000 C 
ATOM      2  C   UNL     1      -4.473  24.850  18.218  0.00  0.00    +0.000 C 
ATOM      3  C   UNL     1      -3.336  25.401  17.464  0.00  0.00    +0.000 A 
ATOM      4  C   UNL     1      -2.678  26.745  17.689  0.00  0.00    +0.000 A 
ATOM      5  C   UNL     1      -5.503  24.845  20.451  0.00  0.00    +0.000 C 
ATOM      6  C   UNL     1      -4.528  26.956  19.475  0.00  0.00    +0.000 C 
ATOM      7  C   UNL     1      -4.377  23.551  18.813  0.00  0.00    +0.000 C 
ATOM      8  C   UNL     1      -3.299  27.449  18.751  0.00  0.00    +0.000 C 
ATOM      9  C   UNL     1      -4.978  23.550  20.196  0.00  0.00    +0.000 C 
ATOM     10  C   UNL     1      -2.686  24.671  16.435  0.00  0.00    +0.000 A 
ATOM     11  C   UNL     1      -6.710  26.057  18.569  0.00  0.00    +0.000 C 
ATOM     12  C   UNL     1      -1.514  27.261  16.892  0.00  0.00    +0.000 A 
ATOM     13  C   UNL     1      -1.509  25.188  15.646  0.00  0.00    +0.000 A 
ATOM     14  C   UNL     1      -0.926  26.471  15.858  0.00  0.00    +0.000 A 
ATOM     15  C   UNL     1      -0.984  28.527  17.139  0.00  0.00    +0.000 A 
ATOM     16  C   UNL     1       0.144  26.933  15.104  0.00  0.00    +0.000 A 
ATOM     17  C   UNL     1       0.091  28.998  16.385  0.00  0.00    +0.000 A 
ATOM     18  C   UNL     1       0.641  28.202  15.379  0.00  0.00    +0.000 A 
ENDROOT
BRANCH   5  19
ATOM     19  O   UNL     1      -5.677  25.332  21.729  0.00  0.00    +0.000 OA
ATOM     20  H   UNL     1      -5.384  24.692  22.402  0.00  0.00    +0.000 HD
ENDBRANCH   5  19
BRANCH  18  21
ATOM     21  O   UNL     1       1.691  28.658  14.633  0.00  0.00    +0.000 OA
ATOM     22  H   UNL     1       2.411  28.004  14.685  0.00  0.00    +0.000 HD
ENDBRANCH  18  21
TORSDOF 2
ENDMDL
MODEL 9
REMARK VINA RESULT:      -5.2     35.088     36.180
REMARK  Name = Estradiol.pdbqt.pdb
REMARK  2 active torsions:
REMARK  status: ('A' for Active; 'I' for Inactive)
REMARK    1  A    between atoms: C_5  and  O_19
REMARK    2  A    between atoms: C_18  and  O_21
REMARK                            x       y       z     vdW  Elec       q    Type
REMARK                         _______ _______ _______ _____ _____    ______ ____
ROOT
ATOM      1  C   UNL     1       4.793   4.432  26.667  0.00  0.00    +0.000 C 
ATOM      2  C   UNL     1       5.763   3.153  26.612  0.00  0.00    +0.000 C 
ATOM      3  C   UNL     1       5.855   2.309  25.410  0.00  0.00    +0.000 A 
ATOM      4  C   UNL     1       5.292   2.632  24.043  0.00  0.00    +0.000 A 
ATOM      5  C   UNL     1       5.681   5.503  27.333  0.00  0.00    +0.000 C 
ATOM      6  C   UNL     1       4.440   4.731  25.279  0.00  0.00    +0.000 C 
ATOM      7  C   UNL     1       6.948   3.498  27.338  0.00  0.00    +0.000 C 
ATOM      8  C   UNL     1       4.638   3.889  24.041  0.00  0.00    +0.000 C 
ATOM      9  C   UNL     1       6.918   4.947  27.755  0.00  0.00    +0.000 C 
ATOM     10  C   UNL     1       6.553   1.074  25.406  0.00  0.00    +0.000 A 
ATOM     11  C   UNL     1       3.575   4.095  27.567  0.00  0.00    +0.000 C 
ATOM     12  C   UNL     1       5.415   1.736  22.844  0.00  0.00    +0.000 A 
ATOM     13  C   UNL     1       6.686   0.183  24.196  0.00  0.00    +0.000 A 
ATOM     14  C   UNL     1       6.121   0.497  22.926  0.00  0.00    +0.000 A 
ATOM     15  C   UNL     1       4.839   2.090  21.624  0.00  0.00    +0.000 A 
ATOM     16  C   UNL     1       6.238  -0.350  21.832  0.00  0.00    +0.000 A 
ATOM     17  C   UNL     1       4.953   1.243  20.521  0.00  0.00    +0.000 A 
ATOM     18  C   UNL     1       5.648   0.037  20.635  0.00  0.00    +0.000 A 
ENDROOT
BRANCH   5  19
ATOM     19  O   UNL     1       5.515   6.854  27.115  0.00  0.00    +0.000 OA
ATOM     20  H   UNL     1       5.027   7.279  27.843  0.00  0.00    +0.000 HD
ENDBRANCH   5  19
BRANCH  18  21
ATOM     21  O   UNL     1       5.760  -0.799  19.561  0.00  0.00    +0.000 OA
ATOM     22  H   UNL     1       5.364  -1.656  19.797  0.00  0.00    +0.000 HD
ENDBRANCH  18  21
TORSDOF 2
ENDMDL
