MODEL 1
REMARK VINA RESULT:      -6.5      0.000      0.000
REMARK  Name = 
REMARK  11 active torsions:
REMARK  status: ('A' for Active; 'I' for Inactive)
REMARK    1  A    between atoms: O_1  and  C_16
REMARK    2  A    between atoms: O_1  and  C_22
REMARK    3  A    between atoms: O_6  and  C_24
REMARK    4  A    between atoms: O_8  and  C_26
REMARK    5  A    between atoms: O_11  and  C_36
REMARK    6  A    between atoms: O_11  and  C_41
REMARK    7  A    between atoms: O_12  and  C_37
REMARK    8  A    between atoms: O_12  and  C_42
REMARK    9  A    between atoms: O_13  and  C_39
REMARK   10  A    between atoms: C_17  and  C_23
REMARK   11  A    between atoms: C_35  and  C_40
REMARK                            x       y       z     vdW  Elec       q    Type
REMARK                         _______ _______ _______ _____ _____    ______ ____
ROOT
ATOM      1  O   UNL     1      13.455  22.257  29.681  0.00  0.00    +0.000 OA
ATOM      2  O   UNL     1      15.260  21.320  30.739  0.00  0.00    +0.000 OA
ATOM      3  O   UNL     1       8.491  18.261  35.171  0.00  0.00    +0.000 OA
ATOM      4  O   UNL     1      10.556  17.114  35.656  0.00  0.00    +0.000 OA
ATOM      5  C   UNL     1      11.751  21.146  30.790  0.00  0.00    +0.000 C 
ATOM      6  C   UNL     1      13.014  21.026  31.621  0.00  0.00    +0.000 C 
ATOM      7  C   UNL     1      10.521  21.143  31.689  0.00  0.00    +0.000 C 
ATOM      8  C   UNL     1      13.129  19.633  32.237  0.00  0.00    +0.000 C 
ATOM      9  C   UNL     1      10.607  20.022  32.723  0.00  0.00    +0.000 A 
ATOM     10  C   UNL     1      11.833  19.338  33.012  0.00  0.00    +0.000 A 
ATOM     11  C   UNL     1      12.057  22.387  29.989  0.00  0.00    +0.000 C 
ATOM     12  C   UNL     1      14.056  21.494  30.651  0.00  0.00    +0.000 C 
ATOM     13  C   UNL     1       9.442  19.684  33.439  0.00  0.00    +0.000 A 
ATOM     14  C   UNL     1      11.863  18.338  34.005  0.00  0.00    +0.000 A 
ATOM     15  C   UNL     1       9.521  18.699  34.400  0.00  0.00    +0.000 A 
ATOM     16  C   UNL     1      10.696  18.047  34.676  0.00  0.00    +0.000 A 
ATOM     17  C   UNL     1       9.154  17.254  35.964  0.00  0.00    +0.000 C 
ENDROOT
BRANCH   8  18
ATOM     18  C   UNL     1      13.507  18.522  31.254  0.00  0.00    +0.000 A 
ATOM     19  C   UNL     1      14.803  17.982  31.175  0.00  0.00    +0.000 A 
ATOM     20  C   UNL     1      12.523  18.002  30.396  0.00  0.00    +0.000 A 
ATOM     21  C   UNL     1      12.820  16.965  29.512  0.00  0.00    +0.000 A 
ATOM     22  C   UNL     1      15.130  16.953  30.280  0.00  0.00    +0.000 A 
ATOM     23  C   UNL     1      14.126  16.451  29.451  0.00  0.00    +0.000 A 
BRANCH  21  24
ATOM     24  O   UNL     1      11.927  16.372  28.649  0.00  0.00    +0.000 OA
ATOM     25  C   UNL     1      10.758  15.810  29.239  0.00  0.00    +0.000 C 
ENDBRANCH  21  24
BRANCH  22  26
ATOM     26  O   UNL     1      16.442  16.571  30.364  0.00  0.00    +0.000 OA
ATOM     27  C   UNL     1      17.340  17.419  31.065  0.00  0.00    +0.000 C 
ENDBRANCH  22  26
BRANCH  23  28
ATOM     28  O   UNL     1      14.360  15.436  28.558  0.00  0.00    +0.000 OA
ATOM     29  H   UNL     1      15.259  15.116  28.769  0.00  0.00    +0.000 HD
ENDBRANCH  23  28
ENDBRANCH   8  18
BRANCH   7  30
ATOM     30  O   UNL     1      10.463  22.369  32.419  0.00  0.00    +0.000 OA
BRANCH  30  34
ATOM     31  O   UNL     1       8.279  22.187  31.606  0.00  0.00    +0.000 OA
ATOM     32  O   UNL     1       5.873  24.688  30.389  0.00  0.00    +0.000 OA
ATOM     33  O   UNL     1       4.779  22.600  30.558  0.00  0.00    +0.000 OA
ATOM     34  C   UNL     1       9.192  23.023  32.319  0.00  0.00    +0.000 C 
ATOM     35  C   UNL     1       9.436  24.369  31.597  0.00  0.00    +0.000 C 
ATOM     36  C   UNL     1       7.153  24.075  30.579  0.00  0.00    +0.000 C 
ATOM     37  C   UNL     1       8.109  25.060  31.252  0.00  0.00    +0.000 C 
ATOM     38  C   UNL     1       7.016  22.828  31.447  0.00  0.00    +0.000 C 
ATOM     39  C   UNL     1       6.007  21.906  30.770  0.00  0.00    +0.000 C 
ATOM     40  C   UNL     1       4.971  23.770  29.763  0.00  0.00    +0.000 C 
ATOM     41  C   UNL     1       3.629  24.463  29.614  0.00  0.00    +0.000 C 
BRANCH  35  42
ATOM     42  O   UNL     1      10.228  25.220  32.442  0.00  0.00    +0.000 OA
ATOM     43  H   UNL     1      11.069  24.745  32.590  0.00  0.00    +0.000 HD
ENDBRANCH  35  42
BRANCH  37  44
ATOM     44  O   UNL     1       8.341  26.156  30.352  0.00  0.00    +0.000 OA
ATOM     45  H   UNL     1       7.557  26.195  29.770  0.00  0.00    +0.000 HD
ENDBRANCH  37  44
ENDBRANCH  30  34
ENDBRANCH   7  30
TORSDOF 8
ENDMDL
MODEL 2
REMARK VINA RESULT:      -6.5      8.905     15.798
REMARK  Name = 
REMARK  11 active torsions:
REMARK  status: ('A' for Active; 'I' for Inactive)
REMARK    1  A    between atoms: O_1  and  C_16
REMARK    2  A    between atoms: O_1  and  C_22
REMARK    3  A    between atoms: O_6  and  C_24
REMARK    4  A    between atoms: O_8  and  C_26
REMARK    5  A    between atoms: O_11  and  C_36
REMARK    6  A    between atoms: O_11  and  C_41
REMARK    7  A    between atoms: O_12  and  C_37
REMARK    8  A    between atoms: O_12  and  C_42
REMARK    9  A    between atoms: O_13  and  C_39
REMARK   10  A    between atoms: C_17  and  C_23
REMARK   11  A    between atoms: C_35  and  C_40
REMARK                            x       y       z     vdW  Elec       q    Type
REMARK                         _______ _______ _______ _____ _____    ______ ____
ROOT
ATOM      1  O   UNL     1      22.874  15.694  30.675  0.00  0.00    +0.000 OA
ATOM      2  O   UNL     1      23.570  17.662  31.622  0.00  0.00    +0.000 OA
ATOM      3  O   UNL     1      22.585  19.665  23.265  0.00  0.00    +0.000 OA
ATOM      4  O   UNL     1      22.825  21.593  24.694  0.00  0.00    +0.000 OA
ATOM      5  C   UNL     1      22.402  16.452  28.537  0.00  0.00    +0.000 C 
ATOM      6  C   UNL     1      23.298  17.472  29.214  0.00  0.00    +0.000 C 
ATOM      7  C   UNL     1      22.645  16.447  27.033  0.00  0.00    +0.000 C 
ATOM      8  C   UNL     1      22.864  18.895  28.862  0.00  0.00    +0.000 C 
ATOM      9  C   UNL     1      22.670  17.872  26.482  0.00  0.00    +0.000 A 
ATOM     10  C   UNL     1      22.812  19.019  27.330  0.00  0.00    +0.000 A 
ATOM     11  C   UNL     1      22.738  15.213  29.327  0.00  0.00    +0.000 C 
ATOM     12  C   UNL     1      23.246  17.015  30.640  0.00  0.00    +0.000 C 
ATOM     13  C   UNL     1      22.589  18.050  25.088  0.00  0.00    +0.000 A 
ATOM     14  C   UNL     1      22.869  20.309  26.764  0.00  0.00    +0.000 A 
ATOM     15  C   UNL     1      22.650  19.331  24.581  0.00  0.00    +0.000 A 
ATOM     16  C   UNL     1      22.787  20.427  25.395  0.00  0.00    +0.000 A 
ATOM     17  C   UNL     1      22.695  21.102  23.344  0.00  0.00    +0.000 C 
ENDROOT
BRANCH   8  18
ATOM     18  C   UNL     1      21.579  19.365  29.548  0.00  0.00    +0.000 A 
ATOM     19  C   UNL     1      20.440  18.550  29.677  0.00  0.00    +0.000 A 
ATOM     20  C   UNL     1      21.526  20.661  30.088  0.00  0.00    +0.000 A 
ATOM     21  C   UNL     1      20.386  21.114  30.753  0.00  0.00    +0.000 A 
ATOM     22  C   UNL     1      19.276  18.991  30.322  0.00  0.00    +0.000 A 
ATOM     23  C   UNL     1      19.261  20.278  30.858  0.00  0.00    +0.000 A 
BRANCH  21  24
ATOM     24  O   UNL     1      20.241  22.352  31.334  0.00  0.00    +0.000 OA
ATOM     25  C   UNL     1      20.033  23.447  30.446  0.00  0.00    +0.000 C 
ENDBRANCH  21  24
BRANCH  22  26
ATOM     26  O   UNL     1      18.286  18.045  30.340  0.00  0.00    +0.000 OA
ATOM     27  C   UNL     1      18.075  17.324  31.545  0.00  0.00    +0.000 C 
ENDBRANCH  22  26
BRANCH  23  28
ATOM     28  O   UNL     1      18.166  20.780  31.517  0.00  0.00    +0.000 OA
ATOM     29  H   UNL     1      17.492  20.076  31.457  0.00  0.00    +0.000 HD
ENDBRANCH  23  28
ENDBRANCH   8  18
BRANCH   7  30
ATOM     30  O   UNL     1      23.927  15.881  26.761  0.00  0.00    +0.000 OA
BRANCH  30  34
ATOM     31  O   UNL     1      23.804  13.547  26.738  0.00  0.00    +0.000 OA
ATOM     32  O   UNL     1      25.080  11.022  24.387  0.00  0.00    +0.000 OA
ATOM     33  O   UNL     1      23.690   9.953  25.971  0.00  0.00    +0.000 OA
ATOM     34  C   UNL     1      23.862  14.720  25.924  0.00  0.00    +0.000 C 
ATOM     35  C   UNL     1      25.120  14.744  25.025  0.00  0.00    +0.000 C 
ATOM     36  C   UNL     1      25.090  12.230  25.156  0.00  0.00    +0.000 C 
ATOM     37  C   UNL     1      25.258  13.436  24.232  0.00  0.00    +0.000 C 
ATOM     38  C   UNL     1      23.786  12.368  25.937  0.00  0.00    +0.000 C 
ATOM     39  C   UNL     1      23.629  11.117  26.794  0.00  0.00    +0.000 C 
ATOM     40  C   UNL     1      24.918   9.890  25.246  0.00  0.00    +0.000 C 
ATOM     41  C   UNL     1      24.886   8.646  24.376  0.00  0.00    +0.000 C 
BRANCH  35  42
ATOM     42  O   UNL     1      25.032  15.859  24.122  0.00  0.00    +0.000 OA
ATOM     43  H   UNL     1      24.565  16.565  24.611  0.00  0.00    +0.000 HD
ENDBRANCH  35  42
BRANCH  37  44
ATOM     44  O   UNL     1      26.557  13.363  23.620  0.00  0.00    +0.000 OA
ATOM     45  H   UNL     1      26.482  13.843  22.774  0.00  0.00    +0.000 HD
ENDBRANCH  37  44
ENDBRANCH  30  34
ENDBRANCH   7  30
TORSDOF 8
ENDMDL
MODEL 3
REMARK VINA RESULT:      -6.4     20.183     25.457
REMARK  Name = 
REMARK  11 active torsions:
REMARK  status: ('A' for Active; 'I' for Inactive)
REMARK    1  A    between atoms: O_1  and  C_16
REMARK    2  A    between atoms: O_1  and  C_22
REMARK    3  A    between atoms: O_6  and  C_24
REMARK    4  A    between atoms: O_8  and  C_26
REMARK    5  A    between atoms: O_11  and  C_36
REMARK    6  A    between atoms: O_11  and  C_41
REMARK    7  A    between atoms: O_12  and  C_37
REMARK    8  A    between atoms: O_12  and  C_42
REMARK    9  A    between atoms: O_13  and  C_39
REMARK   10  A    between atoms: C_17  and  C_23
REMARK   11  A    between atoms: C_35  and  C_40
REMARK                            x       y       z     vdW  Elec       q    Type
REMARK                         _______ _______ _______ _____ _____    ______ ____
ROOT
ATOM      1  O   UNL     1       2.070  32.216  13.441  0.00  0.00    +0.000 OA
ATOM      2  O   UNL     1       3.592  32.353  11.732  0.00  0.00    +0.000 OA
ATOM      3  O   UNL     1      -2.068  26.434   8.947  0.00  0.00    +0.000 OA
ATOM      4  O   UNL     1      -0.585  27.233   7.221  0.00  0.00    +0.000 OA
ATOM      5  C   UNL     1       0.508  30.825  12.444  0.00  0.00    +0.000 C 
ATOM      6  C   UNL     1       1.813  30.696  11.681  0.00  0.00    +0.000 C 
ATOM      7  C   UNL     1      -0.272  29.518  12.385  0.00  0.00    +0.000 C 
ATOM      8  C   UNL     1       1.556  30.599  10.177  0.00  0.00    +0.000 C 
ATOM      9  C   UNL     1      -0.316  28.975  10.957  0.00  0.00    +0.000 A 
ATOM     10  C   UNL     1       0.564  29.450   9.930  0.00  0.00    +0.000 A 
ATOM     11  C   UNL     1       1.011  31.306  13.782  0.00  0.00    +0.000 C 
ATOM     12  C   UNL     1       2.593  31.855  12.224  0.00  0.00    +0.000 C 
ATOM     13  C   UNL     1      -1.230  27.946  10.662  0.00  0.00    +0.000 A 
ATOM     14  C   UNL     1       0.507  28.885   8.639  0.00  0.00    +0.000 A 
ATOM     15  C   UNL     1      -1.248  27.425   9.386  0.00  0.00    +0.000 A 
ATOM     16  C   UNL     1      -0.404  27.880   8.404  0.00  0.00    +0.000 A 
ATOM     17  C   UNL     1      -1.644  26.319   7.572  0.00  0.00    +0.000 C 
ENDROOT
BRANCH   8  18
ATOM     18  C   UNL     1       1.136  31.911   9.509  0.00  0.00    +0.000 A 
ATOM     19  C   UNL     1      -0.106  32.525   9.749  0.00  0.00    +0.000 A 
ATOM     20  C   UNL     1       2.025  32.545   8.626  0.00  0.00    +0.000 A 
ATOM     21  C   UNL     1       1.693  33.760   8.025  0.00  0.00    +0.000 A 
ATOM     22  C   UNL     1      -0.471  33.735   9.141  0.00  0.00    +0.000 A 
ATOM     23  C   UNL     1       0.441  34.345   8.279  0.00  0.00    +0.000 A 
BRANCH  21  24
ATOM     24  O   UNL     1       2.498  34.472   7.166  0.00  0.00    +0.000 OA
ATOM     25  C   UNL     1       3.208  33.712   6.191  0.00  0.00    +0.000 C 
ENDBRANCH  21  24
BRANCH  22  26
ATOM     26  O   UNL     1      -1.718  34.162   9.509  0.00  0.00    +0.000 OA
ATOM     27  C   UNL     1      -2.655  33.187   9.944  0.00  0.00    +0.000 C 
ENDBRANCH  22  26
BRANCH  23  28
ATOM     28  O   UNL     1       0.167  35.537   7.655  0.00  0.00    +0.000 OA
ATOM     29  H   UNL     1       0.301  35.360   6.704  0.00  0.00    +0.000 HD
ENDBRANCH  23  28
ENDBRANCH   8  18
BRANCH   7  30
ATOM     30  O   UNL     1       0.391  28.532  13.177  0.00  0.00    +0.000 OA
BRANCH  30  34
ATOM     31  O   UNL     1      -1.584  28.878  14.379  0.00  0.00    +0.000 OA
ATOM     32  O   UNL     1      -2.349  28.748  17.974  0.00  0.00    +0.000 OA
ATOM     33  O   UNL     1      -4.371  28.985  16.774  0.00  0.00    +0.000 OA
ATOM     34  C   UNL     1      -0.350  28.158  14.345  0.00  0.00    +0.000 C 
ATOM     35  C   UNL     1       0.545  28.477  15.565  0.00  0.00    +0.000 C 
ATOM     36  C   UNL     1      -1.577  29.027  16.801  0.00  0.00    +0.000 C 
ATOM     37  C   UNL     1      -0.230  28.309  16.880  0.00  0.00    +0.000 C 
ATOM     38  C   UNL     1      -2.326  28.566  15.555  0.00  0.00    +0.000 C 
ATOM     39  C   UNL     1      -3.685  29.257  15.553  0.00  0.00    +0.000 C 
ATOM     40  C   UNL     1      -3.614  29.414  17.906  0.00  0.00    +0.000 C 
ATOM     41  C   UNL     1      -4.396  29.060  19.157  0.00  0.00    +0.000 C 
BRANCH  35  42
ATOM     42  O   UNL     1       1.687  27.604  15.552  0.00  0.00    +0.000 OA
ATOM     43  H   UNL     1       2.377  28.055  16.075  0.00  0.00    +0.000 HD
ENDBRANCH  35  42
BRANCH  37  44
ATOM     44  O   UNL     1       0.520  28.866  17.971  0.00  0.00    +0.000 OA
ATOM     45  H   UNL     1       1.311  28.302  18.069  0.00  0.00    +0.000 HD
ENDBRANCH  37  44
ENDBRANCH  30  34
ENDBRANCH   7  30
TORSDOF 8
ENDMDL
MODEL 4
REMARK VINA RESULT:      -6.3     20.193     25.503
REMARK  Name = 
REMARK  11 active torsions:
REMARK  status: ('A' for Active; 'I' for Inactive)
REMARK    1  A    between atoms: O_1  and  C_16
REMARK    2  A    between atoms: O_1  and  C_22
REMARK    3  A    between atoms: O_6  and  C_24
REMARK    4  A    between atoms: O_8  and  C_26
REMARK    5  A    between atoms: O_11  and  C_36
REMARK    6  A    between atoms: O_11  and  C_41
REMARK    7  A    between atoms: O_12  and  C_37
REMARK    8  A    between atoms: O_12  and  C_42
REMARK    9  A    between atoms: O_13  and  C_39
REMARK   10  A    between atoms: C_17  and  C_23
REMARK   11  A    between atoms: C_35  and  C_40
REMARK                            x       y       z     vdW  Elec       q    Type
REMARK                         _______ _______ _______ _____ _____    ______ ____
ROOT
ATOM      1  O   UNL     1       1.999  32.269  13.161  0.00  0.00    +0.000 OA
ATOM      2  O   UNL     1       3.451  32.331  11.387  0.00  0.00    +0.000 OA
ATOM      3  O   UNL     1      -2.243  26.217   9.145  0.00  0.00    +0.000 OA
ATOM      4  O   UNL     1      -0.839  26.939   7.322  0.00  0.00    +0.000 OA
ATOM      5  C   UNL     1       0.417  30.812  12.301  0.00  0.00    +0.000 C 
ATOM      6  C   UNL     1       1.691  30.656  11.494  0.00  0.00    +0.000 C 
ATOM      7  C   UNL     1      -0.350  29.496  12.342  0.00  0.00    +0.000 C 
ATOM      8  C   UNL     1       1.376  30.478  10.009  0.00  0.00    +0.000 C 
ATOM      9  C   UNL     1      -0.443  28.878  10.948  0.00  0.00    +0.000 A 
ATOM     10  C   UNL     1       0.389  29.307   9.862  0.00  0.00    +0.000 A 
ATOM     11  C   UNL     1       0.966  31.368  13.591  0.00  0.00    +0.000 C 
ATOM     12  C   UNL     1       2.478  31.850  11.944  0.00  0.00    +0.000 C 
ATOM     13  C   UNL     1      -1.356  27.825  10.744  0.00  0.00    +0.000 A 
ATOM     14  C   UNL     1       0.288  28.674   8.606  0.00  0.00    +0.000 A 
ATOM     15  C   UNL     1      -1.418  27.238   9.498  0.00  0.00    +0.000 A 
ATOM     16  C   UNL     1      -0.619  27.649   8.461  0.00  0.00    +0.000 A 
ATOM     17  C   UNL     1      -1.872  26.033   7.763  0.00  0.00    +0.000 C 
ENDROOT
BRANCH   8  18
ATOM     18  C   UNL     1       0.914  31.747   9.291  0.00  0.00    +0.000 A 
ATOM     19  C   UNL     1       1.719  32.438   8.368  0.00  0.00    +0.000 A 
ATOM     20  C   UNL     1      -0.374  32.249   9.546  0.00  0.00    +0.000 A 
ATOM     21  C   UNL     1      -0.845  33.383   8.883  0.00  0.00    +0.000 A 
ATOM     22  C   UNL     1       1.276  33.592   7.706  0.00  0.00    +0.000 A 
ATOM     23  C   UNL     1      -0.013  34.055   7.972  0.00  0.00    +0.000 A 
BRANCH  21  24
ATOM     24  O   UNL     1      -2.093  33.939   9.044  0.00  0.00    +0.000 OA
ATOM     25  C   UNL     1      -3.193  33.171   8.562  0.00  0.00    +0.000 C 
ENDBRANCH  21  24
BRANCH  22  26
ATOM     26  O   UNL     1       2.211  34.108   6.849  0.00  0.00    +0.000 OA
ATOM     27  C   UNL     1       3.388  33.350   6.612  0.00  0.00    +0.000 C 
ENDBRANCH  22  26
BRANCH  23  28
ATOM     28  O   UNL     1      -0.529  35.168   7.355  0.00  0.00    +0.000 OA
ATOM     29  H   UNL     1      -0.462  34.979   6.399  0.00  0.00    +0.000 HD
ENDBRANCH  23  28
ENDBRANCH   8  18
BRANCH   7  30
ATOM     30  O   UNL     1       0.356  28.560  13.157  0.00  0.00    +0.000 OA
BRANCH  30  34
ATOM     31  O   UNL     1      -1.609  28.889  14.380  0.00  0.00    +0.000 OA
ATOM     32  O   UNL     1      -2.340  28.730  17.982  0.00  0.00    +0.000 OA
ATOM     33  O   UNL     1      -4.374  28.966  16.802  0.00  0.00    +0.000 OA
ATOM     34  C   UNL     1      -0.372  28.175  14.330  0.00  0.00    +0.000 C 
ATOM     35  C   UNL     1       0.533  28.489  15.543  0.00  0.00    +0.000 C 
ATOM     36  C   UNL     1      -1.580  29.021  16.804  0.00  0.00    +0.000 C 
ATOM     37  C   UNL     1      -0.229  28.308  16.864  0.00  0.00    +0.000 C 
ATOM     38  C   UNL     1      -2.339  28.565  15.561  0.00  0.00    +0.000 C 
ATOM     39  C   UNL     1      -3.701  29.250  15.577  0.00  0.00    +0.000 C 
ATOM     40  C   UNL     1      -3.608  29.390  17.929  0.00  0.00    +0.000 C 
ATOM     41  C   UNL     1      -4.377  29.023  19.186  0.00  0.00    +0.000 C 
BRANCH  35  42
ATOM     42  O   UNL     1       1.679  27.621  15.513  0.00  0.00    +0.000 OA
ATOM     43  H   UNL     1       1.335  26.717  15.647  0.00  0.00    +0.000 HD
ENDBRANCH  35  42
BRANCH  37  44
ATOM     44  O   UNL     1       0.529  28.861  17.953  0.00  0.00    +0.000 OA
ATOM     45  H   UNL     1       0.453  28.219  18.685  0.00  0.00    +0.000 HD
ENDBRANCH  37  44
ENDBRANCH  30  34
ENDBRANCH   7  30
TORSDOF 8
ENDMDL
MODEL 5
REMARK VINA RESULT:      -6.2      8.138     12.246
REMARK  Name = 
REMARK  11 active torsions:
REMARK  status: ('A' for Active; 'I' for Inactive)
REMARK    1  A    between atoms: O_1  and  C_16
REMARK    2  A    between atoms: O_1  and  C_22
REMARK    3  A    between atoms: O_6  and  C_24
REMARK    4  A    between atoms: O_8  and  C_26
REMARK    5  A    between atoms: O_11  and  C_36
REMARK    6  A    between atoms: O_11  and  C_41
REMARK    7  A    between atoms: O_12  and  C_37
REMARK    8  A    between atoms: O_12  and  C_42
REMARK    9  A    between atoms: O_13  and  C_39
REMARK   10  A    between atoms: C_17  and  C_23
REMARK   11  A    between atoms: C_35  and  C_40
REMARK                            x       y       z     vdW  Elec       q    Type
REMARK                         _______ _______ _______ _____ _____    ______ ____
ROOT
ATOM      1  O   UNL     1      14.984  27.806  31.035  0.00  0.00    +0.000 OA
ATOM      2  O   UNL     1      17.014  28.364  30.127  0.00  0.00    +0.000 OA
ATOM      3  O   UNL     1      11.418  33.362  25.822  0.00  0.00    +0.000 OA
ATOM      4  O   UNL     1      13.721  34.009  25.513  0.00  0.00    +0.000 OA
ATOM      5  C   UNL     1      13.656  29.393  29.992  0.00  0.00    +0.000 C 
ATOM      6  C   UNL     1      14.953  29.274  29.213  0.00  0.00    +0.000 C 
ATOM      7  C   UNL     1      12.512  29.775  29.062  0.00  0.00    +0.000 C 
ATOM      8  C   UNL     1      15.431  30.646  28.741  0.00  0.00    +0.000 C 
ATOM      9  C   UNL     1      12.918  30.929  28.146  0.00  0.00    +0.000 A 
ATOM     10  C   UNL     1      14.286  31.316  27.962  0.00  0.00    +0.000 A 
ATOM     11  C   UNL     1      13.614  28.049  30.675  0.00  0.00    +0.000 C 
ATOM     12  C   UNL     1      15.800  28.482  30.163  0.00  0.00    +0.000 C 
ATOM     13  C   UNL     1      11.908  31.603  27.433  0.00  0.00    +0.000 A 
ATOM     14  C   UNL     1      14.607  32.362  27.073  0.00  0.00    +0.000 A 
ATOM     15  C   UNL     1      12.272  32.619  26.576  0.00  0.00    +0.000 A 
ATOM     16  C   UNL     1      13.582  32.987  26.400  0.00  0.00    +0.000 A 
ATOM     17  C   UNL     1      12.344  34.243  25.152  0.00  0.00    +0.000 C 
ENDROOT
BRANCH   8  18
ATOM     18  C   UNL     1      16.013  31.539  29.840  0.00  0.00    +0.000 A 
ATOM     19  C   UNL     1      17.395  31.743  30.005  0.00  0.00    +0.000 A 
ATOM     20  C   UNL     1      15.140  32.200  30.720  0.00  0.00    +0.000 A 
ATOM     21  C   UNL     1      15.630  33.051  31.710  0.00  0.00    +0.000 A 
ATOM     22  C   UNL     1      17.912  32.577  31.007  0.00  0.00    +0.000 A 
ATOM     23  C   UNL     1      17.016  33.229  31.855  0.00  0.00    +0.000 A 
BRANCH  21  24
ATOM     24  O   UNL     1      14.862  33.761  32.605  0.00  0.00    +0.000 OA
ATOM     25  C   UNL     1      14.111  32.992  33.541  0.00  0.00    +0.000 C 
ENDBRANCH  21  24
BRANCH  22  26
ATOM     26  O   UNL     1      19.279  32.640  30.995  0.00  0.00    +0.000 OA
ATOM     27  C   UNL     1      20.004  31.437  31.211  0.00  0.00    +0.000 C 
ENDBRANCH  22  26
BRANCH  23  28
ATOM     28  O   UNL     1      17.440  34.073  32.851  0.00  0.00    +0.000 OA
ATOM     29  H   UNL     1      18.113  34.642  32.429  0.00  0.00    +0.000 HD
ENDBRANCH  23  28
ENDBRANCH   8  18
BRANCH   7  30
ATOM     30  O   UNL     1      12.200  28.670  28.213  0.00  0.00    +0.000 OA
BRANCH  30  34
ATOM     31  O   UNL     1      10.538  27.397  29.254  0.00  0.00    +0.000 OA
ATOM     32  O   UNL     1       7.453  25.842  27.991  0.00  0.00    +0.000 OA
ATOM     33  O   UNL     1       7.495  25.646  30.346  0.00  0.00    +0.000 OA
ATOM     34  C   UNL     1      10.806  28.338  28.213  0.00  0.00    +0.000 C 
ATOM     35  C   UNL     1      10.480  27.768  26.813  0.00  0.00    +0.000 C 
ATOM     36  C   UNL     1       8.821  26.266  27.965  0.00  0.00    +0.000 C 
ATOM     37  C   UNL     1       9.059  27.187  26.768  0.00  0.00    +0.000 C 
ATOM     38  C   UNL     1       9.167  27.008  29.253  0.00  0.00    +0.000 C 
ATOM     39  C   UNL     1       8.854  26.076  30.418  0.00  0.00    +0.000 C 
ATOM     40  C   UNL     1       7.222  24.984  29.112  0.00  0.00    +0.000 C 
ATOM     41  C   UNL     1       5.756  24.591  29.103  0.00  0.00    +0.000 C 
BRANCH  35  42
ATOM     42  O   UNL     1      10.615  28.814  25.836  0.00  0.00    +0.000 OA
ATOM     43  H   UNL     1      11.161  29.506  26.256  0.00  0.00    +0.000 HD
ENDBRANCH  35  42
BRANCH  37  44
ATOM     44  O   UNL     1       8.873  26.426  25.564  0.00  0.00    +0.000 OA
ATOM     45  H   UNL     1       8.676  27.076  24.864  0.00  0.00    +0.000 HD
ENDBRANCH  37  44
ENDBRANCH  30  34
ENDBRANCH   7  30
TORSDOF 8
ENDMDL
MODEL 6
REMARK VINA RESULT:      -6.2      2.408      9.556
REMARK  Name = 
REMARK  11 active torsions:
REMARK  status: ('A' for Active; 'I' for Inactive)
REMARK    1  A    between atoms: O_1  and  C_16
REMARK    2  A    between atoms: O_1  and  C_22
REMARK    3  A    between atoms: O_6  and  C_24
REMARK    4  A    between atoms: O_8  and  C_26
REMARK    5  A    between atoms: O_11  and  C_36
REMARK    6  A    between atoms: O_11  and  C_41
REMARK    7  A    between atoms: O_12  and  C_37
REMARK    8  A    between atoms: O_12  and  C_42
REMARK    9  A    between atoms: O_13  and  C_39
REMARK   10  A    between atoms: C_17  and  C_23
REMARK   11  A    between atoms: C_35  and  C_40
REMARK                            x       y       z     vdW  Elec       q    Type
REMARK                         _______ _______ _______ _____ _____    ______ ____
ROOT
ATOM      1  O   UNL     1       7.083  20.279  33.309  0.00  0.00    +0.000 OA
ATOM      2  O   UNL     1       6.263  21.923  34.680  0.00  0.00    +0.000 OA
ATOM      3  O   UNL     1      10.017  26.323  28.248  0.00  0.00    +0.000 OA
ATOM      4  O   UNL     1       8.597  27.684  29.644  0.00  0.00    +0.000 OA
ATOM      5  C   UNL     1       7.800  21.589  31.538  0.00  0.00    +0.000 C 
ATOM      6  C   UNL     1       7.633  22.484  32.751  0.00  0.00    +0.000 C 
ATOM      7  C   UNL     1       8.901  22.124  30.632  0.00  0.00    +0.000 C 
ATOM      8  C   UNL     1       7.030  23.831  32.354  0.00  0.00    +0.000 C 
ATOM      9  C   UNL     1       8.740  23.627  30.410  0.00  0.00    +0.000 A 
ATOM     10  C   UNL     1       7.896  24.438  31.238  0.00  0.00    +0.000 A 
ATOM     11  C   UNL     1       7.998  20.249  32.200  0.00  0.00    +0.000 C 
ATOM     12  C   UNL     1       6.881  21.584  33.685  0.00  0.00    +0.000 C 
ATOM     13  C   UNL     1       9.482  24.234  29.378  0.00  0.00    +0.000 A 
ATOM     14  C   UNL     1       7.815  25.828  31.013  0.00  0.00    +0.000 A 
ATOM     15  C   UNL     1       9.370  25.595  29.197  0.00  0.00    +0.000 A 
ATOM     16  C   UNL     1       8.562  26.369  29.991  0.00  0.00    +0.000 A 
ATOM     17  C   UNL     1       9.521  27.647  28.536  0.00  0.00    +0.000 C 
ENDROOT
BRANCH   8  18
ATOM     18  C   UNL     1       5.540  23.793  32.006  0.00  0.00    +0.000 A 
ATOM     19  C   UNL     1       5.050  23.247  30.807  0.00  0.00    +0.000 A 
ATOM     20  C   UNL     1       4.609  24.312  32.922  0.00  0.00    +0.000 A 
ATOM     21  C   UNL     1       3.240  24.262  32.657  0.00  0.00    +0.000 A 
ATOM     22  C   UNL     1       3.680  23.205  30.509  0.00  0.00    +0.000 A 
ATOM     23  C   UNL     1       2.782  23.717  31.446  0.00  0.00    +0.000 A 
BRANCH  21  24
ATOM     24  O   UNL     1       2.248  24.720  33.494  0.00  0.00    +0.000 OA
ATOM     25  C   UNL     1       2.547  24.716  34.888  0.00  0.00    +0.000 C 
ENDBRANCH  21  24
BRANCH  22  26
ATOM     26  O   UNL     1       3.416  22.633  29.294  0.00  0.00    +0.000 OA
ATOM     27  C   UNL     1       2.840  21.335  29.279  0.00  0.00    +0.000 C 
ENDBRANCH  22  26
BRANCH  23  28
ATOM     28  O   UNL     1       1.426  23.701  31.238  0.00  0.00    +0.000 OA
ATOM     29  H   UNL     1       1.304  24.076  30.344  0.00  0.00    +0.000 HD
ENDBRANCH  23  28
ENDBRANCH   8  18
BRANCH   7  30
ATOM     30  O   UNL     1      10.169  21.938  31.263  0.00  0.00    +0.000 OA
BRANCH  30  34
ATOM     31  O   UNL     1      10.492  19.796  30.385  0.00  0.00    +0.000 OA
ATOM     32  O   UNL     1      13.523  17.806  29.764  0.00  0.00    +0.000 OA
ATOM     33  O   UNL     1      11.670  16.685  28.819  0.00  0.00    +0.000 OA
ATOM     34  C   UNL     1      11.055  21.104  30.507  0.00  0.00    +0.000 C 
ATOM     35  C   UNL     1      12.407  21.089  31.258  0.00  0.00    +0.000 C 
ATOM     36  C   UNL     1      12.664  18.716  30.461  0.00  0.00    +0.000 C 
ATOM     37  C   UNL     1      13.369  20.060  30.648  0.00  0.00    +0.000 C 
ATOM     38  C   UNL     1      11.372  18.925  29.678  0.00  0.00    +0.000 C 
ATOM     39  C   UNL     1      10.739  17.555  29.461  0.00  0.00    +0.000 C 
ATOM     40  C   UNL     1      12.868  16.547  29.582  0.00  0.00    +0.000 C 
ATOM     41  C   UNL     1      13.812  15.638  28.816  0.00  0.00    +0.000 C 
BRANCH  35  42
ATOM     42  O   UNL     1      12.991  22.402  31.202  0.00  0.00    +0.000 OA
ATOM     43  H   UNL     1      12.247  23.021  31.069  0.00  0.00    +0.000 HD
ENDBRANCH  35  42
BRANCH  37  44
ATOM     44  O   UNL     1      14.500  19.864  31.512  0.00  0.00    +0.000 OA
ATOM     45  H   UNL     1      14.150  19.899  32.423  0.00  0.00    +0.000 HD
ENDBRANCH  37  44
ENDBRANCH  30  34
ENDBRANCH   7  30
TORSDOF 8
ENDMDL
MODEL 7
REMARK VINA RESULT:      -5.9     19.933     22.893
REMARK  Name = 
REMARK  11 active torsions:
REMARK  status: ('A' for Active; 'I' for Inactive)
REMARK    1  A    between atoms: O_1  and  C_16
REMARK    2  A    between atoms: O_1  and  C_22
REMARK    3  A    between atoms: O_6  and  C_24
REMARK    4  A    between atoms: O_8  and  C_26
REMARK    5  A    between atoms: O_11  and  C_36
REMARK    6  A    between atoms: O_11  and  C_41
REMARK    7  A    between atoms: O_12  and  C_37
REMARK    8  A    between atoms: O_12  and  C_42
REMARK    9  A    between atoms: O_13  and  C_39
REMARK   10  A    between atoms: C_17  and  C_23
REMARK   11  A    between atoms: C_35  and  C_40
REMARK                            x       y       z     vdW  Elec       q    Type
REMARK                         _______ _______ _______ _____ _____    ______ ____
ROOT
ATOM      1  O   UNL     1      -2.899  23.469  12.609  0.00  0.00    +0.000 OA
ATOM      2  O   UNL     1      -3.116  21.266  13.207  0.00  0.00    +0.000 OA
ATOM      3  O   UNL     1      -5.482  25.553  20.338  0.00  0.00    +0.000 OA
ATOM      4  O   UNL     1      -6.052  23.210  20.391  0.00  0.00    +0.000 OA
ATOM      5  C   UNL     1      -3.812  24.461  14.493  0.00  0.00    +0.000 C 
ATOM      6  C   UNL     1      -3.437  23.034  14.844  0.00  0.00    +0.000 C 
ATOM      7  C   UNL     1      -3.697  25.358  15.719  0.00  0.00    +0.000 C 
ATOM      8  C   UNL     1      -4.496  22.401  15.745  0.00  0.00    +0.000 C 
ATOM      9  C   UNL     1      -4.365  24.709  16.931  0.00  0.00    +0.000 A 
ATOM     10  C   UNL     1      -4.706  23.316  16.964  0.00  0.00    +0.000 A 
ATOM     11  C   UNL     1      -2.892  24.715  13.325  0.00  0.00    +0.000 C 
ATOM     12  C   UNL     1      -3.175  22.451  13.488  0.00  0.00    +0.000 C 
ATOM     13  C   UNL     1      -4.614  25.507  18.063  0.00  0.00    +0.000 A 
ATOM     14  C   UNL     1      -5.284  22.761  18.123  0.00  0.00    +0.000 A 
ATOM     15  C   UNL     1      -5.181  24.919  19.174  0.00  0.00    +0.000 A 
ATOM     16  C   UNL     1      -5.505  23.586  19.203  0.00  0.00    +0.000 A 
ATOM     17  C   UNL     1      -6.036  24.463  21.105  0.00  0.00    +0.000 C 
ENDROOT
BRANCH   8  18
ATOM     18  C   UNL     1      -5.804  22.029  15.041  0.00  0.00    +0.000 A 
ATOM     19  C   UNL     1      -6.720  22.990  14.577  0.00  0.00    +0.000 A 
ATOM     20  C   UNL     1      -6.108  20.673  14.832  0.00  0.00    +0.000 A 
ATOM     21  C   UNL     1      -7.272  20.296  14.161  0.00  0.00    +0.000 A 
ATOM     22  C   UNL     1      -7.907  22.634  13.920  0.00  0.00    +0.000 A 
ATOM     23  C   UNL     1      -8.171  21.279  13.716  0.00  0.00    +0.000 A 
BRANCH  21  24
ATOM     24  O   UNL     1      -7.649  19.002  13.886  0.00  0.00    +0.000 OA
ATOM     25  C   UNL     1      -6.601  18.095  13.557  0.00  0.00    +0.000 C 
ENDBRANCH  21  24
BRANCH  22  26
ATOM     26  O   UNL     1      -8.656  23.718  13.549  0.00  0.00    +0.000 OA
ATOM     27  C   UNL     1      -9.566  24.256  14.497  0.00  0.00    +0.000 C 
ENDBRANCH  22  26
BRANCH  23  28
ATOM     28  O   UNL     1      -9.302  20.848  13.069  0.00  0.00    +0.000 OA
ATOM     29  H   UNL     1      -9.099  20.942  12.118  0.00  0.00    +0.000 HD
ENDBRANCH  23  28
ENDBRANCH   8  18
BRANCH   7  30
ATOM     30  O   UNL     1      -2.320  25.530  16.055  0.00  0.00    +0.000 OA
BRANCH  30  34
ATOM     31  O   UNL     1      -1.068  26.985  14.720  0.00  0.00    +0.000 OA
ATOM     32  O   UNL     1       0.920  29.977  15.509  0.00  0.00    +0.000 OA
ATOM     33  O   UNL     1       0.770  29.761  13.161  0.00  0.00    +0.000 OA
ATOM     34  C   UNL     1      -1.869  26.882  15.899  0.00  0.00    +0.000 C 
ATOM     35  C   UNL     1      -1.077  27.241  17.177  0.00  0.00    +0.000 C 
ATOM     36  C   UNL     1       0.385  28.663  15.702  0.00  0.00    +0.000 C 
ATOM     37  C   UNL     1      -0.372  28.597  17.029  0.00  0.00    +0.000 C 
ATOM     38  C   UNL     1      -0.563  28.308  14.560  0.00  0.00    +0.000 C 
ATOM     39  C   UNL     1       0.216  28.450  13.256  0.00  0.00    +0.000 C 
ATOM     40  C   UNL     1       1.626  30.048  14.267  0.00  0.00    +0.000 C 
ATOM     41  C   UNL     1       2.144  31.465  14.105  0.00  0.00    +0.000 C 
BRANCH  35  42
ATOM     42  O   UNL     1      -1.978  27.275  18.296  0.00  0.00    +0.000 OA
ATOM     43  H   UNL     1      -1.500  26.862  19.040  0.00  0.00    +0.000 HD
ENDBRANCH  35  42
BRANCH  37  44
ATOM     44  O   UNL     1       0.569  28.786  18.098  0.00  0.00    +0.000 OA
ATOM     45  H   UNL     1       0.423  28.045  18.717  0.00  0.00    +0.000 HD
ENDBRANCH  37  44
ENDBRANCH  30  34
ENDBRANCH   7  30
TORSDOF 8
ENDMDL
MODEL 8
REMARK VINA RESULT:      -5.9     29.198     31.674
REMARK  Name = 
REMARK  11 active torsions:
REMARK  status: ('A' for Active; 'I' for Inactive)
REMARK    1  A    between atoms: O_1  and  C_16
REMARK    2  A    between atoms: O_1  and  C_22
REMARK    3  A    between atoms: O_6  and  C_24
REMARK    4  A    between atoms: O_8  and  C_26
REMARK    5  A    between atoms: O_11  and  C_36
REMARK    6  A    between atoms: O_11  and  C_41
REMARK    7  A    between atoms: O_12  and  C_37
REMARK    8  A    between atoms: O_12  and  C_42
REMARK    9  A    between atoms: O_13  and  C_39
REMARK   10  A    between atoms: C_17  and  C_23
REMARK   11  A    between atoms: C_35  and  C_40
REMARK                            x       y       z     vdW  Elec       q    Type
REMARK                         _______ _______ _______ _____ _____    ______ ____
ROOT
ATOM      1  O   UNL     1      12.365  14.444   2.283  0.00  0.00    +0.000 OA
ATOM      2  O   UNL     1      10.920  15.832   3.397  0.00  0.00    +0.000 OA
ATOM      3  O   UNL     1      17.317  21.110   0.936  0.00  0.00    +0.000 OA
ATOM      4  O   UNL     1      15.350  22.275   1.704  0.00  0.00    +0.000 OA
ATOM      5  C   UNL     1      13.852  16.024   1.470  0.00  0.00    +0.000 C 
ATOM      6  C   UNL     1      13.067  16.653   2.605  0.00  0.00    +0.000 C 
ATOM      7  C   UNL     1      15.248  16.630   1.391  0.00  0.00    +0.000 C 
ATOM      8  C   UNL     1      12.717  18.106   2.285  0.00  0.00    +0.000 C 
ATOM      9  C   UNL     1      15.184  18.154   1.474  0.00  0.00    +0.000 A 
ATOM     10  C   UNL     1      14.016  18.849   1.929  0.00  0.00    +0.000 A 
ATOM     11  C   UNL     1      13.718  14.562   1.811  0.00  0.00    +0.000 C 
ATOM     12  C   UNL     1      11.967  15.653   2.798  0.00  0.00    +0.000 C 
ATOM     13  C   UNL     1      16.333  18.890   1.125  0.00  0.00    +0.000 A 
ATOM     14  C   UNL     1      14.026  20.255   2.023  0.00  0.00    +0.000 A 
ATOM     15  C   UNL     1      16.295  20.264   1.234  0.00  0.00    +0.000 A 
ATOM     16  C   UNL     1      15.176  20.926   1.671  0.00  0.00    +0.000 A 
ATOM     17  C   UNL     1      16.710  22.384   1.235  0.00  0.00    +0.000 C 
ENDROOT
BRANCH   8  18
ATOM     18  C   UNL     1      11.614  18.288   1.239  0.00  0.00    +0.000 A 
ATOM     19  C   UNL     1      11.770  17.913  -0.107  0.00  0.00    +0.000 A 
ATOM     20  C   UNL     1      10.383  18.840   1.631  0.00  0.00    +0.000 A 
ATOM     21  C   UNL     1       9.341  18.988   0.715  0.00  0.00    +0.000 A 
ATOM     22  C   UNL     1      10.744  18.071  -1.050  0.00  0.00    +0.000 A 
ATOM     23  C   UNL     1       9.530  18.611  -0.625  0.00  0.00    +0.000 A 
BRANCH  21  24
ATOM     24  O   UNL     1       8.094  19.495   1.001  0.00  0.00    +0.000 OA
ATOM     25  C   UNL     1       8.013  20.907   1.183  0.00  0.00    +0.000 C 
ENDBRANCH  21  24
BRANCH  22  26
ATOM     26  O   UNL     1      11.100  17.643  -2.301  0.00  0.00    +0.000 OA
ATOM     27  C   UNL     1      12.412  17.933  -2.758  0.00  0.00    +0.000 C 
ENDBRANCH  22  26
BRANCH  23  28
ATOM     28  O   UNL     1       8.472  18.786  -1.482  0.00  0.00    +0.000 OA
ATOM     29  H   UNL     1       8.877  19.036  -2.335  0.00  0.00    +0.000 HD
ENDBRANCH  23  28
ENDBRANCH   8  18
BRANCH   7  30
ATOM     30  O   UNL     1      16.020  16.192   2.509  0.00  0.00    +0.000 OA
BRANCH  30  34
ATOM     31  O   UNL     1      17.129  14.146   2.278  0.00  0.00    +0.000 OA
ATOM     32  O   UNL     1      20.664  13.192   2.628  0.00  0.00    +0.000 OA
ATOM     33  O   UNL     1      19.461  11.351   1.763  0.00  0.00    +0.000 OA
ATOM     34  C   UNL     1      17.250  15.562   2.130  0.00  0.00    +0.000 C 
ATOM     35  C   UNL     1      18.354  16.151   3.038  0.00  0.00    +0.000 C 
ATOM     36  C   UNL     1      19.450  13.888   2.936  0.00  0.00    +0.000 C 
ATOM     37  C   UNL     1      19.680  15.397   2.858  0.00  0.00    +0.000 C 
ATOM     38  C   UNL     1      18.352  13.491   1.954  0.00  0.00    +0.000 C 
ATOM     39  C   UNL     1      18.203  11.974   2.018  0.00  0.00    +0.000 C 
ATOM     40  C   UNL     1      20.455  11.778   2.694  0.00  0.00    +0.000 C 
ATOM     41  C   UNL     1      21.762  11.096   2.332  0.00  0.00    +0.000 C 
BRANCH  35  42
ATOM     42  O   UNL     1      18.533  17.542   2.721  0.00  0.00    +0.000 OA
ATOM     43  H   UNL     1      17.919  17.731   1.984  0.00  0.00    +0.000 HD
ENDBRANCH  35  42
BRANCH  37  44
ATOM     44  O   UNL     1      20.606  15.770   3.892  0.00  0.00    +0.000 OA
ATOM     45  H   UNL     1      20.744  14.967   4.430  0.00  0.00    +0.000 HD
ENDBRANCH  37  44
ENDBRANCH  30  34
ENDBRANCH   7  30
TORSDOF 8
ENDMDL
MODEL 9
REMARK VINA RESULT:      -5.7      2.736      8.011
REMARK  Name = 
REMARK  11 active torsions:
REMARK  status: ('A' for Active; 'I' for Inactive)
REMARK    1  A    between atoms: O_1  and  C_16
REMARK    2  A    between atoms: O_1  and  C_22
REMARK    3  A    between atoms: O_6  and  C_24
REMARK    4  A    between atoms: O_8  and  C_26
REMARK    5  A    between atoms: O_11  and  C_36
REMARK    6  A    between atoms: O_11  and  C_41
REMARK    7  A    between atoms: O_12  and  C_37
REMARK    8  A    between atoms: O_12  and  C_42
REMARK    9  A    between atoms: O_13  and  C_39
REMARK   10  A    between atoms: C_17  and  C_23
REMARK   11  A    between atoms: C_35  and  C_40
REMARK                            x       y       z     vdW  Elec       q    Type
REMARK                         _______ _______ _______ _____ _____    ______ ____
ROOT
ATOM      1  O   UNL     1      13.868  19.784  31.054  0.00  0.00    +0.000 OA
ATOM      2  O   UNL     1      14.039  21.820  30.015  0.00  0.00    +0.000 OA
ATOM      3  O   UNL     1       5.507  20.689  30.886  0.00  0.00    +0.000 OA
ATOM      4  O   UNL     1       6.123  22.944  30.289  0.00  0.00    +0.000 OA
ATOM      5  C   UNL     1      11.586  19.755  31.453  0.00  0.00    +0.000 C 
ATOM      6  C   UNL     1      11.866  20.792  30.382  0.00  0.00    +0.000 C 
ATOM      7  C   UNL     1      10.203  19.149  31.256  0.00  0.00    +0.000 C 
ATOM      8  C   UNL     1      10.994  22.031  30.583  0.00  0.00    +0.000 C 
ATOM      9  C   UNL     1       9.161  20.240  31.010  0.00  0.00    +0.000 A 
ATOM     10  C   UNL     1       9.525  21.581  30.657  0.00  0.00    +0.000 A 
ATOM     11  C   UNL     1      12.793  18.863  31.305  0.00  0.00    +0.000 C 
ATOM     12  C   UNL     1      13.358  20.916  30.469  0.00  0.00    +0.000 C 
ATOM     13  C   UNL     1       7.799  19.895  31.099  0.00  0.00    +0.000 A 
ATOM     14  C   UNL     1       8.522  22.538  30.402  0.00  0.00    +0.000 A 
ATOM     15  C   UNL     1       6.854  20.865  30.840  0.00  0.00    +0.000 A 
ATOM     16  C   UNL     1       7.205  22.147  30.501  0.00  0.00    +0.000 A 
ATOM     17  C   UNL     1       5.049  22.012  30.536  0.00  0.00    +0.000 C 
ENDROOT
BRANCH   8  18
ATOM     18  C   UNL     1      11.407  22.928  31.753  0.00  0.00    +0.000 A 
ATOM     19  C   UNL     1      11.247  22.550  33.098  0.00  0.00    +0.000 A 
ATOM     20  C   UNL     1      11.985  24.180  31.485  0.00  0.00    +0.000 A 
ATOM     21  C   UNL     1      12.408  25.010  32.523  0.00  0.00    +0.000 A 
ATOM     22  C   UNL     1      11.645  23.376  34.159  0.00  0.00    +0.000 A 
ATOM     23  C   UNL     1      12.227  24.608  33.857  0.00  0.00    +0.000 A 
BRANCH  21  24
ATOM     24  O   UNL     1      13.003  26.241  32.368  0.00  0.00    +0.000 OA
ATOM     25  C   UNL     1      12.611  26.993  31.223  0.00  0.00    +0.000 C 
ENDBRANCH  21  24
BRANCH  22  26
ATOM     26  O   UNL     1      11.403  22.821  35.386  0.00  0.00    +0.000 OA
ATOM     27  C   UNL     1      10.088  22.362  35.663  0.00  0.00    +0.000 C 
ENDBRANCH  22  26
BRANCH  23  28
ATOM     28  O   UNL     1      12.657  25.469  34.836  0.00  0.00    +0.000 OA
ATOM     29  H   UNL     1      12.109  25.256  35.617  0.00  0.00    +0.000 HD
ENDBRANCH  23  28
ENDBRANCH   8  18
BRANCH   7  30
ATOM     30  O   UNL     1      10.208  18.320  30.093  0.00  0.00    +0.000 OA
BRANCH  30  34
ATOM     31  O   UNL     1       9.707  16.786  31.785  0.00  0.00    +0.000 OA
ATOM     32  O   UNL     1      10.373  13.186  32.139  0.00  0.00    +0.000 OA
ATOM     33  O   UNL     1       8.954  13.874  33.900  0.00  0.00    +0.000 OA
ATOM     34  C   UNL     1       9.892  16.952  30.378  0.00  0.00    +0.000 C 
ATOM     35  C   UNL     1      11.063  16.099  29.839  0.00  0.00    +0.000 C 
ATOM     36  C   UNL     1      10.637  14.544  31.772  0.00  0.00    +0.000 C 
ATOM     37  C   UNL     1      10.927  14.632  30.273  0.00  0.00    +0.000 C 
ATOM     38  C   UNL     1       9.437  15.425  32.109  0.00  0.00    +0.000 C 
ATOM     39  C   UNL     1       9.146  15.255  33.596  0.00  0.00    +0.000 C 
ATOM     40  C   UNL     1      10.095  13.097  33.540  0.00  0.00    +0.000 C 
ATOM     41  C   UNL     1       9.797  11.644  33.865  0.00  0.00    +0.000 C 
BRANCH  35  42
ATOM     42  O   UNL     1      11.088  16.186  28.404  0.00  0.00    +0.000 OA
ATOM     43  H   UNL     1      12.027  16.109  28.146  0.00  0.00    +0.000 HD
ENDBRANCH  35  42
BRANCH  37  44
ATOM     44  O   UNL     1      12.145  13.920  30.003  0.00  0.00    +0.000 OA
ATOM     45  H   UNL     1      12.339  13.406  30.810  0.00  0.00    +0.000 HD
ENDBRANCH  37  44
ENDBRANCH  30  34
ENDBRANCH   7  30
TORSDOF 8
ENDMDL
