MODEL 1
REMARK VINA RESULT:      -7.3      0.000      0.000
REMARK  Name = Foretinib.pdbqt.pdb
REMARK  11 active torsions:
REMARK  status: ('A' for Active; 'I' for Inactive)
REMARK    1  A    between atoms: C_2  and  N_31
REMARK    2  A    between atoms: C_7  and  O_8
REMARK    3  A    between atoms: O_8  and  C_9
REMARK    4  A    between atoms: C_17  and  O_19
REMARK    5  A    between atoms: C_18  and  O_29
REMARK    6  A    between atoms: O_19  and  C_20
REMARK    7  A    between atoms: C_21  and  C_22
REMARK    8  A    between atoms: C_22  and  N_23
REMARK    9  A    between atoms: C_32  and  C_35
REMARK   10  A    between atoms: C_35  and  C_38
REMARK   11  A    between atoms: N_40  and  C_42
REMARK                            x       y       z     vdW  Elec       q    Type
REMARK                         _______ _______ _______ _____ _____    ______ ____
ROOT
ATOM      1  F   UNL     1      10.592  24.474  30.869  0.00  0.00    +0.000 F 
ATOM      2  C   UNL     1       8.989  21.247  30.442  0.00  0.00    +0.000 A 
ATOM      3  C   UNL     1       9.950  22.212  30.745  0.00  0.00    +0.000 A 
ATOM      4  C   UNL     1       7.728  21.648  29.994  0.00  0.00    +0.000 A 
ATOM      5  C   UNL     1       9.645  23.562  30.605  0.00  0.00    +0.000 A 
ATOM      6  C   UNL     1       7.424  23.001  29.853  0.00  0.00    +0.000 A 
ATOM      7  C   UNL     1       8.377  23.961  30.183  0.00  0.00    +0.000 A 
ENDROOT
BRANCH   2   8
ATOM      8  N   UNL     1       9.231  19.866  30.559  0.00  0.00    +0.000 N 
ATOM      9  C   UNL     1       8.433  18.966  31.247  0.00  0.00    +0.000 C 
ATOM     10  O   UNL     1       7.417  19.233  31.877  0.00  0.00    +0.000 OA
ATOM     11  H   UNL     1      10.084  19.514  30.135  0.00  0.00    +0.000 HD
BRANCH   9  12
ATOM     12  C   UNL     1       8.936  17.552  31.234  0.00  0.00    +0.000 C 
ATOM     13  C   UNL     1       7.952  16.483  31.100  0.00  0.00    +0.000 C 
ATOM     14  C   UNL     1       8.638  16.722  32.396  0.00  0.00    +0.000 C 
BRANCH  12  15
ATOM     15  C   UNL     1      10.255  17.361  30.547  0.00  0.00    +0.000 C 
ATOM     16  O   UNL     1      10.289  17.372  29.322  0.00  0.00    +0.000 OA
ATOM     17  N   UNL     1      11.340  17.239  31.397  0.00  0.00    +0.000 N 
ATOM     18  H   UNL     1      11.171  17.304  32.397  0.00  0.00    +0.000 HD
BRANCH  17  19
ATOM     19  C   UNL     1      12.677  17.066  30.995  0.00  0.00    +0.000 A 
ATOM     20  C   UNL     1      13.604  18.033  31.388  0.00  0.00    +0.000 A 
ATOM     21  C   UNL     1      14.943  17.919  31.021  0.00  0.00    +0.000 A 
ATOM     22  C   UNL     1      15.347  16.828  30.259  0.00  0.00    +0.000 A 
ATOM     23  F   UNL     1      16.635  16.714  29.906  0.00  0.00    +0.000 F 
ATOM     24  C   UNL     1      14.439  15.854  29.861  0.00  0.00    +0.000 A 
ATOM     25  C   UNL     1      13.103  15.978  30.231  0.00  0.00    +0.000 A 
ENDBRANCH  17  19
ENDBRANCH  12  15
ENDBRANCH   9  12
ENDBRANCH   2   8
BRANCH   7  26
ATOM     26  O   UNL     1       8.044  25.276  29.963  0.00  0.00    +0.000 OA
BRANCH  26  27
ATOM     27  C   UNL     1       8.357  25.807  28.727  0.00  0.00    +0.000 A 
ATOM     28  C   UNL     1       9.276  26.867  28.677  0.00  0.00    +0.000 A 
ATOM     29  C   UNL     1       9.633  27.366  27.412  0.00  0.00    +0.000 A 
ATOM     30  C   UNL     1       9.834  27.437  29.833  0.00  0.00    +0.000 A 
ATOM     31  N   UNL     1       9.136  26.857  26.274  0.00  0.00    +0.000 NA
ATOM     32  C   UNL     1      10.535  28.418  27.357  0.00  0.00    +0.000 A 
ATOM     33  C   UNL     1       8.264  25.829  26.364  0.00  0.00    +0.000 A 
ATOM     34  C   UNL     1       7.851  25.263  27.552  0.00  0.00    +0.000 A 
ATOM     35  C   UNL     1      11.096  28.989  28.506  0.00  0.00    +0.000 A 
ATOM     36  C   UNL     1      10.741  28.494  29.762  0.00  0.00    +0.000 A 
BRANCH  36  37
ATOM     37  O   UNL     1      11.313  29.094  30.858  0.00  0.00    +0.000 OA
ATOM     38  C   UNL     1      10.434  29.794  31.695  0.00  0.00    +0.000 C 
ENDBRANCH  36  37
BRANCH  35  39
ATOM     39  O   UNL     1      11.988  30.035  28.469  0.00  0.00    +0.000 OA
BRANCH  39  40
ATOM     40  C   UNL     1      11.943  30.774  27.363  0.00  0.00    +0.000 C 
ATOM     41  C   UNL     1      11.885  31.640  26.099  0.00  0.00    +0.000 C 
BRANCH  41  42
ATOM     42  C   UNL     1      11.831  32.510  24.839  0.00  0.00    +0.000 C 
BRANCH  42  43
ATOM     43  N   UNL     1      11.778  33.336  23.641  0.00  0.00    +0.000 N 
ATOM     44  C   UNL     1      12.917  34.300  23.732  0.00  0.00    +0.000 C 
ATOM     45  C   UNL     1      14.228  34.353  22.883  0.00  0.00    +0.000 C 
ATOM     46  O   UNL     1      14.737  33.612  21.875  0.00  0.00    +0.000 OA
ATOM     47  C   UNL     1      13.714  32.737  21.795  0.00  0.00    +0.000 C 
ATOM     48  C   UNL     1      12.356  32.520  22.530  0.00  0.00    +0.000 C 
ENDBRANCH  42  43
ENDBRANCH  41  42
ENDBRANCH  39  40
ENDBRANCH  35  39
ENDBRANCH  26  27
ENDBRANCH   7  26
TORSDOF 11
ENDMDL
MODEL 2
REMARK VINA RESULT:      -7.1     19.444     23.652
REMARK  Name = Foretinib.pdbqt.pdb
REMARK  11 active torsions:
REMARK  status: ('A' for Active; 'I' for Inactive)
REMARK    1  A    between atoms: C_2  and  N_31
REMARK    2  A    between atoms: C_7  and  O_8
REMARK    3  A    between atoms: O_8  and  C_9
REMARK    4  A    between atoms: C_17  and  O_19
REMARK    5  A    between atoms: C_18  and  O_29
REMARK    6  A    between atoms: O_19  and  C_20
REMARK    7  A    between atoms: C_21  and  C_22
REMARK    8  A    between atoms: C_22  and  N_23
REMARK    9  A    between atoms: C_32  and  C_35
REMARK   10  A    between atoms: C_35  and  C_38
REMARK   11  A    between atoms: N_40  and  C_42
REMARK                            x       y       z     vdW  Elec       q    Type
REMARK                         _______ _______ _______ _____ _____    ______ ____
ROOT
ATOM      1  F   UNL     1      29.516  14.574  19.935  0.00  0.00    +0.000 F 
ATOM      2  C   UNL     1      27.463  11.735  20.880  0.00  0.00    +0.000 A 
ATOM      3  C   UNL     1      28.043  13.004  20.890  0.00  0.00    +0.000 A 
ATOM      4  C   UNL     1      27.796  10.833  19.867  0.00  0.00    +0.000 A 
ATOM      5  C   UNL     1      28.943  13.362  19.891  0.00  0.00    +0.000 A 
ATOM      6  C   UNL     1      28.698  11.192  18.867  0.00  0.00    +0.000 A 
ATOM      7  C   UNL     1      29.255  12.469  18.865  0.00  0.00    +0.000 A 
ENDROOT
BRANCH   2   8
ATOM      8  N   UNL     1      26.548  11.308  21.860  0.00  0.00    +0.000 N 
ATOM      9  C   UNL     1      26.860  10.544  22.972  0.00  0.00    +0.000 C 
ATOM     10  O   UNL     1      27.965  10.103  23.261  0.00  0.00    +0.000 OA
ATOM     11  H   UNL     1      25.573  11.550  21.710  0.00  0.00    +0.000 HD
BRANCH   9  12
ATOM     12  C   UNL     1      25.687  10.206  23.845  0.00  0.00    +0.000 C 
ATOM     13  C   UNL     1      25.899   9.254  24.930  0.00  0.00    +0.000 C 
ATOM     14  C   UNL     1      25.121   8.868  23.724  0.00  0.00    +0.000 C 
BRANCH  12  15
ATOM     15  C   UNL     1      24.752  11.349  24.109  0.00  0.00    +0.000 C 
ATOM     16  O   UNL     1      23.721  11.432  23.451  0.00  0.00    +0.000 OA
ATOM     17  N   UNL     1      25.139  12.191  25.138  0.00  0.00    +0.000 N 
ATOM     18  H   UNL     1      25.995  11.968  25.637  0.00  0.00    +0.000 HD
BRANCH  17  19
ATOM     19  C   UNL     1      24.425  13.319  25.581  0.00  0.00    +0.000 A 
ATOM     20  C   UNL     1      23.301  13.104  26.380  0.00  0.00    +0.000 A 
ATOM     21  C   UNL     1      22.552  14.180  26.851  0.00  0.00    +0.000 A 
ATOM     22  C   UNL     1      22.938  15.474  26.517  0.00  0.00    +0.000 A 
ATOM     23  F   UNL     1      22.222  16.511  26.970  0.00  0.00    +0.000 F 
ATOM     24  C   UNL     1      24.056  15.707  25.725  0.00  0.00    +0.000 A 
ATOM     25  C   UNL     1      24.798  14.625  25.258  0.00  0.00    +0.000 A 
ENDBRANCH  17  19
ENDBRANCH  12  15
ENDBRANCH   9  12
ENDBRANCH   2   8
BRANCH   7  26
ATOM     26  O   UNL     1      30.185  12.745  17.894  0.00  0.00    +0.000 OA
BRANCH  26  27
ATOM     27  C   UNL     1      29.828  12.485  16.585  0.00  0.00    +0.000 A 
ATOM     28  C   UNL     1      29.325  13.544  15.814  0.00  0.00    +0.000 A 
ATOM     29  C   UNL     1      29.017  13.286  14.467  0.00  0.00    +0.000 A 
ATOM     30  C   UNL     1      29.118  14.829  16.341  0.00  0.00    +0.000 A 
ATOM     31  N   UNL     1      29.199  12.079  13.908  0.00  0.00    +0.000 NA
ATOM     32  C   UNL     1      28.513  14.327  13.702  0.00  0.00    +0.000 A 
ATOM     33  C   UNL     1      29.698  11.089  14.681  0.00  0.00    +0.000 A 
ATOM     34  C   UNL     1      30.037  11.236  16.010  0.00  0.00    +0.000 A 
ATOM     35  C   UNL     1      28.306  15.611  14.221  0.00  0.00    +0.000 A 
ATOM     36  C   UNL     1      28.611  15.867  15.559  0.00  0.00    +0.000 A 
BRANCH  36  37
ATOM     37  O   UNL     1      28.383  17.141  16.023  0.00  0.00    +0.000 OA
ATOM     38  C   UNL     1      29.388  17.679  16.839  0.00  0.00    +0.000 C 
ENDBRANCH  36  37
BRANCH  35  39
ATOM     39  O   UNL     1      27.803  16.653  13.478  0.00  0.00    +0.000 OA
BRANCH  39  40
ATOM     40  C   UNL     1      28.053  16.585  12.173  0.00  0.00    +0.000 C 
ATOM     41  C   UNL     1      28.352  16.520  10.671  0.00  0.00    +0.000 C 
BRANCH  41  42
ATOM     42  C   UNL     1      28.657  16.457   9.170  0.00  0.00    +0.000 C 
BRANCH  42  43
ATOM     43  N   UNL     1      28.948  16.396   7.745  0.00  0.00    +0.000 N 
ATOM     44  C   UNL     1      28.570  15.024   7.286  0.00  0.00    +0.000 C 
ATOM     45  C   UNL     1      27.383  14.591   6.366  0.00  0.00    +0.000 C 
ATOM     46  O   UNL     1      26.382  15.244   5.735  0.00  0.00    +0.000 OA
ATOM     47  C   UNL     1      26.719  16.481   6.153  0.00  0.00    +0.000 C 
ATOM     48  C   UNL     1      27.834  17.105   7.047  0.00  0.00    +0.000 C 
ENDBRANCH  42  43
ENDBRANCH  41  42
ENDBRANCH  39  40
ENDBRANCH  35  39
ENDBRANCH  26  27
ENDBRANCH   7  26
TORSDOF 11
ENDMDL
MODEL 3
REMARK VINA RESULT:      -7.0     14.383     20.002
REMARK  Name = Foretinib.pdbqt.pdb
REMARK  11 active torsions:
REMARK  status: ('A' for Active; 'I' for Inactive)
REMARK    1  A    between atoms: C_2  and  N_31
REMARK    2  A    between atoms: C_7  and  O_8
REMARK    3  A    between atoms: O_8  and  C_9
REMARK    4  A    between atoms: C_17  and  O_19
REMARK    5  A    between atoms: C_18  and  O_29
REMARK    6  A    between atoms: O_19  and  C_20
REMARK    7  A    between atoms: C_21  and  C_22
REMARK    8  A    between atoms: C_22  and  N_23
REMARK    9  A    between atoms: C_32  and  C_35
REMARK   10  A    between atoms: C_35  and  C_38
REMARK   11  A    between atoms: N_40  and  C_42
REMARK                            x       y       z     vdW  Elec       q    Type
REMARK                         _______ _______ _______ _____ _____    ______ ____
ROOT
ATOM      1  F   UNL     1      -2.053  20.149  21.641  0.00  0.00    +0.000 F 
ATOM      2  C   UNL     1      -4.244  23.041  21.622  0.00  0.00    +0.000 A 
ATOM      3  C   UNL     1      -3.183  22.189  21.314  0.00  0.00    +0.000 A 
ATOM      4  C   UNL     1      -5.209  22.634  22.545  0.00  0.00    +0.000 A 
ATOM      5  C   UNL     1      -3.098  20.941  21.923  0.00  0.00    +0.000 A 
ATOM      6  C   UNL     1      -5.122  21.385  23.156  0.00  0.00    +0.000 A 
ATOM      7  C   UNL     1      -4.077  20.526  22.826  0.00  0.00    +0.000 A 
ENDROOT
BRANCH   2   8
ATOM      8  N   UNL     1      -4.390  24.316  21.044  0.00  0.00    +0.000 N 
ATOM      9  C   UNL     1      -5.153  24.609  19.925  0.00  0.00    +0.000 C 
ATOM     10  O   UNL     1      -5.791  23.808  19.255  0.00  0.00    +0.000 OA
ATOM     11  H   UNL     1      -3.857  25.072  21.465  0.00  0.00    +0.000 HD
BRANCH   9  12
ATOM     12  C   UNL     1      -5.115  26.049  19.505  0.00  0.00    +0.000 C 
ATOM     13  C   UNL     1      -5.684  27.037  20.416  0.00  0.00    +0.000 C 
ATOM     14  C   UNL     1      -6.382  26.680  19.153  0.00  0.00    +0.000 C 
BRANCH  12  15
ATOM     15  C   UNL     1      -3.889  26.447  18.739  0.00  0.00    +0.000 C 
ATOM     16  O   UNL     1      -3.132  27.279  19.227  0.00  0.00    +0.000 OA
ATOM     17  N   UNL     1      -3.707  25.774  17.543  0.00  0.00    +0.000 N 
ATOM     18  H   UNL     1      -4.389  25.066  17.288  0.00  0.00    +0.000 HD
BRANCH  17  19
ATOM     19  C   UNL     1      -2.631  25.961  16.657  0.00  0.00    +0.000 A 
ATOM     20  C   UNL     1      -2.370  27.260  16.217  0.00  0.00    +0.000 A 
ATOM     21  C   UNL     1      -1.318  27.509  15.338  0.00  0.00    +0.000 A 
ATOM     22  C   UNL     1      -0.528  26.450  14.905  0.00  0.00    +0.000 A 
ATOM     23  F   UNL     1       0.485  26.687  14.062  0.00  0.00    +0.000 F 
ATOM     24  C   UNL     1      -0.772  25.151  15.335  0.00  0.00    +0.000 A 
ATOM     25  C   UNL     1      -1.826  24.910  16.212  0.00  0.00    +0.000 A 
ENDBRANCH  17  19
ENDBRANCH  12  15
ENDBRANCH   9  12
ENDBRANCH   2   8
BRANCH   7  26
ATOM     26  O   UNL     1      -4.006  19.334  23.506  0.00  0.00    +0.000 OA
BRANCH  26  27
ATOM     27  C   UNL     1      -3.119  19.263  24.562  0.00  0.00    +0.000 A 
ATOM     28  C   UNL     1      -1.962  18.484  24.402  0.00  0.00    +0.000 A 
ATOM     29  C   UNL     1      -1.035  18.461  25.459  0.00  0.00    +0.000 A 
ATOM     30  C   UNL     1      -1.711  17.737  23.240  0.00  0.00    +0.000 A 
ATOM     31  N   UNL     1      -1.219  19.160  26.590  0.00  0.00    +0.000 NA
ATOM     32  C   UNL     1       0.106  17.688  25.309  0.00  0.00    +0.000 A 
ATOM     33  C   UNL     1      -2.340  19.907  26.700  0.00  0.00    +0.000 A 
ATOM     34  C   UNL     1      -3.309  20.003  25.723  0.00  0.00    +0.000 A 
ATOM     35  C   UNL     1       0.363  16.941  24.152  0.00  0.00    +0.000 A 
ATOM     36  C   UNL     1      -0.558  16.963  23.103  0.00  0.00    +0.000 A 
BRANCH  36  37
ATOM     37  O   UNL     1      -0.264  16.208  21.993  0.00  0.00    +0.000 OA
ATOM     38  C   UNL     1      -1.149  15.155  21.723  0.00  0.00    +0.000 C 
ENDBRANCH  36  37
BRANCH  35  39
ATOM     39  O   UNL     1       1.487  16.165  23.989  0.00  0.00    +0.000 OA
BRANCH  39  40
ATOM     40  C   UNL     1       1.375  14.914  24.428  0.00  0.00    +0.000 C 
ATOM     41  C   UNL     1       1.236  13.478  24.945  0.00  0.00    +0.000 C 
BRANCH  41  42
ATOM     42  C   UNL     1       1.090  12.043  25.464  0.00  0.00    +0.000 C 
BRANCH  42  43
ATOM     43  N   UNL     1       0.951  10.680  25.955  0.00  0.00    +0.000 N 
ATOM     44  C   UNL     1       0.419   9.865  24.820  0.00  0.00    +0.000 C 
ATOM     45  C   UNL     1       1.142   8.761  23.982  0.00  0.00    +0.000 C 
ATOM     46  O   UNL     1       2.380   8.221  23.991  0.00  0.00    +0.000 OA
ATOM     47  C   UNL     1       2.863   8.959  25.011  0.00  0.00    +0.000 C 
ATOM     48  C   UNL     1       2.318  10.078  25.950  0.00  0.00    +0.000 C 
ENDBRANCH  42  43
ENDBRANCH  41  42
ENDBRANCH  39  40
ENDBRANCH  35  39
ENDBRANCH  26  27
ENDBRANCH   7  26
TORSDOF 11
ENDMDL
MODEL 4
REMARK VINA RESULT:      -6.8     19.883     23.594
REMARK  Name = Foretinib.pdbqt.pdb
REMARK  11 active torsions:
REMARK  status: ('A' for Active; 'I' for Inactive)
REMARK    1  A    between atoms: C_2  and  N_31
REMARK    2  A    between atoms: C_7  and  O_8
REMARK    3  A    between atoms: O_8  and  C_9
REMARK    4  A    between atoms: C_17  and  O_19
REMARK    5  A    between atoms: C_18  and  O_29
REMARK    6  A    between atoms: O_19  and  C_20
REMARK    7  A    between atoms: C_21  and  C_22
REMARK    8  A    between atoms: C_22  and  N_23
REMARK    9  A    between atoms: C_32  and  C_35
REMARK   10  A    between atoms: C_35  and  C_38
REMARK   11  A    between atoms: N_40  and  C_42
REMARK                            x       y       z     vdW  Elec       q    Type
REMARK                         _______ _______ _______ _____ _____    ______ ____
ROOT
ATOM      1  F   UNL     1      28.986  15.495  19.947  0.00  0.00    +0.000 F 
ATOM      2  C   UNL     1      27.660  12.818  22.005  0.00  0.00    +0.000 A 
ATOM      3  C   UNL     1      27.977  14.098  21.552  0.00  0.00    +0.000 A 
ATOM      4  C   UNL     1      28.038  11.706  21.249  0.00  0.00    +0.000 A 
ATOM      5  C   UNL     1      28.660  14.258  20.350  0.00  0.00    +0.000 A 
ATOM      6  C   UNL     1      28.723  11.867  20.046  0.00  0.00    +0.000 A 
ATOM      7  C   UNL     1      29.014  13.148  19.583  0.00  0.00    +0.000 A 
ENDROOT
BRANCH   2   8
ATOM      8  N   UNL     1      26.973  12.584  23.211  0.00  0.00    +0.000 N 
ATOM      9  C   UNL     1      25.714  12.018  23.321  0.00  0.00    +0.000 C 
ATOM     10  O   UNL     1      24.997  11.660  22.395  0.00  0.00    +0.000 OA
ATOM     11  H   UNL     1      27.428  12.896  24.064  0.00  0.00    +0.000 HD
BRANCH   9  12
ATOM     12  C   UNL     1      25.203  11.904  24.728  0.00  0.00    +0.000 C 
ATOM     13  C   UNL     1      24.703  13.116  25.368  0.00  0.00    +0.000 C 
ATOM     14  C   UNL     1      25.999  12.520  25.784  0.00  0.00    +0.000 C 
BRANCH  12  15
ATOM     15  C   UNL     1      24.490  10.622  25.035  0.00  0.00    +0.000 C 
ATOM     16  O   UNL     1      23.291  10.539  24.790  0.00  0.00    +0.000 OA
ATOM     17  N   UNL     1      25.297   9.613  25.533  0.00  0.00    +0.000 N 
ATOM     18  H   UNL     1      26.289   9.805  25.634  0.00  0.00    +0.000 HD
BRANCH  17  19
ATOM     19  C   UNL     1      24.866   8.320  25.882  0.00  0.00    +0.000 A 
ATOM     20  C   UNL     1      25.263   7.261  25.064  0.00  0.00    +0.000 A 
ATOM     21  C   UNL     1      24.869   5.957  25.357  0.00  0.00    +0.000 A 
ATOM     22  C   UNL     1      24.076   5.721  26.475  0.00  0.00    +0.000 A 
ATOM     23  F   UNL     1      23.697   4.469  26.761  0.00  0.00    +0.000 F 
ATOM     24  C   UNL     1      23.674   6.764  27.302  0.00  0.00    +0.000 A 
ATOM     25  C   UNL     1      24.071   8.064  27.001  0.00  0.00    +0.000 A 
ENDBRANCH  17  19
ENDBRANCH  12  15
ENDBRANCH   9  12
ENDBRANCH   2   8
BRANCH   7  26
ATOM     26  O   UNL     1      29.747  13.245  18.426  0.00  0.00    +0.000 OA
BRANCH  26  27
ATOM     27  C   UNL     1      29.121  12.880  17.250  0.00  0.00    +0.000 A 
ATOM     28  C   UNL     1      28.818  13.888  16.322  0.00  0.00    +0.000 A 
ATOM     29  C   UNL     1      28.233  13.503  15.103  0.00  0.00    +0.000 A 
ATOM     30  C   UNL     1      29.071  15.246  16.574  0.00  0.00    +0.000 A 
ATOM     31  N   UNL     1      27.972  12.220  14.806  0.00  0.00    +0.000 NA
ATOM     32  C   UNL     1      27.924  14.496  14.186  0.00  0.00    +0.000 A 
ATOM     33  C   UNL     1      28.291  11.278  15.721  0.00  0.00    +0.000 A 
ATOM     34  C   UNL     1      28.871  11.547  16.943  0.00  0.00    +0.000 A 
ATOM     35  C   UNL     1      28.176  15.852  14.430  0.00  0.00    +0.000 A 
ATOM     36  C   UNL     1      28.756  16.234  15.641  0.00  0.00    +0.000 A 
BRANCH  36  37
ATOM     37  O   UNL     1      28.976  17.577  15.836  0.00  0.00    +0.000 OA
ATOM     38  C   UNL     1      30.033  17.900  16.697  0.00  0.00    +0.000 C 
ENDBRANCH  36  37
BRANCH  35  39
ATOM     39  O   UNL     1      27.872  16.849  13.533  0.00  0.00    +0.000 OA
BRANCH  39  40
ATOM     40  C   UNL     1      28.144  16.564  12.262  0.00  0.00    +0.000 C 
ATOM     41  C   UNL     1      28.472  16.247  10.799  0.00  0.00    +0.000 C 
BRANCH  41  42
ATOM     42  C   UNL     1      28.807  15.928   9.338  0.00  0.00    +0.000 C 
BRANCH  42  43
ATOM     43  N   UNL     1      29.125  15.627   7.949  0.00  0.00    +0.000 N 
ATOM     44  C   UNL     1      28.705  14.213   7.708  0.00  0.00    +0.000 C 
ATOM     45  C   UNL     1      27.522  13.676   6.839  0.00  0.00    +0.000 C 
ATOM     46  O   UNL     1      26.560  14.251   6.084  0.00  0.00    +0.000 OA
ATOM     47  C   UNL     1      26.934  15.528   6.306  0.00  0.00    +0.000 C 
ATOM     48  C   UNL     1      28.053  16.251   7.117  0.00  0.00    +0.000 C 
ENDBRANCH  42  43
ENDBRANCH  41  42
ENDBRANCH  39  40
ENDBRANCH  35  39
ENDBRANCH  26  27
ENDBRANCH   7  26
TORSDOF 11
ENDMDL
MODEL 5
REMARK VINA RESULT:      -6.6      6.606     11.323
REMARK  Name = Foretinib.pdbqt.pdb
REMARK  11 active torsions:
REMARK  status: ('A' for Active; 'I' for Inactive)
REMARK    1  A    between atoms: C_2  and  N_31
REMARK    2  A    between atoms: C_7  and  O_8
REMARK    3  A    between atoms: O_8  and  C_9
REMARK    4  A    between atoms: C_17  and  O_19
REMARK    5  A    between atoms: C_18  and  O_29
REMARK    6  A    between atoms: O_19  and  C_20
REMARK    7  A    between atoms: C_21  and  C_22
REMARK    8  A    between atoms: C_22  and  N_23
REMARK    9  A    between atoms: C_32  and  C_35
REMARK   10  A    between atoms: C_35  and  C_38
REMARK   11  A    between atoms: N_40  and  C_42
REMARK                            x       y       z     vdW  Elec       q    Type
REMARK                         _______ _______ _______ _____ _____    ______ ____
ROOT
ATOM      1  F   UNL     1      17.880  21.477  31.661  0.00  0.00    +0.000 F 
ATOM      2  C   UNL     1      20.198  18.944  30.489  0.00  0.00    +0.000 A 
ATOM      3  C   UNL     1      19.645  20.191  30.781  0.00  0.00    +0.000 A 
ATOM      4  C   UNL     1      19.502  17.784  30.837  0.00  0.00    +0.000 A 
ATOM      5  C   UNL     1      18.411  20.270  31.418  0.00  0.00    +0.000 A 
ATOM      6  C   UNL     1      18.266  17.864  31.474  0.00  0.00    +0.000 A 
ATOM      7  C   UNL     1      17.730  19.110  31.788  0.00  0.00    +0.000 A 
ENDROOT
BRANCH   2   8
ATOM      8  N   UNL     1      21.440  18.791  29.845  0.00  0.00    +0.000 N 
ATOM      9  C   UNL     1      21.620  18.399  28.528  0.00  0.00    +0.000 C 
ATOM     10  O   UNL     1      20.736  18.102  27.735  0.00  0.00    +0.000 OA
ATOM     11  H   UNL     1      22.269  18.945  30.411  0.00  0.00    +0.000 HD
BRANCH   9  12
ATOM     12  C   UNL     1      23.054  18.294  28.101  0.00  0.00    +0.000 C 
ATOM     13  C   UNL     1      24.030  19.139  28.780  0.00  0.00    +0.000 C 
ATOM     14  C   UNL     1      23.626  19.425  27.379  0.00  0.00    +0.000 C 
BRANCH  12  15
ATOM     15  C   UNL     1      23.493  16.913  27.715  0.00  0.00    +0.000 C 
ATOM     16  O   UNL     1      24.657  16.737  27.373  0.00  0.00    +0.000 OA
ATOM     17  N   UNL     1      22.519  15.937  27.837  0.00  0.00    +0.000 N 
ATOM     18  H   UNL     1      21.607  16.218  28.188  0.00  0.00    +0.000 HD
BRANCH  17  19
ATOM     19  C   UNL     1      22.690  14.571  27.550  0.00  0.00    +0.000 A 
ATOM     20  C   UNL     1      22.499  14.156  26.231  0.00  0.00    +0.000 A 
ATOM     21  C   UNL     1      22.654  12.815  25.884  0.00  0.00    +0.000 A 
ATOM     22  C   UNL     1      23.003  11.895  26.865  0.00  0.00    +0.000 A 
ATOM     23  F   UNL     1      23.155  10.606  26.534  0.00  0.00    +0.000 F 
ATOM     24  C   UNL     1      23.200  12.290  28.183  0.00  0.00    +0.000 A 
ATOM     25  C   UNL     1      23.042  13.632  28.522  0.00  0.00    +0.000 A 
ENDBRANCH  17  19
ENDBRANCH  12  15
ENDBRANCH   9  12
ENDBRANCH   2   8
BRANCH   7  26
ATOM     26  O   UNL     1      16.480  19.129  32.358  0.00  0.00    +0.000 OA
BRANCH  26  27
ATOM     27  C   UNL     1      15.400  18.942  31.517  0.00  0.00    +0.000 A 
ATOM     28  C   UNL     1      14.671  20.072  31.116  0.00  0.00    +0.000 A 
ATOM     29  C   UNL     1      13.608  19.881  30.216  0.00  0.00    +0.000 A 
ATOM     30  C   UNL     1      14.962  21.363  31.585  0.00  0.00    +0.000 A 
ATOM     31  N   UNL     1      13.288  18.671  29.730  0.00  0.00    +0.000 NA
ATOM     32  C   UNL     1      12.879  20.993  29.822  0.00  0.00    +0.000 A 
ATOM     33  C   UNL     1      14.023  17.610  30.131  0.00  0.00    +0.000 A 
ATOM     34  C   UNL     1      15.087  17.688  31.006  0.00  0.00    +0.000 A 
ATOM     35  C   UNL     1      13.166  22.283  30.284  0.00  0.00    +0.000 A 
ATOM     36  C   UNL     1      14.220  22.473  31.179  0.00  0.00    +0.000 A 
BRANCH  36  37
ATOM     37  O   UNL     1      14.456  23.757  31.609  0.00  0.00    +0.000 OA
ATOM     38  C   UNL     1      14.138  24.016  32.950  0.00  0.00    +0.000 C 
ENDBRANCH  36  37
BRANCH  35  39
ATOM     39  O   UNL     1      12.450  23.395  29.907  0.00  0.00    +0.000 OA
BRANCH  39  40
ATOM     40  C   UNL     1      11.138  23.318  30.117  0.00  0.00    +0.000 C 
ATOM     41  C   UNL     1       9.628  23.243  30.370  0.00  0.00    +0.000 C 
BRANCH  41  42
ATOM     42  C   UNL     1       8.118  23.174  30.621  0.00  0.00    +0.000 C 
BRANCH  42  43
ATOM     43  N   UNL     1       6.684  23.110  30.862  0.00  0.00    +0.000 N 
ATOM     44  C   UNL     1       6.319  24.344  31.623  0.00  0.00    +0.000 C 
ATOM     45  C   UNL     1       5.492  25.582  31.145  0.00  0.00    +0.000 C 
ATOM     46  O   UNL     1       4.886  25.931  29.989  0.00  0.00    +0.000 OA
ATOM     47  C   UNL     1       5.220  24.821  29.300  0.00  0.00    +0.000 C 
ATOM     48  C   UNL     1       6.015  23.511  29.587  0.00  0.00    +0.000 C 
ENDBRANCH  42  43
ENDBRANCH  41  42
ENDBRANCH  39  40
ENDBRANCH  35  39
ENDBRANCH  26  27
ENDBRANCH   7  26
TORSDOF 11
ENDMDL
MODEL 6
REMARK VINA RESULT:      -6.6      6.368     12.524
REMARK  Name = Foretinib.pdbqt.pdb
REMARK  11 active torsions:
REMARK  status: ('A' for Active; 'I' for Inactive)
REMARK    1  A    between atoms: C_2  and  N_31
REMARK    2  A    between atoms: C_7  and  O_8
REMARK    3  A    between atoms: O_8  and  C_9
REMARK    4  A    between atoms: C_17  and  O_19
REMARK    5  A    between atoms: C_18  and  O_29
REMARK    6  A    between atoms: O_19  and  C_20
REMARK    7  A    between atoms: C_21  and  C_22
REMARK    8  A    between atoms: C_22  and  N_23
REMARK    9  A    between atoms: C_32  and  C_35
REMARK   10  A    between atoms: C_35  and  C_38
REMARK   11  A    between atoms: N_40  and  C_42
REMARK                            x       y       z     vdW  Elec       q    Type
REMARK                         _______ _______ _______ _____ _____    ______ ____
ROOT
ATOM      1  F   UNL     1      14.498  35.191  24.639  0.00  0.00    +0.000 F 
ATOM      2  C   UNL     1      12.194  32.725  25.971  0.00  0.00    +0.000 A 
ATOM      3  C   UNL     1      13.245  33.638  25.890  0.00  0.00    +0.000 A 
ATOM      4  C   UNL     1      11.371  32.522  24.861  0.00  0.00    +0.000 A 
ATOM      5  C   UNL     1      13.462  34.342  24.710  0.00  0.00    +0.000 A 
ATOM      6  C   UNL     1      11.590  33.226  23.679  0.00  0.00    +0.000 A 
ATOM      7  C   UNL     1      12.623  34.157  23.611  0.00  0.00    +0.000 A 
ENDROOT
BRANCH   2   8
ATOM      8  N   UNL     1      11.919  31.979  27.133  0.00  0.00    +0.000 N 
ATOM      9  C   UNL     1      12.840  31.222  27.838  0.00  0.00    +0.000 C 
ATOM     10  O   UNL     1      14.019  31.063  27.549  0.00  0.00    +0.000 OA
ATOM     11  H   UNL     1      10.954  31.969  27.451  0.00  0.00    +0.000 HD
BRANCH   9  12
ATOM     12  C   UNL     1      12.275  30.505  29.029  0.00  0.00    +0.000 C 
ATOM     13  C   UNL     1      12.309  31.193  30.315  0.00  0.00    +0.000 C 
ATOM     14  C   UNL     1      13.214  30.046  30.046  0.00  0.00    +0.000 C 
BRANCH  12  15
ATOM     15  C   UNL     1      11.075  29.653  28.738  0.00  0.00    +0.000 C 
ATOM     16  O   UNL     1       9.960  30.106  28.968  0.00  0.00    +0.000 OA
ATOM     17  N   UNL     1      11.360  28.422  28.174  0.00  0.00    +0.000 N 
ATOM     18  H   UNL     1      12.333  28.199  27.986  0.00  0.00    +0.000 HD
BRANCH  17  19
ATOM     19  C   UNL     1      10.409  27.456  27.800  0.00  0.00    +0.000 A 
ATOM     20  C   UNL     1      10.088  26.466  28.731  0.00  0.00    +0.000 A 
ATOM     21  C   UNL     1       9.154  25.480  28.420  0.00  0.00    +0.000 A 
ATOM     22  C   UNL     1       8.542  25.494  27.172  0.00  0.00    +0.000 A 
ATOM     23  F   UNL     1       7.641  24.549  26.871  0.00  0.00    +0.000 F 
ATOM     24  C   UNL     1       8.846  26.473  26.233  0.00  0.00    +0.000 A 
ATOM     25  C   UNL     1       9.783  27.453  26.552  0.00  0.00    +0.000 A 
ENDBRANCH  17  19
ENDBRANCH  12  15
ENDBRANCH   9  12
ENDBRANCH   2   8
BRANCH   7  26
ATOM     26  O   UNL     1      12.832  34.774  22.401  0.00  0.00    +0.000 OA
BRANCH  26  27
ATOM     27  C   UNL     1      13.216  33.974  21.343  0.00  0.00    +0.000 A 
ATOM     28  C   UNL     1      13.096  34.493  20.044  0.00  0.00    +0.000 A 
ATOM     29  C   UNL     1      13.541  33.696  18.976  0.00  0.00    +0.000 A 
ATOM     30  C   UNL     1      12.547  35.759  19.787  0.00  0.00    +0.000 A 
ATOM     31  N   UNL     1      14.080  32.481  19.163  0.00  0.00    +0.000 NA
ATOM     32  C   UNL     1      13.418  34.201  17.690  0.00  0.00    +0.000 A 
ATOM     33  C   UNL     1      14.190  32.022  20.430  0.00  0.00    +0.000 A 
ATOM     34  C   UNL     1      13.789  32.724  21.547  0.00  0.00    +0.000 A 
ATOM     35  C   UNL     1      12.873  35.464  17.426  0.00  0.00    +0.000 A 
ATOM     36  C   UNL     1      12.429  36.255  18.487  0.00  0.00    +0.000 A 
BRANCH  36  37
ATOM     37  O   UNL     1      11.895  37.483  18.176  0.00  0.00    +0.000 OA
ATOM     38  C   UNL     1      12.699  38.589  18.482  0.00  0.00    +0.000 C 
ENDBRANCH  36  37
BRANCH  35  39
ATOM     39  O   UNL     1      12.738  35.977  16.157  0.00  0.00    +0.000 OA
BRANCH  39  40
ATOM     40  C   UNL     1      13.862  36.020  15.446  0.00  0.00    +0.000 C 
ATOM     41  C   UNL     1      15.149  36.059  14.614  0.00  0.00    +0.000 C 
BRANCH  41  42
ATOM     42  C   UNL     1      16.432  36.100  13.777  0.00  0.00    +0.000 C 
BRANCH  42  43
ATOM     43  N   UNL     1      17.651  36.141  12.982  0.00  0.00    +0.000 N 
ATOM     44  C   UNL     1      18.742  35.583  13.838  0.00  0.00    +0.000 C 
ATOM     45  C   UNL     1      19.507  34.227  13.693  0.00  0.00    +0.000 C 
ATOM     46  O   UNL     1      19.444  33.189  12.830  0.00  0.00    +0.000 OA
ATOM     47  C   UNL     1      18.456  33.688  12.061  0.00  0.00    +0.000 C 
ATOM     48  C   UNL     1      17.589  34.984  12.039  0.00  0.00    +0.000 C 
ENDBRANCH  42  43
ENDBRANCH  41  42
ENDBRANCH  39  40
ENDBRANCH  35  39
ENDBRANCH  26  27
ENDBRANCH   7  26
TORSDOF 11
ENDMDL
MODEL 7
REMARK VINA RESULT:      -6.4      9.486     14.872
REMARK  Name = Foretinib.pdbqt.pdb
REMARK  11 active torsions:
REMARK  status: ('A' for Active; 'I' for Inactive)
REMARK    1  A    between atoms: C_2  and  N_31
REMARK    2  A    between atoms: C_7  and  O_8
REMARK    3  A    between atoms: O_8  and  C_9
REMARK    4  A    between atoms: C_17  and  O_19
REMARK    5  A    between atoms: C_18  and  O_29
REMARK    6  A    between atoms: O_19  and  C_20
REMARK    7  A    between atoms: C_21  and  C_22
REMARK    8  A    between atoms: C_22  and  N_23
REMARK    9  A    between atoms: C_32  and  C_35
REMARK   10  A    between atoms: C_35  and  C_38
REMARK   11  A    between atoms: N_40  and  C_42
REMARK                            x       y       z     vdW  Elec       q    Type
REMARK                         _______ _______ _______ _____ _____    ______ ____
ROOT
ATOM      1  F   UNL     1       5.418  11.187  30.837  0.00  0.00    +0.000 F 
ATOM      2  C   UNL     1       6.116   9.016  28.015  0.00  0.00    +0.000 A 
ATOM      3  C   UNL     1       5.444   9.885  28.875  0.00  0.00    +0.000 A 
ATOM      4  C   UNL     1       7.432   8.645  28.300  0.00  0.00    +0.000 A 
ATOM      5  C   UNL     1       6.090  10.379  30.004  0.00  0.00    +0.000 A 
ATOM      6  C   UNL     1       8.077   9.138  29.433  0.00  0.00    +0.000 A 
ATOM      7  C   UNL     1       7.413  10.027  30.274  0.00  0.00    +0.000 A 
ENDROOT
BRANCH   2   8
ATOM      8  N   UNL     1       5.523   8.478  26.857  0.00  0.00    +0.000 N 
ATOM      9  C   UNL     1       4.671   7.387  26.823  0.00  0.00    +0.000 C 
ATOM     10  O   UNL     1       4.323   6.710  27.782  0.00  0.00    +0.000 OA
ATOM     11  H   UNL     1       5.779   8.907  25.972  0.00  0.00    +0.000 HD
BRANCH   9  12
ATOM     12  C   UNL     1       4.199   7.008  25.450  0.00  0.00    +0.000 C 
ATOM     13  C   UNL     1       4.469   7.937  24.358  0.00  0.00    +0.000 C 
ATOM     14  C   UNL     1       3.090   7.768  24.886  0.00  0.00    +0.000 C 
BRANCH  12  15
ATOM     15  C   UNL     1       4.283   5.543  25.141  0.00  0.00    +0.000 C 
ATOM     16  O   UNL     1       3.386   5.026  24.484  0.00  0.00    +0.000 OA
ATOM     17  N   UNL     1       5.428   4.916  25.601  0.00  0.00    +0.000 N 
ATOM     18  H   UNL     1       6.118   5.483  26.086  0.00  0.00    +0.000 HD
BRANCH  17  19
ATOM     19  C   UNL     1       5.742   3.556  25.425  0.00  0.00    +0.000 A 
ATOM     20  C   UNL     1       5.163   2.637  26.302  0.00  0.00    +0.000 A 
ATOM     21  C   UNL     1       5.434   1.276  26.179  0.00  0.00    +0.000 A 
ATOM     22  C   UNL     1       6.288   0.842  25.171  0.00  0.00    +0.000 A 
ATOM     23  F   UNL     1       6.550  -0.466  25.049  0.00  0.00    +0.000 F 
ATOM     24  C   UNL     1       6.872   1.742  24.287  0.00  0.00    +0.000 A 
ATOM     25  C   UNL     1       6.596   3.101  24.418  0.00  0.00    +0.000 A 
ENDBRANCH  17  19
ENDBRANCH  12  15
ENDBRANCH   9  12
ENDBRANCH   2   8
BRANCH   7  26
ATOM     26  O   UNL     1       8.074  10.431  31.408  0.00  0.00    +0.000 OA
BRANCH  26  27
ATOM     27  C   UNL     1       9.185  11.234  31.239  0.00  0.00    +0.000 A 
ATOM     28  C   UNL     1       8.986  12.617  31.104  0.00  0.00    +0.000 A 
ATOM     29  C   UNL     1      10.124  13.435  30.989  0.00  0.00    +0.000 A 
ATOM     30  C   UNL     1       7.707  13.195  31.074  0.00  0.00    +0.000 A 
ATOM     31  N   UNL     1      11.370  12.938  31.016  0.00  0.00    +0.000 NA
ATOM     32  C   UNL     1       9.933  14.801  30.848  0.00  0.00    +0.000 A 
ATOM     33  C   UNL     1      11.520  11.602  31.161  0.00  0.00    +0.000 A 
ATOM     34  C   UNL     1      10.473  10.713  31.286  0.00  0.00    +0.000 A 
ATOM     35  C   UNL     1       8.660  15.384  30.819  0.00  0.00    +0.000 A 
ATOM     36  C   UNL     1       7.531  14.572  30.932  0.00  0.00    +0.000 A 
BRANCH  36  37
ATOM     37  O   UNL     1       6.304  15.192  30.890  0.00  0.00    +0.000 OA
ATOM     38  C   UNL     1       5.326  14.550  30.119  0.00  0.00    +0.000 C 
ENDBRANCH  36  37
BRANCH  35  39
ATOM     39  O   UNL     1       8.454  16.736  30.675  0.00  0.00    +0.000 OA
BRANCH  39  40
ATOM     40  C   UNL     1       9.550  17.451  30.433  0.00  0.00    +0.000 C 
ATOM     41  C   UNL     1      10.804  18.288  30.159  0.00  0.00    +0.000 C 
BRANCH  41  42
ATOM     42  C   UNL     1      12.057  19.128  29.890  0.00  0.00    +0.000 C 
BRANCH  42  43
ATOM     43  N   UNL     1      13.248  19.926  29.635  0.00  0.00    +0.000 N 
ATOM     44  C   UNL     1      12.855  21.357  29.815  0.00  0.00    +0.000 C 
ATOM     45  C   UNL     1      13.266  22.352  30.948  0.00  0.00    +0.000 C 
ATOM     46  O   UNL     1      14.038  22.266  32.054  0.00  0.00    +0.000 OA
ATOM     47  C   UNL     1      14.388  20.973  31.896  0.00  0.00    +0.000 C 
ATOM     48  C   UNL     1      14.094  19.843  30.863  0.00  0.00    +0.000 C 
ENDBRANCH  42  43
ENDBRANCH  41  42
ENDBRANCH  39  40
ENDBRANCH  35  39
ENDBRANCH  26  27
ENDBRANCH   7  26
TORSDOF 11
ENDMDL
MODEL 8
REMARK VINA RESULT:      -6.4     14.658     17.135
REMARK  Name = Foretinib.pdbqt.pdb
REMARK  11 active torsions:
REMARK  status: ('A' for Active; 'I' for Inactive)
REMARK    1  A    between atoms: C_2  and  N_31
REMARK    2  A    between atoms: C_7  and  O_8
REMARK    3  A    between atoms: O_8  and  C_9
REMARK    4  A    between atoms: C_17  and  O_19
REMARK    5  A    between atoms: C_18  and  O_29
REMARK    6  A    between atoms: O_19  and  C_20
REMARK    7  A    between atoms: C_21  and  C_22
REMARK    8  A    between atoms: C_22  and  N_23
REMARK    9  A    between atoms: C_32  and  C_35
REMARK   10  A    between atoms: C_35  and  C_38
REMARK   11  A    between atoms: N_40  and  C_42
REMARK                            x       y       z     vdW  Elec       q    Type
REMARK                         _______ _______ _______ _____ _____    ______ ____
ROOT
ATOM      1  F   UNL     1      -4.510  24.854  15.733  0.00  0.00    +0.000 F 
ATOM      2  C   UNL     1      -4.390  24.828  19.359  0.00  0.00    +0.000 A 
ATOM      3  C   UNL     1      -4.360  24.386  18.036  0.00  0.00    +0.000 A 
ATOM      4  C   UNL     1      -4.574  26.186  19.629  0.00  0.00    +0.000 A 
ATOM      5  C   UNL     1      -4.508  25.300  16.998  0.00  0.00    +0.000 A 
ATOM      6  C   UNL     1      -4.724  27.100  18.588  0.00  0.00    +0.000 A 
ATOM      7  C   UNL     1      -4.666  26.660  17.268  0.00  0.00    +0.000 A 
ENDROOT
BRANCH   2   8
ATOM      8  N   UNL     1      -4.248  23.958  20.457  0.00  0.00    +0.000 N 
ATOM      9  C   UNL     1      -5.287  23.337  21.129  0.00  0.00    +0.000 C 
ATOM     10  O   UNL     1      -6.481  23.466  20.893  0.00  0.00    +0.000 OA
ATOM     11  H   UNL     1      -3.304  23.811  20.803  0.00  0.00    +0.000 HD
BRANCH   9  12
ATOM     12  C   UNL     1      -4.857  22.477  22.282  0.00  0.00    +0.000 C 
ATOM     13  C   UNL     1      -5.884  22.031  23.216  0.00  0.00    +0.000 C 
ATOM     14  C   UNL     1      -4.899  23.069  23.614  0.00  0.00    +0.000 C 
BRANCH  12  15
ATOM     15  C   UNL     1      -3.750  21.516  21.969  0.00  0.00    +0.000 C 
ATOM     16  O   UNL     1      -2.656  21.962  21.641  0.00  0.00    +0.000 OA
ATOM     17  N   UNL     1      -4.074  20.181  22.138  0.00  0.00    +0.000 N 
ATOM     18  H   UNL     1      -5.007  19.957  22.470  0.00  0.00    +0.000 HD
BRANCH  17  19
ATOM     19  C   UNL     1      -3.205  19.096  21.922  0.00  0.00    +0.000 A 
ATOM     20  C   UNL     1      -2.373  18.711  22.975  0.00  0.00    +0.000 A 
ATOM     21  C   UNL     1      -1.490  17.644  22.823  0.00  0.00    +0.000 A 
ATOM     22  C   UNL     1      -1.448  16.964  21.611  0.00  0.00    +0.000 A 
ATOM     23  F   UNL     1      -0.602  15.936  21.462  0.00  0.00    +0.000 F 
ATOM     24  C   UNL     1      -2.270  17.332  20.552  0.00  0.00    +0.000 A 
ATOM     25  C   UNL     1      -3.149  18.400  20.712  0.00  0.00    +0.000 A 
ENDBRANCH  17  19
ENDBRANCH  12  15
ENDBRANCH   9  12
ENDBRANCH   2   8
BRANCH   7  26
ATOM     26  O   UNL     1      -4.885  27.594  16.285  0.00  0.00    +0.000 OA
BRANCH  26  27
ATOM     27  C   UNL     1      -4.119  28.743  16.326  0.00  0.00    +0.000 A 
ATOM     28  C   UNL     1      -2.786  28.665  15.892  0.00  0.00    +0.000 A 
ATOM     29  C   UNL     1      -2.029  29.849  15.882  0.00  0.00    +0.000 A 
ATOM     30  C   UNL     1      -2.196  27.458  15.483  0.00  0.00    +0.000 A 
ATOM     31  N   UNL     1      -2.542  31.032  16.257  0.00  0.00    +0.000 NA
ATOM     32  C   UNL     1      -0.710  29.776  15.462  0.00  0.00    +0.000 A 
ATOM     33  C   UNL     1      -3.833  31.068  16.656  0.00  0.00    +0.000 A 
ATOM     34  C   UNL     1      -4.663  29.967  16.699  0.00  0.00    +0.000 A 
ATOM     35  C   UNL     1      -0.116  28.576  15.051  0.00  0.00    +0.000 A 
ATOM     36  C   UNL     1      -0.867  27.400  15.062  0.00  0.00    +0.000 A 
BRANCH  36  37
ATOM     37  O   UNL     1      -0.236  26.248  14.656  0.00  0.00    +0.000 OA
ATOM     38  C   UNL     1      -0.927  25.056  14.913  0.00  0.00    +0.000 C 
ENDBRANCH  36  37
BRANCH  35  39
ATOM     39  O   UNL     1       1.192  28.486  14.636  0.00  0.00    +0.000 OA
BRANCH  39  40
ATOM     40  C   UNL     1       1.869  29.632  14.653  0.00  0.00    +0.000 C 
ATOM     41  C   UNL     1       2.634  30.960  14.664  0.00  0.00    +0.000 C 
BRANCH  41  42
ATOM     42  C   UNL     1       3.393  32.291  14.677  0.00  0.00    +0.000 C 
BRANCH  42  43
ATOM     43  N   UNL     1       4.115  33.555  14.691  0.00  0.00    +0.000 N 
ATOM     44  C   UNL     1       5.246  33.396  15.656  0.00  0.00    +0.000 C 
ATOM     45  C   UNL     1       6.779  33.309  15.364  0.00  0.00    +0.000 C 
ATOM     46  O   UNL     1       7.536  33.338  14.246  0.00  0.00    +0.000 OA
ATOM     47  C   UNL     1       6.517  33.476  13.374  0.00  0.00    +0.000 C 
ATOM     48  C   UNL     1       4.964  33.580  13.462  0.00  0.00    +0.000 C 
ENDBRANCH  42  43
ENDBRANCH  41  42
ENDBRANCH  39  40
ENDBRANCH  35  39
ENDBRANCH  26  27
ENDBRANCH   7  26
TORSDOF 11
ENDMDL
MODEL 9
REMARK VINA RESULT:      -6.4      7.067     10.687
REMARK  Name = Foretinib.pdbqt.pdb
REMARK  11 active torsions:
REMARK  status: ('A' for Active; 'I' for Inactive)
REMARK    1  A    between atoms: C_2  and  N_31
REMARK    2  A    between atoms: C_7  and  O_8
REMARK    3  A    between atoms: O_8  and  C_9
REMARK    4  A    between atoms: C_17  and  O_19
REMARK    5  A    between atoms: C_18  and  O_29
REMARK    6  A    between atoms: O_19  and  C_20
REMARK    7  A    between atoms: C_21  and  C_22
REMARK    8  A    between atoms: C_22  and  N_23
REMARK    9  A    between atoms: C_32  and  C_35
REMARK   10  A    between atoms: C_35  and  C_38
REMARK   11  A    between atoms: N_40  and  C_42
REMARK                            x       y       z     vdW  Elec       q    Type
REMARK                         _______ _______ _______ _____ _____    ______ ____
ROOT
ATOM      1  F   UNL     1      19.235  19.182  32.951  0.00  0.00    +0.000 F 
ATOM      2  C   UNL     1      20.457  20.451  29.779  0.00  0.00    +0.000 A 
ATOM      3  C   UNL     1      20.310  19.644  30.907  0.00  0.00    +0.000 A 
ATOM      4  C   UNL     1      19.629  21.564  29.615  0.00  0.00    +0.000 A 
ATOM      5  C   UNL     1      19.339  19.949  31.856  0.00  0.00    +0.000 A 
ATOM      6  C   UNL     1      18.658  21.870  30.567  0.00  0.00    +0.000 A 
ATOM      7  C   UNL     1      18.496  21.047  31.679  0.00  0.00    +0.000 A 
ENDROOT
BRANCH   2   8
ATOM      8  N   UNL     1      21.418  20.200  28.782  0.00  0.00    +0.000 N 
ATOM      9  C   UNL     1      21.505  19.046  28.022  0.00  0.00    +0.000 C 
ATOM     10  O   UNL     1      20.783  18.061  28.115  0.00  0.00    +0.000 OA
ATOM     11  H   UNL     1      22.127  20.914  28.642  0.00  0.00    +0.000 HD
BRANCH   9  12
ATOM     12  C   UNL     1      22.642  19.029  27.043  0.00  0.00    +0.000 C 
ATOM     13  C   UNL     1      23.902  19.640  27.454  0.00  0.00    +0.000 C 
ATOM     14  C   UNL     1      23.034  20.300  26.445  0.00  0.00    +0.000 C 
BRANCH  12  15
ATOM     15  C   UNL     1      22.723  17.794  26.196  0.00  0.00    +0.000 C 
ATOM     16  O   UNL     1      22.365  17.855  25.026  0.00  0.00    +0.000 OA
ATOM     17  N   UNL     1      23.261  16.688  26.832  0.00  0.00    +0.000 N 
ATOM     18  H   UNL     1      23.569  16.796  27.794  0.00  0.00    +0.000 HD
BRANCH  17  19
ATOM     19  C   UNL     1      23.452  15.423  26.248  0.00  0.00    +0.000 A 
ATOM     20  C   UNL     1      24.580  15.243  25.443  0.00  0.00    +0.000 A 
ATOM     21  C   UNL     1      24.825  14.013  24.836  0.00  0.00    +0.000 A 
ATOM     22  C   UNL     1      23.935  12.965  25.041  0.00  0.00    +0.000 A 
ATOM     23  F   UNL     1      24.169  11.781  24.460  0.00  0.00    +0.000 F 
ATOM     24  C   UNL     1      22.809  13.125  25.840  0.00  0.00    +0.000 A 
ATOM     25  C   UNL     1      22.571  14.357  26.442  0.00  0.00    +0.000 A 
ENDBRANCH  17  19
ENDBRANCH  12  15
ENDBRANCH   9  12
ENDBRANCH   2   8
BRANCH   7  26
ATOM     26  O   UNL     1      17.568  21.433  32.615  0.00  0.00    +0.000 OA
BRANCH  26  27
ATOM     27  C   UNL     1      16.255  21.529  32.199  0.00  0.00    +0.000 A 
ATOM     28  C   UNL     1      15.623  22.779  32.290  0.00  0.00    +0.000 A 
ATOM     29  C   UNL     1      14.305  22.883  31.813  0.00  0.00    +0.000 A 
ATOM     30  C   UNL     1      16.255  23.905  32.840  0.00  0.00    +0.000 A 
ATOM     31  N   UNL     1      13.652  21.842  31.273  0.00  0.00    +0.000 NA
ATOM     32  C   UNL     1      13.673  24.114  31.907  0.00  0.00    +0.000 A 
ATOM     33  C   UNL     1      14.301  20.658  31.191  0.00  0.00    +0.000 A 
ATOM     34  C   UNL     1      15.593  20.449  31.625  0.00  0.00    +0.000 A 
ATOM     35  C   UNL     1      14.298  25.242  32.453  0.00  0.00    +0.000 A 
ATOM     36  C   UNL     1      15.607  25.138  32.927  0.00  0.00    +0.000 A 
BRANCH  36  37
ATOM     37  O   UNL     1      16.174  26.271  33.461  0.00  0.00    +0.000 OA
ATOM     38  C   UNL     1      16.483  26.210  34.826  0.00  0.00    +0.000 C 
ENDBRANCH  36  37
BRANCH  35  39
ATOM     39  O   UNL     1      13.684  26.468  32.558  0.00  0.00    +0.000 OA
BRANCH  39  40
ATOM     40  C   UNL     1      12.592  26.616  31.812  0.00  0.00    +0.000 C 
ATOM     41  C   UNL     1      11.327  26.796  30.966  0.00  0.00    +0.000 C 
BRANCH  41  42
ATOM     42  C   UNL     1      10.062  26.983  30.122  0.00  0.00    +0.000 C 
BRANCH  42  43
ATOM     43  N   UNL     1       8.860  27.162  29.319  0.00  0.00    +0.000 N 
ATOM     44  C   UNL     1       9.249  26.911  27.898  0.00  0.00    +0.000 C 
ATOM     45  C   UNL     1       8.863  25.712  26.972  0.00  0.00    +0.000 C 
ATOM     46  O   UNL     1       8.122  24.593  27.126  0.00  0.00    +0.000 OA
ATOM     47  C   UNL     1       7.774  24.815  28.410  0.00  0.00    +0.000 C 
ATOM     48  C   UNL     1       8.047  25.918  29.478  0.00  0.00    +0.000 C 
ENDBRANCH  42  43
ENDBRANCH  41  42
ENDBRANCH  39  40
ENDBRANCH  35  39
ENDBRANCH  26  27
ENDBRANCH   7  26
TORSDOF 11
ENDMDL
