MODEL 1
REMARK VINA RESULT:      -7.2      0.000      0.000
REMARK  Name = Fulvestrant.pdbqt.pdb
REMARK  12 active torsions:
REMARK  status: ('A' for Active; 'I' for Inactive)
REMARK    1  A    between atoms: C_6  and  O_40
REMARK    2  A    between atoms: C_8  and  C_19
REMARK    3  A    between atoms: C_18  and  O_42
REMARK    4  A    between atoms: C_20  and  C_21
REMARK    5  A    between atoms: C_22  and  C_23
REMARK    6  A    between atoms: C_23  and  C_24
REMARK    7  A    between atoms: C_25  and  C_26
REMARK    8  A    between atoms: C_27  and  S_28
REMARK    9  A    between atoms: S_28  and  C_30
REMARK   10  A    between atoms: C_30  and  C_31
REMARK   11  A    between atoms: C_32  and  C_33
REMARK   12  A    between atoms: C_33  and  C_36
REMARK                            x       y       z     vdW  Elec       q    Type
REMARK                         _______ _______ _______ _____ _____    ______ ____
ROOT
ATOM      1  C   UNL     1      19.576  28.405   3.589  0.00  0.00    +0.000 C 
ATOM      2  C   UNL     1      18.877  27.532   2.438  0.00  0.00    +0.000 C 
ATOM      3  C   UNL     1      20.894  28.058   4.212  0.00  0.00    +0.000 A 
ATOM      4  C   UNL     1      21.874  27.080   3.529  0.00  0.00    +0.000 A 
ATOM      5  C   UNL     1      19.945  26.738   1.839  0.00  0.00    +0.000 C 
ATOM      6  C   UNL     1      18.306  28.609   1.489  0.00  0.00    +0.000 C 
ATOM      7  C   UNL     1      19.264  29.775   3.311  0.00  0.00    +0.000 C 
ATOM      8  C   UNL     1      21.333  28.647   5.505  0.00  0.00    +0.000 A 
ATOM      9  C   UNL     1      21.341  26.513   2.347  0.00  0.00    +0.000 C 
ATOM     10  C   UNL     1      18.508  29.913   2.016  0.00  0.00    +0.000 C 
ATOM     11  C   UNL     1      17.736  26.697   3.071  0.00  0.00    +0.000 C 
ATOM     12  C   UNL     1      23.212  26.734   4.085  0.00  0.00    +0.000 A 
ATOM     13  C   UNL     1      22.630  28.201   5.854  0.00  0.00    +0.000 A 
ATOM     14  C   UNL     1      23.605  27.328   5.308  0.00  0.00    +0.000 A 
ATOM     15  C   UNL     1      24.088  25.852   3.457  0.00  0.00    +0.000 A 
ATOM     16  C   UNL     1      24.830  27.061   5.898  0.00  0.00    +0.000 A 
ATOM     17  C   UNL     1      25.326  25.573   4.039  0.00  0.00    +0.000 A 
ATOM     18  C   UNL     1      25.683  26.176   5.247  0.00  0.00    +0.000 A 
ENDROOT
BRANCH   8  19
ATOM     19  C   UNL     1      20.485  29.398   6.353  0.00  0.00    +0.000 C 
ATOM     20  C   UNL     1      19.580  30.208   7.287  0.00  0.00    +0.000 C 
BRANCH  20  21
ATOM     21  C   UNL     1      18.694  31.011   8.243  0.00  0.00    +0.000 C 
ATOM     22  C   UNL     1      17.781  31.801   9.187  0.00  0.00    +0.000 C 
BRANCH  22  23
ATOM     23  C   UNL     1      16.841  32.578  10.113  0.00  0.00    +0.000 C 
BRANCH  23  24
ATOM     24  C   UNL     1      15.929  33.374  11.053  0.00  0.00    +0.000 C 
ATOM     25  C   UNL     1      15.024  34.145  12.018  0.00  0.00    +0.000 C 
BRANCH  25  26
ATOM     26  C   UNL     1      14.120  34.890  13.006  0.00  0.00    +0.000 C 
ATOM     27  C   UNL     1      13.229  35.611  14.022  0.00  0.00    +0.000 C 
BRANCH  27  28
ATOM     28  S   UNL     1      12.213  36.417  15.212  0.00  0.00    +0.000 S 
ATOM     29  O   UNL     1      11.063  35.493  14.941  0.00  0.00    +0.000 OA
BRANCH  28  30
ATOM     30  C   UNL     1      12.784  35.416  16.544  0.00  0.00    +0.000 C 
BRANCH  30  31
ATOM     31  C   UNL     1      13.302  34.556  17.702  0.00  0.00    +0.000 C 
ATOM     32  C   UNL     1      13.819  33.681  18.849  0.00  0.00    +0.000 C 
BRANCH  32  33
ATOM     33  C   UNL     1      14.312  32.836  19.941  0.00  0.00    +0.000 C 
ATOM     34  F   UNL     1      15.602  33.190  20.196  0.00  0.00    +0.000 F 
ATOM     35  F   UNL     1      14.360  31.553  19.484  0.00  0.00    +0.000 F 
BRANCH  33  36
ATOM     36  C   UNL     1      13.460  32.929  21.210  0.00  0.00    +0.000 C 
ATOM     37  F   UNL     1      14.034  33.722  22.152  0.00  0.00    +0.000 F 
ATOM     38  F   UNL     1      13.262  31.716  21.784  0.00  0.00    +0.000 F 
ATOM     39  F   UNL     1      12.231  33.449  20.957  0.00  0.00    +0.000 F 
ENDBRANCH  33  36
ENDBRANCH  32  33
ENDBRANCH  30  31
ENDBRANCH  28  30
ENDBRANCH  27  28
ENDBRANCH  25  26
ENDBRANCH  23  24
ENDBRANCH  22  23
ENDBRANCH  20  21
ENDBRANCH   8  19
BRANCH   6  40
ATOM     40  O   UNL     1      18.095  28.383   0.145  0.00  0.00    +0.000 OA
ATOM     41  H   UNL     1      18.934  28.277  -0.340  0.00  0.00    +0.000 HD
ENDBRANCH   6  40
BRANCH  18  42
ATOM     42  O   UNL     1      26.904  25.872   5.779  0.00  0.00    +0.000 OA
ATOM     43  H   UNL     1      26.766  25.336   6.580  0.00  0.00    +0.000 HD
ENDBRANCH  18  42
TORSDOF 12
ENDMDL
MODEL 2
REMARK VINA RESULT:      -6.6      3.493      3.926
REMARK  Name = Fulvestrant.pdbqt.pdb
REMARK  12 active torsions:
REMARK  status: ('A' for Active; 'I' for Inactive)
REMARK    1  A    between atoms: C_6  and  O_40
REMARK    2  A    between atoms: C_8  and  C_19
REMARK    3  A    between atoms: C_18  and  O_42
REMARK    4  A    between atoms: C_20  and  C_21
REMARK    5  A    between atoms: C_22  and  C_23
REMARK    6  A    between atoms: C_23  and  C_24
REMARK    7  A    between atoms: C_25  and  C_26
REMARK    8  A    between atoms: C_27  and  S_28
REMARK    9  A    between atoms: S_28  and  C_30
REMARK   10  A    between atoms: C_30  and  C_31
REMARK   11  A    between atoms: C_32  and  C_33
REMARK   12  A    between atoms: C_33  and  C_36
REMARK                            x       y       z     vdW  Elec       q    Type
REMARK                         _______ _______ _______ _____ _____    ______ ____
ROOT
ATOM      1  C   UNL     1      19.547  28.795   3.919  0.00  0.00    +0.000 C 
ATOM      2  C   UNL     1      18.844  27.927   2.766  0.00  0.00    +0.000 C 
ATOM      3  C   UNL     1      20.842  28.418   4.571  0.00  0.00    +0.000 A 
ATOM      4  C   UNL     1      21.806  27.405   3.919  0.00  0.00    +0.000 A 
ATOM      5  C   UNL     1      19.899  27.095   2.198  0.00  0.00    +0.000 C 
ATOM      6  C   UNL     1      18.321  29.007   1.793  0.00  0.00    +0.000 C 
ATOM      7  C   UNL     1      19.280  30.170   3.618  0.00  0.00    +0.000 C 
ATOM      8  C   UNL     1      21.274  29.012   5.864  0.00  0.00    +0.000 A 
ATOM      9  C   UNL     1      21.279  26.837   2.734  0.00  0.00    +0.000 C 
ATOM     10  C   UNL     1      18.551  30.311   2.307  0.00  0.00    +0.000 C 
ATOM     11  C   UNL     1      17.668  27.133   3.388  0.00  0.00    +0.000 C 
ATOM     12  C   UNL     1      23.123  27.028   4.504  0.00  0.00    +0.000 A 
ATOM     13  C   UNL     1      22.552  28.534   6.243  0.00  0.00    +0.000 A 
ATOM     14  C   UNL     1      23.511  27.627   5.726  0.00  0.00    +0.000 A 
ATOM     15  C   UNL     1      23.985  26.113   3.904  0.00  0.00    +0.000 A 
ATOM     16  C   UNL     1      24.717  27.333   6.343  0.00  0.00    +0.000 A 
ATOM     17  C   UNL     1      25.204  25.807   4.513  0.00  0.00    +0.000 A 
ATOM     18  C   UNL     1      25.556  26.415   5.719  0.00  0.00    +0.000 A 
ENDROOT
BRANCH   8  19
ATOM     19  C   UNL     1      20.432  29.799   6.686  0.00  0.00    +0.000 C 
ATOM     20  C   UNL     1      19.530  30.640   7.594  0.00  0.00    +0.000 C 
BRANCH  20  21
ATOM     21  C   UNL     1      18.637  31.466   8.524  0.00  0.00    +0.000 C 
ATOM     22  C   UNL     1      17.764  32.318   9.451  0.00  0.00    +0.000 C 
BRANCH  22  23
ATOM     23  C   UNL     1      16.915  33.194  10.377  0.00  0.00    +0.000 C 
BRANCH  23  24
ATOM     24  C   UNL     1      16.070  34.046  11.329  0.00  0.00    +0.000 C 
ATOM     25  C   UNL     1      15.243  34.885  12.309  0.00  0.00    +0.000 C 
BRANCH  25  26
ATOM     26  C   UNL     1      14.434  35.709  13.315  0.00  0.00    +0.000 C 
ATOM     27  C   UNL     1      13.625  36.561  14.298  0.00  0.00    +0.000 C 
BRANCH  27  28
ATOM     28  S   UNL     1      12.700  37.568  15.407  0.00  0.00    +0.000 S 
ATOM     29  O   UNL     1      12.203  38.440  14.291  0.00  0.00    +0.000 OA
BRANCH  28  30
ATOM     30  C   UNL     1      11.271  36.543  15.327  0.00  0.00    +0.000 C 
BRANCH  30  31
ATOM     31  C   UNL     1      10.041  35.632  15.249  0.00  0.00    +0.000 C 
ATOM     32  C   UNL     1       8.821  34.708  15.162  0.00  0.00    +0.000 C 
BRANCH  32  33
ATOM     33  C   UNL     1       7.660  33.818  15.073  0.00  0.00    +0.000 C 
ATOM     34  F   UNL     1       8.116  32.535  15.038  0.00  0.00    +0.000 F 
ATOM     35  F   UNL     1       7.061  34.035  13.868  0.00  0.00    +0.000 F 
BRANCH  33  36
ATOM     36  C   UNL     1       6.661  34.010  16.218  0.00  0.00    +0.000 C 
ATOM     37  F   UNL     1       6.635  32.941  17.056  0.00  0.00    +0.000 F 
ATOM     38  F   UNL     1       5.394  34.188  15.769  0.00  0.00    +0.000 F 
ATOM     39  F   UNL     1       6.965  35.094  16.977  0.00  0.00    +0.000 F 
ENDBRANCH  33  36
ENDBRANCH  32  33
ENDBRANCH  30  31
ENDBRANCH  28  30
ENDBRANCH  27  28
ENDBRANCH  25  26
ENDBRANCH  23  24
ENDBRANCH  22  23
ENDBRANCH  20  21
ENDBRANCH   8  19
BRANCH   6  40
ATOM     40  O   UNL     1      18.129  28.769   0.448  0.00  0.00    +0.000 OA
ATOM     41  H   UNL     1      18.734  29.298  -0.103  0.00  0.00    +0.000 HD
ENDBRANCH   6  40
BRANCH  18  42
ATOM     42  O   UNL     1      26.758  26.084   6.278  0.00  0.00    +0.000 OA
ATOM     43  H   UNL     1      26.590  25.644   7.130  0.00  0.00    +0.000 HD
ENDBRANCH  18  42
TORSDOF 12
ENDMDL
MODEL 3
REMARK VINA RESULT:      -6.1     17.795     25.134
REMARK  Name = Fulvestrant.pdbqt.pdb
REMARK  12 active torsions:
REMARK  status: ('A' for Active; 'I' for Inactive)
REMARK    1  A    between atoms: C_6  and  O_40
REMARK    2  A    between atoms: C_8  and  C_19
REMARK    3  A    between atoms: C_18  and  O_42
REMARK    4  A    between atoms: C_20  and  C_21
REMARK    5  A    between atoms: C_22  and  C_23
REMARK    6  A    between atoms: C_23  and  C_24
REMARK    7  A    between atoms: C_25  and  C_26
REMARK    8  A    between atoms: C_27  and  S_28
REMARK    9  A    between atoms: S_28  and  C_30
REMARK   10  A    between atoms: C_30  and  C_31
REMARK   11  A    between atoms: C_32  and  C_33
REMARK   12  A    between atoms: C_33  and  C_36
REMARK                            x       y       z     vdW  Elec       q    Type
REMARK                         _______ _______ _______ _____ _____    ______ ____
ROOT
ATOM      1  C   UNL     1      12.030  17.796  30.746  0.00  0.00    +0.000 C 
ATOM      2  C   UNL     1      13.438  17.162  30.311  0.00  0.00    +0.000 C 
ATOM      3  C   UNL     1      10.731  17.049  30.702  0.00  0.00    +0.000 A 
ATOM      4  C   UNL     1      10.692  15.509  30.629  0.00  0.00    +0.000 A 
ATOM      5  C   UNL     1      13.259  15.715  30.379  0.00  0.00    +0.000 C 
ATOM      6  C   UNL     1      14.408  17.712  31.380  0.00  0.00    +0.000 C 
ATOM      7  C   UNL     1      12.299  18.682  31.840  0.00  0.00    +0.000 C 
ATOM      8  C   UNL     1       9.419  17.749  30.745  0.00  0.00    +0.000 A 
ATOM      9  C   UNL     1      11.981  14.936  30.516  0.00  0.00    +0.000 C 
ATOM     10  C   UNL     1      13.748  18.620  32.250  0.00  0.00    +0.000 C 
ATOM     11  C   UNL     1      13.810  17.696  28.905  0.00  0.00    +0.000 C 
ATOM     12  C   UNL     1       9.430  14.717  30.625  0.00  0.00    +0.000 A 
ATOM     13  C   UNL     1       8.348  16.823  30.741  0.00  0.00    +0.000 A 
ATOM     14  C   UNL     1       8.200  15.414  30.685  0.00  0.00    +0.000 A 
ATOM     15  C   UNL     1       9.408  13.325  30.561  0.00  0.00    +0.000 A 
ATOM     16  C   UNL     1       6.978  14.759  30.683  0.00  0.00    +0.000 A 
ATOM     17  C   UNL     1       8.186  12.651  30.559  0.00  0.00    +0.000 A 
ATOM     18  C   UNL     1       6.990  13.369  30.619  0.00  0.00    +0.000 A 
ENDROOT
BRANCH   8  19
ATOM     19  C   UNL     1       9.273  19.150  30.614  0.00  0.00    +0.000 C 
ATOM     20  C   UNL     1       9.132  20.668  30.460  0.00  0.00    +0.000 C 
BRANCH  20  21
ATOM     21  C   UNL     1       9.017  22.185  30.292  0.00  0.00    +0.000 C 
ATOM     22  C   UNL     1       8.931  23.704  30.111  0.00  0.00    +0.000 C 
BRANCH  22  23
ATOM     23  C   UNL     1       8.877  25.223  29.919  0.00  0.00    +0.000 C 
BRANCH  23  24
ATOM     24  C   UNL     1       8.844  26.746  29.756  0.00  0.00    +0.000 C 
ATOM     25  C   UNL     1       8.846  28.269  29.594  0.00  0.00    +0.000 C 
BRANCH  25  26
ATOM     26  C   UNL     1       8.883  29.793  29.436  0.00  0.00    +0.000 C 
ATOM     27  C   UNL     1       8.894  31.313  29.251  0.00  0.00    +0.000 C 
BRANCH  27  28
ATOM     28  S   UNL     1       8.883  33.057  29.014  0.00  0.00    +0.000 S 
ATOM     29  O   UNL     1      10.003  33.255  29.993  0.00  0.00    +0.000 OA
BRANCH  28  30
ATOM     30  C   UNL     1       9.999  32.994  27.654  0.00  0.00    +0.000 C 
BRANCH  30  31
ATOM     31  C   UNL     1      10.956  32.953  26.457  0.00  0.00    +0.000 C 
ATOM     32  C   UNL     1      11.903  32.898  25.253  0.00  0.00    +0.000 C 
BRANCH  32  33
ATOM     33  C   UNL     1      12.805  32.836  24.100  0.00  0.00    +0.000 C 
ATOM     34  F   UNL     1      13.971  32.260  24.509  0.00  0.00    +0.000 F 
ATOM     35  F   UNL     1      13.122  34.114  23.751  0.00  0.00    +0.000 F 
BRANCH  33  36
ATOM     36  C   UNL     1      12.213  32.078  22.907  0.00  0.00    +0.000 C 
ATOM     37  F   UNL     1      11.763  32.921  21.942  0.00  0.00    +0.000 F 
ATOM     38  F   UNL     1      11.165  31.296  23.267  0.00  0.00    +0.000 F 
ATOM     39  F   UNL     1      13.129  31.264  22.322  0.00  0.00    +0.000 F 
ENDBRANCH  33  36
ENDBRANCH  32  33
ENDBRANCH  30  31
ENDBRANCH  28  30
ENDBRANCH  27  28
ENDBRANCH  25  26
ENDBRANCH  23  24
ENDBRANCH  22  23
ENDBRANCH  20  21
ENDBRANCH   8  19
BRANCH   6  40
ATOM     40  O   UNL     1      15.569  17.060  31.740  0.00  0.00    +0.000 OA
ATOM     41  H   UNL     1      16.292  17.237  31.112  0.00  0.00    +0.000 HD
ENDBRANCH   6  40
BRANCH  18  42
ATOM     42  O   UNL     1       5.818  12.666  30.613  0.00  0.00    +0.000 OA
ATOM     43  H   UNL     1       5.651  12.356  29.706  0.00  0.00    +0.000 HD
ENDBRANCH  18  42
TORSDOF 12
ENDMDL
MODEL 4
REMARK VINA RESULT:      -5.9     22.195     27.837
REMARK  Name = Fulvestrant.pdbqt.pdb
REMARK  12 active torsions:
REMARK  status: ('A' for Active; 'I' for Inactive)
REMARK    1  A    between atoms: C_6  and  O_40
REMARK    2  A    between atoms: C_8  and  C_19
REMARK    3  A    between atoms: C_18  and  O_42
REMARK    4  A    between atoms: C_20  and  C_21
REMARK    5  A    between atoms: C_22  and  C_23
REMARK    6  A    between atoms: C_23  and  C_24
REMARK    7  A    between atoms: C_25  and  C_26
REMARK    8  A    between atoms: C_27  and  S_28
REMARK    9  A    between atoms: S_28  and  C_30
REMARK   10  A    between atoms: C_30  and  C_31
REMARK   11  A    between atoms: C_32  and  C_33
REMARK   12  A    between atoms: C_33  and  C_36
REMARK                            x       y       z     vdW  Elec       q    Type
REMARK                         _______ _______ _______ _____ _____    ______ ____
ROOT
ATOM      1  C   UNL     1      29.073  14.411  15.524  0.00  0.00    +0.000 C 
ATOM      2  C   UNL     1      29.575  15.925  15.344  0.00  0.00    +0.000 C 
ATOM      3  C   UNL     1      29.149  13.658  16.818  0.00  0.00    +0.000 A 
ATOM      4  C   UNL     1      29.330  14.389  18.164  0.00  0.00    +0.000 A 
ATOM      5  C   UNL     1      29.607  16.495  16.687  0.00  0.00    +0.000 C 
ATOM      6  C   UNL     1      28.486  16.543  14.439  0.00  0.00    +0.000 C 
ATOM      7  C   UNL     1      27.924  14.257  14.682  0.00  0.00    +0.000 C 
ATOM      8  C   UNL     1      29.036  12.176  16.873  0.00  0.00    +0.000 A 
ATOM      9  C   UNL     1      29.504  15.784  18.008  0.00  0.00    +0.000 C 
ATOM     10  C   UNL     1      27.543  15.562  14.032  0.00  0.00    +0.000 C 
ATOM     11  C   UNL     1      30.946  15.911  14.622  0.00  0.00    +0.000 C 
ATOM     12  C   UNL     1      29.370  13.691  19.480  0.00  0.00    +0.000 A 
ATOM     13  C   UNL     1      29.087  11.710  18.209  0.00  0.00    +0.000 A 
ATOM     14  C   UNL     1      29.240  12.282  19.498  0.00  0.00    +0.000 A 
ATOM     15  C   UNL     1      29.531  14.363  20.690  0.00  0.00    +0.000 A 
ATOM     16  C   UNL     1      29.268  11.552  20.675  0.00  0.00    +0.000 A 
ATOM     17  C   UNL     1      29.561  13.642  21.885  0.00  0.00    +0.000 A 
ATOM     18  C   UNL     1      29.431  12.252  21.867  0.00  0.00    +0.000 A 
ENDROOT
BRANCH   8  19
ATOM     19  C   UNL     1      29.065  11.344  15.729  0.00  0.00    +0.000 C 
ATOM     20  C   UNL     1      29.078  10.433  14.497  0.00  0.00    +0.000 C 
BRANCH  20  21
ATOM     21  C   UNL     1      29.069   9.508  13.277  0.00  0.00    +0.000 C 
ATOM     22  C   UNL     1      29.041   8.561  12.073  0.00  0.00    +0.000 C 
BRANCH  22  23
ATOM     23  C   UNL     1      28.997   7.592  10.888  0.00  0.00    +0.000 C 
BRANCH  23  24
ATOM     24  C   UNL     1      28.921   6.637   9.692  0.00  0.00    +0.000 C 
ATOM     25  C   UNL     1      28.819   5.702   8.483  0.00  0.00    +0.000 C 
BRANCH  25  26
ATOM     26  C   UNL     1      28.688   4.785   7.262  0.00  0.00    +0.000 C 
ATOM     27  C   UNL     1      28.531   3.849   6.060  0.00  0.00    +0.000 C 
BRANCH  27  28
ATOM     28  S   UNL     1      28.329   2.753   4.697  0.00  0.00    +0.000 S 
ATOM     29  O   UNL     1      28.688   1.558   5.531  0.00  0.00    +0.000 OA
BRANCH  28  30
ATOM     30  C   UNL     1      26.609   2.521   4.993  0.00  0.00    +0.000 C 
BRANCH  30  31
ATOM     31  C   UNL     1      25.116   2.313   5.273  0.00  0.00    +0.000 C 
ATOM     32  C   UNL     1      23.626   2.113   5.570  0.00  0.00    +0.000 C 
BRANCH  32  33
ATOM     33  C   UNL     1      22.203   1.924   5.864  0.00  0.00    +0.000 C 
ATOM     34  F   UNL     1      21.968   0.585   5.959  0.00  0.00    +0.000 F 
ATOM     35  F   UNL     1      21.494   2.351   4.781  0.00  0.00    +0.000 F 
BRANCH  33  36
ATOM     36  C   UNL     1      21.744   2.649   7.133  0.00  0.00    +0.000 C 
ATOM     37  F   UNL     1      20.786   3.575   6.872  0.00  0.00    +0.000 F 
ATOM     38  F   UNL     1      22.763   3.300   7.748  0.00  0.00    +0.000 F 
ATOM     39  F   UNL     1      21.221   1.789   8.044  0.00  0.00    +0.000 F 
ENDBRANCH  33  36
ENDBRANCH  32  33
ENDBRANCH  30  31
ENDBRANCH  28  30
ENDBRANCH  27  28
ENDBRANCH  25  26
ENDBRANCH  23  24
ENDBRANCH  22  23
ENDBRANCH  20  21
ENDBRANCH   8  19
BRANCH   6  40
ATOM     40  O   UNL     1      28.192  17.891  14.440  0.00  0.00    +0.000 OA
ATOM     41  H   UNL     1      27.328  18.071  14.850  0.00  0.00    +0.000 HD
ENDBRANCH   6  40
BRANCH  18  42
ATOM     42  O   UNL     1      29.467  11.588  23.060  0.00  0.00    +0.000 OA
ATOM     43  H   UNL     1      29.789  10.684  22.900  0.00  0.00    +0.000 HD
ENDBRANCH  18  42
TORSDOF 12
ENDMDL
MODEL 5
REMARK VINA RESULT:      -5.9     13.247     16.367
REMARK  Name = Fulvestrant.pdbqt.pdb
REMARK  12 active torsions:
REMARK  status: ('A' for Active; 'I' for Inactive)
REMARK    1  A    between atoms: C_6  and  O_40
REMARK    2  A    between atoms: C_8  and  C_19
REMARK    3  A    between atoms: C_18  and  O_42
REMARK    4  A    between atoms: C_20  and  C_21
REMARK    5  A    between atoms: C_22  and  C_23
REMARK    6  A    between atoms: C_23  and  C_24
REMARK    7  A    between atoms: C_25  and  C_26
REMARK    8  A    between atoms: C_27  and  S_28
REMARK    9  A    between atoms: S_28  and  C_30
REMARK   10  A    between atoms: C_30  and  C_31
REMARK   11  A    between atoms: C_32  and  C_33
REMARK   12  A    between atoms: C_33  and  C_36
REMARK                            x       y       z     vdW  Elec       q    Type
REMARK                         _______ _______ _______ _____ _____    ______ ____
ROOT
ATOM      1  C   UNL     1      18.623  24.086   1.459  0.00  0.00    +0.000 C 
ATOM      2  C   UNL     1      19.089  25.315   0.538  0.00  0.00    +0.000 C 
ATOM      3  C   UNL     1      19.531  22.972   1.883  0.00  0.00    +0.000 A 
ATOM      4  C   UNL     1      21.066  23.118   1.818  0.00  0.00    +0.000 A 
ATOM      5  C   UNL     1      20.543  25.369   0.656  0.00  0.00    +0.000 C 
ATOM      6  C   UNL     1      18.375  26.522   1.186  0.00  0.00    +0.000 C 
ATOM      7  C   UNL     1      17.665  24.609   2.386  0.00  0.00    +0.000 C 
ATOM      8  C   UNL     1      19.005  21.682   2.403  0.00  0.00    +0.000 A 
ATOM      9  C   UNL     1      21.473  24.344   1.241  0.00  0.00    +0.000 C 
ATOM     10  C   UNL     1      17.523  26.103   2.244  0.00  0.00    +0.000 C 
ATOM     11  C   UNL     1      18.572  25.080  -0.904  0.00  0.00    +0.000 C 
ATOM     12  C   UNL     1      22.013  22.058   2.265  0.00  0.00    +0.000 A 
ATOM     13  C   UNL     1      20.060  20.817   2.781  0.00  0.00    +0.000 A 
ATOM     14  C   UNL     1      21.477  20.850   2.773  0.00  0.00    +0.000 A 
ATOM     15  C   UNL     1      23.397  22.202   2.204  0.00  0.00    +0.000 A 
ATOM     16  C   UNL     1      22.283  19.810   3.209  0.00  0.00    +0.000 A 
ATOM     17  C   UNL     1      24.222  21.164   2.640  0.00  0.00    +0.000 A 
ATOM     18  C   UNL     1      23.661  19.985   3.134  0.00  0.00    +0.000 A 
ENDROOT
BRANCH   8  19
ATOM     19  C   UNL     1      17.640  21.311   2.344  0.00  0.00    +0.000 C 
ATOM     20  C   UNL     1      16.162  20.917   2.260  0.00  0.00    +0.000 C 
BRANCH  20  21
ATOM     21  C   UNL     1      14.683  20.537   2.151  0.00  0.00    +0.000 C 
ATOM     22  C   UNL     1      13.204  20.165   2.010  0.00  0.00    +0.000 C 
BRANCH  22  23
ATOM     23  C   UNL     1      11.725  19.806   1.838  0.00  0.00    +0.000 C 
BRANCH  23  24
ATOM     24  C   UNL     1      10.236  19.476   1.685  0.00  0.00    +0.000 C 
ATOM     25  C   UNL     1       8.756  19.128   1.502  0.00  0.00    +0.000 C 
BRANCH  25  26
ATOM     26  C   UNL     1       7.283  18.765   1.288  0.00  0.00    +0.000 C 
ATOM     27  C   UNL     1       5.821  18.367   1.064  0.00  0.00    +0.000 C 
BRANCH  27  28
ATOM     28  S   UNL     1       4.151  17.880   0.794  0.00  0.00    +0.000 S 
ATOM     29  O   UNL     1       4.556  16.845  -0.214  0.00  0.00    +0.000 OA
BRANCH  28  30
ATOM     30  C   UNL     1       4.163  16.702   2.103  0.00  0.00    +0.000 C 
BRANCH  30  31
ATOM     31  C   UNL     1       4.173  15.695   3.258  0.00  0.00    +0.000 C 
ATOM     32  C   UNL     1       4.164  14.690   4.415  0.00  0.00    +0.000 C 
BRANCH  32  33
ATOM     33  C   UNL     1       4.146  13.731   5.523  0.00  0.00    +0.000 C 
ATOM     34  F   UNL     1       5.427  13.570   5.960  0.00  0.00    +0.000 F 
ATOM     35  F   UNL     1       3.767  12.522   5.022  0.00  0.00    +0.000 F 
BRANCH  33  36
ATOM     36  C   UNL     1       3.228  14.153   6.675  0.00  0.00    +0.000 C 
ATOM     37  F   UNL     1       3.300  15.487   6.921  0.00  0.00    +0.000 F 
ATOM     38  F   UNL     1       3.537  13.522   7.835  0.00  0.00    +0.000 F 
ATOM     39  F   UNL     1       1.926  13.874   6.411  0.00  0.00    +0.000 F 
ENDBRANCH  33  36
ENDBRANCH  32  33
ENDBRANCH  30  31
ENDBRANCH  28  30
ENDBRANCH  27  28
ENDBRANCH  25  26
ENDBRANCH  23  24
ENDBRANCH  22  23
ENDBRANCH  20  21
ENDBRANCH   8  19
BRANCH   6  40
ATOM     40  O   UNL     1      18.857  27.811   1.097  0.00  0.00    +0.000 OA
ATOM     41  H   UNL     1      19.677  27.854   0.574  0.00  0.00    +0.000 HD
ENDBRANCH   6  40
BRANCH  18  42
ATOM     42  O   UNL     1      24.508  18.996   3.548  0.00  0.00    +0.000 OA
ATOM     43  H   UNL     1      24.653  18.384   2.805  0.00  0.00    +0.000 HD
ENDBRANCH  18  42
TORSDOF 12
ENDMDL
MODEL 6
REMARK VINA RESULT:      -5.9     14.675     19.531
REMARK  Name = Fulvestrant.pdbqt.pdb
REMARK  12 active torsions:
REMARK  status: ('A' for Active; 'I' for Inactive)
REMARK    1  A    between atoms: C_6  and  O_40
REMARK    2  A    between atoms: C_8  and  C_19
REMARK    3  A    between atoms: C_18  and  O_42
REMARK    4  A    between atoms: C_20  and  C_21
REMARK    5  A    between atoms: C_22  and  C_23
REMARK    6  A    between atoms: C_23  and  C_24
REMARK    7  A    between atoms: C_25  and  C_26
REMARK    8  A    between atoms: C_27  and  S_28
REMARK    9  A    between atoms: S_28  and  C_30
REMARK   10  A    between atoms: C_30  and  C_31
REMARK   11  A    between atoms: C_32  and  C_33
REMARK   12  A    between atoms: C_33  and  C_36
REMARK                            x       y       z     vdW  Elec       q    Type
REMARK                         _______ _______ _______ _____ _____    ______ ____
ROOT
ATOM      1  C   UNL     1      29.911  17.476  18.480  0.00  0.00    +0.000 C 
ATOM      2  C   UNL     1      30.794  17.294  19.807  0.00  0.00    +0.000 C 
ATOM      3  C   UNL     1      29.494  16.340  17.596  0.00  0.00    +0.000 A 
ATOM      4  C   UNL     1      29.525  14.880  18.094  0.00  0.00    +0.000 A 
ATOM      5  C   UNL     1      30.646  15.895  20.193  0.00  0.00    +0.000 C 
ATOM      6  C   UNL     1      30.134  18.278  20.798  0.00  0.00    +0.000 C 
ATOM      7  C   UNL     1      28.991  18.543  18.743  0.00  0.00    +0.000 C 
ATOM      8  C   UNL     1      29.014  16.560  16.206  0.00  0.00    +0.000 A 
ATOM      9  C   UNL     1      30.065  14.760  19.396  0.00  0.00    +0.000 C 
ATOM     10  C   UNL     1      29.103  19.024  20.166  0.00  0.00    +0.000 C 
ATOM     11  C   UNL     1      32.251  17.722  19.498  0.00  0.00    +0.000 C 
ATOM     12  C   UNL     1      29.082  13.720  17.270  0.00  0.00    +0.000 A 
ATOM     13  C   UNL     1      28.634  15.340  15.598  0.00  0.00    +0.000 A 
ATOM     14  C   UNL     1      28.613  13.968  15.959  0.00  0.00    +0.000 A 
ATOM     15  C   UNL     1      29.113  12.407  17.733  0.00  0.00    +0.000 A 
ATOM     16  C   UNL     1      28.184  12.950  15.122  0.00  0.00    +0.000 A 
ATOM     17  C   UNL     1      28.683  11.370  16.903  0.00  0.00    +0.000 A 
ATOM     18  C   UNL     1      28.227  11.648  15.613  0.00  0.00    +0.000 A 
ENDROOT
BRANCH   8  19
ATOM     19  C   UNL     1      29.108  17.801  15.530  0.00  0.00    +0.000 C 
ATOM     20  C   UNL     1      29.188  19.145  14.801  0.00  0.00    +0.000 C 
BRANCH  20  21
ATOM     21  C   UNL     1      29.240  20.491  14.072  0.00  0.00    +0.000 C 
ATOM     22  C   UNL     1      29.262  21.831  13.329  0.00  0.00    +0.000 C 
BRANCH  22  23
ATOM     23  C   UNL     1      29.256  23.161  12.571  0.00  0.00    +0.000 C 
BRANCH  23  24
ATOM     24  C   UNL     1      29.283  24.485  11.799  0.00  0.00    +0.000 C 
ATOM     25  C   UNL     1      29.277  25.816  11.041  0.00  0.00    +0.000 C 
BRANCH  25  26
ATOM     26  C   UNL     1      29.238  27.153  10.294  0.00  0.00    +0.000 C 
ATOM     27  C   UNL     1      29.164  28.494   9.557  0.00  0.00    +0.000 C 
BRANCH  27  28
ATOM     28  S   UNL     1      29.044  30.037   8.719  0.00  0.00    +0.000 S 
ATOM     29  O   UNL     1      29.867  29.540   7.567  0.00  0.00    +0.000 OA
BRANCH  28  30
ATOM     30  C   UNL     1      27.540  29.611   7.910  0.00  0.00    +0.000 C 
BRANCH  30  31
ATOM     31  C   UNL     1      26.229  29.263   7.196  0.00  0.00    +0.000 C 
ATOM     32  C   UNL     1      24.912  28.906   6.498  0.00  0.00    +0.000 C 
BRANCH  32  33
ATOM     33  C   UNL     1      23.650  28.559   5.838  0.00  0.00    +0.000 C 
ATOM     34  F   UNL     1      23.196  29.669   5.192  0.00  0.00    +0.000 F 
ATOM     35  F   UNL     1      22.733  28.291   6.809  0.00  0.00    +0.000 F 
BRANCH  33  36
ATOM     36  C   UNL     1      23.777  27.379   4.869  0.00  0.00    +0.000 C 
ATOM     37  F   UNL     1      24.320  27.752   3.682  0.00  0.00    +0.000 F 
ATOM     38  F   UNL     1      22.577  26.812   4.593  0.00  0.00    +0.000 F 
ATOM     39  F   UNL     1      24.570  26.397   5.372  0.00  0.00    +0.000 F 
ENDBRANCH  33  36
ENDBRANCH  32  33
ENDBRANCH  30  31
ENDBRANCH  28  30
ENDBRANCH  27  28
ENDBRANCH  25  26
ENDBRANCH  23  24
ENDBRANCH  22  23
ENDBRANCH  20  21
ENDBRANCH   8  19
BRANCH   6  40
ATOM     40  O   UNL     1      30.185  18.107  22.166  0.00  0.00    +0.000 OA
ATOM     41  H   UNL     1      30.691  17.312  22.412  0.00  0.00    +0.000 HD
ENDBRANCH   6  40
BRANCH  18  42
ATOM     42  O   UNL     1      27.818  10.601  14.837  0.00  0.00    +0.000 OA
ATOM     43  H   UNL     1      28.310  10.631  13.997  0.00  0.00    +0.000 HD
ENDBRANCH  18  42
TORSDOF 12
ENDMDL
MODEL 7
REMARK VINA RESULT:      -5.8     13.348     16.242
REMARK  Name = Fulvestrant.pdbqt.pdb
REMARK  12 active torsions:
REMARK  status: ('A' for Active; 'I' for Inactive)
REMARK    1  A    between atoms: C_6  and  O_40
REMARK    2  A    between atoms: C_8  and  C_19
REMARK    3  A    between atoms: C_18  and  O_42
REMARK    4  A    between atoms: C_20  and  C_21
REMARK    5  A    between atoms: C_22  and  C_23
REMARK    6  A    between atoms: C_23  and  C_24
REMARK    7  A    between atoms: C_25  and  C_26
REMARK    8  A    between atoms: C_27  and  S_28
REMARK    9  A    between atoms: S_28  and  C_30
REMARK   10  A    between atoms: C_30  and  C_31
REMARK   11  A    between atoms: C_32  and  C_33
REMARK   12  A    between atoms: C_33  and  C_36
REMARK                            x       y       z     vdW  Elec       q    Type
REMARK                         _______ _______ _______ _____ _____    ______ ____
ROOT
ATOM      1  C   UNL     1      14.344  34.648  19.331  0.00  0.00    +0.000 C 
ATOM      2  C   UNL     1      14.517  34.727  20.924  0.00  0.00    +0.000 C 
ATOM      3  C   UNL     1      15.203  35.402  18.362  0.00  0.00    +0.000 A 
ATOM      4  C   UNL     1      16.568  35.986  18.784  0.00  0.00    +0.000 A 
ATOM      5  C   UNL     1      15.875  35.207  21.152  0.00  0.00    +0.000 C 
ATOM      6  C   UNL     1      14.301  33.263  21.367  0.00  0.00    +0.000 C 
ATOM      7  C   UNL     1      13.946  33.306  19.028  0.00  0.00    +0.000 C 
ATOM      8  C   UNL     1      14.797  35.610  16.947  0.00  0.00    +0.000 A 
ATOM      9  C   UNL     1      16.835  35.806  20.162  0.00  0.00    +0.000 C 
ATOM     10  C   UNL     1      13.939  32.444  20.264  0.00  0.00    +0.000 C 
ATOM     11  C   UNL     1      13.408  35.644  21.500  0.00  0.00    +0.000 C 
ATOM     12  C   UNL     1      17.478  36.707  17.850  0.00  0.00    +0.000 A 
ATOM     13  C   UNL     1      15.798  36.305  16.226  0.00  0.00    +0.000 A 
ATOM     14  C   UNL     1      17.069  36.870  16.505  0.00  0.00    +0.000 A 
ATOM     15  C   UNL     1      18.709  37.227  18.243  0.00  0.00    +0.000 A 
ATOM     16  C   UNL     1      17.851  37.528  15.570  0.00  0.00    +0.000 A 
ATOM     17  C   UNL     1      19.508  37.893  17.312  0.00  0.00    +0.000 A 
ATOM     18  C   UNL     1      19.075  38.037  15.993  0.00  0.00    +0.000 A 
ENDROOT
BRANCH   8  19
ATOM     19  C   UNL     1      13.505  35.316  16.450  0.00  0.00    +0.000 C 
ATOM     20  C   UNL     1      12.115  34.983  15.899  0.00  0.00    +0.000 C 
BRANCH  20  21
ATOM     21  C   UNL     1      10.737  34.631  15.332  0.00  0.00    +0.000 C 
ATOM     22  C   UNL     1       9.365  34.296  14.738  0.00  0.00    +0.000 C 
BRANCH  22  23
ATOM     23  C   UNL     1       7.999  33.984  14.119  0.00  0.00    +0.000 C 
BRANCH  23  24
ATOM     24  C   UNL     1       6.647  33.679  13.467  0.00  0.00    +0.000 C 
ATOM     25  C   UNL     1       5.290  33.347  12.838  0.00  0.00    +0.000 C 
BRANCH  25  26
ATOM     26  C   UNL     1       3.931  32.986  12.230  0.00  0.00    +0.000 C 
ATOM     27  C   UNL     1       2.555  32.650  11.645  0.00  0.00    +0.000 C 
BRANCH  27  28
ATOM     28  S   UNL     1       0.960  32.285  10.996  0.00  0.00    +0.000 S 
ATOM     29  O   UNL     1       1.540  31.482   9.869  0.00  0.00    +0.000 OA
BRANCH  28  30
ATOM     30  C   UNL     1       0.757  30.850  11.997  0.00  0.00    +0.000 C 
BRANCH  30  31
ATOM     31  C   UNL     1       0.595  29.589  12.853  0.00  0.00    +0.000 C 
ATOM     32  C   UNL     1       0.453  28.327  13.711  0.00  0.00    +0.000 C 
BRANCH  32  33
ATOM     33  C   UNL     1       0.326  27.120  14.532  0.00  0.00    +0.000 C 
ATOM     34  F   UNL     1       1.451  27.010  15.294  0.00  0.00    +0.000 F 
ATOM     35  F   UNL     1       0.336  26.045  13.695  0.00  0.00    +0.000 F 
BRANCH  33  36
ATOM     36  C   UNL     1      -0.929  27.113  15.410  0.00  0.00    +0.000 C 
ATOM     37  F   UNL     1      -0.650  27.436  16.699  0.00  0.00    +0.000 F 
ATOM     38  F   UNL     1      -1.533  25.899  15.430  0.00  0.00    +0.000 F 
ATOM     39  F   UNL     1      -1.855  28.005  14.973  0.00  0.00    +0.000 F 
ENDBRANCH  33  36
ENDBRANCH  32  33
ENDBRANCH  30  31
ENDBRANCH  28  30
ENDBRANCH  27  28
ENDBRANCH  25  26
ENDBRANCH  23  24
ENDBRANCH  22  23
ENDBRANCH  20  21
ENDBRANCH   8  19
BRANCH   6  40
ATOM     40  O   UNL     1      14.850  32.743  22.520  0.00  0.00    +0.000 OA
ATOM     41  H   UNL     1      15.761  33.059  22.661  0.00  0.00    +0.000 HD
ENDBRANCH   6  40
BRANCH  18  42
ATOM     42  O   UNL     1      19.890  38.697  15.118  0.00  0.00    +0.000 OA
ATOM     43  H   UNL     1      19.349  39.323  14.605  0.00  0.00    +0.000 HD
ENDBRANCH  18  42
TORSDOF 12
ENDMDL
MODEL 8
REMARK VINA RESULT:      -5.7     30.596     32.790
REMARK  Name = Fulvestrant.pdbqt.pdb
REMARK  12 active torsions:
REMARK  status: ('A' for Active; 'I' for Inactive)
REMARK    1  A    between atoms: C_6  and  O_40
REMARK    2  A    between atoms: C_8  and  C_19
REMARK    3  A    between atoms: C_18  and  O_42
REMARK    4  A    between atoms: C_20  and  C_21
REMARK    5  A    between atoms: C_22  and  C_23
REMARK    6  A    between atoms: C_23  and  C_24
REMARK    7  A    between atoms: C_25  and  C_26
REMARK    8  A    between atoms: C_27  and  S_28
REMARK    9  A    between atoms: S_28  and  C_30
REMARK   10  A    between atoms: C_30  and  C_31
REMARK   11  A    between atoms: C_32  and  C_33
REMARK   12  A    between atoms: C_33  and  C_36
REMARK                            x       y       z     vdW  Elec       q    Type
REMARK                         _______ _______ _______ _____ _____    ______ ____
ROOT
ATOM      1  C   UNL     1      21.628  -3.203   9.294  0.00  0.00    +0.000 C 
ATOM      2  C   UNL     1      22.364  -4.395   8.512  0.00  0.00    +0.000 C 
ATOM      3  C   UNL     1      22.079  -1.775   9.249  0.00  0.00    +0.000 A 
ATOM      4  C   UNL     1      23.023  -1.265   8.140  0.00  0.00    +0.000 A 
ATOM      5  C   UNL     1      23.137  -3.756   7.452  0.00  0.00    +0.000 C 
ATOM      6  C   UNL     1      21.184  -5.243   7.987  0.00  0.00    +0.000 C 
ATOM      7  C   UNL     1      20.227  -3.503   9.276  0.00  0.00    +0.000 C 
ATOM      8  C   UNL     1      21.629  -0.775  10.253  0.00  0.00    +0.000 A 
ATOM      9  C   UNL     1      23.458  -2.298   7.277  0.00  0.00    +0.000 C 
ATOM     10  C   UNL     1      19.943  -4.737   8.458  0.00  0.00    +0.000 C 
ATOM     11  C   UNL     1      23.213  -5.205   9.525  0.00  0.00    +0.000 C 
ATOM     12  C   UNL     1      23.468   0.153   8.025  0.00  0.00    +0.000 A 
ATOM     13  C   UNL     1      22.151   0.509   9.965  0.00  0.00    +0.000 A 
ATOM     14  C   UNL     1      23.004   1.082   8.987  0.00  0.00    +0.000 A 
ATOM     15  C   UNL     1      24.318   0.601   7.017  0.00  0.00    +0.000 A 
ATOM     16  C   UNL     1      23.369   2.418   8.959  0.00  0.00    +0.000 A 
ATOM     17  C   UNL     1      24.694   1.945   6.975  0.00  0.00    +0.000 A 
ATOM     18  C   UNL     1      24.220   2.836   7.940  0.00  0.00    +0.000 A 
ENDROOT
BRANCH   8  19
ATOM     19  C   UNL     1      20.929  -1.112  11.437  0.00  0.00    +0.000 C 
ATOM     20  C   UNL     1      20.155  -1.480  12.706  0.00  0.00    +0.000 C 
BRANCH  20  21
ATOM     21  C   UNL     1      19.356  -1.851  13.959  0.00  0.00    +0.000 C 
ATOM     22  C   UNL     1      18.531  -2.226  15.194  0.00  0.00    +0.000 C 
BRANCH  22  23
ATOM     23  C   UNL     1      17.678  -2.603  16.409  0.00  0.00    +0.000 C 
BRANCH  23  24
ATOM     24  C   UNL     1      16.801  -2.995  17.602  0.00  0.00    +0.000 C 
ATOM     25  C   UNL     1      15.903  -3.359  18.789  0.00  0.00    +0.000 C 
BRANCH  25  26
ATOM     26  C   UNL     1      14.986  -3.693  19.970  0.00  0.00    +0.000 C 
ATOM     27  C   UNL     1      14.057  -4.056  21.132  0.00  0.00    +0.000 C 
BRANCH  27  28
ATOM     28  S   UNL     1      12.975  -4.499  22.448  0.00  0.00    +0.000 S 
ATOM     29  O   UNL     1      14.046  -5.290  23.139  0.00  0.00    +0.000 OA
BRANCH  28  30
ATOM     30  C   UNL     1      13.345  -3.058  23.389  0.00  0.00    +0.000 C 
BRANCH  30  31
ATOM     31  C   UNL     1      13.645  -1.794  24.204  0.00  0.00    +0.000 C 
ATOM     32  C   UNL     1      13.947  -0.521  25.002  0.00  0.00    +0.000 C 
BRANCH  32  33
ATOM     33  C   UNL     1      14.239   0.700  25.757  0.00  0.00    +0.000 C 
ATOM     34  F   UNL     1      13.679   1.749  25.091  0.00  0.00    +0.000 F 
ATOM     35  F   UNL     1      15.585   0.905  25.712  0.00  0.00    +0.000 F 
BRANCH  33  36
ATOM     36  C   UNL     1      13.745   0.650  27.206  0.00  0.00    +0.000 C 
ATOM     37  F   UNL     1      12.756   1.550  27.439  0.00  0.00    +0.000 F 
ATOM     38  F   UNL     1      14.735   0.914  28.094  0.00  0.00    +0.000 F 
ATOM     39  F   UNL     1      13.246  -0.572  27.526  0.00  0.00    +0.000 F 
ENDBRANCH  33  36
ENDBRANCH  32  33
ENDBRANCH  30  31
ENDBRANCH  28  30
ENDBRANCH  27  28
ENDBRANCH  25  26
ENDBRANCH  23  24
ENDBRANCH  22  23
ENDBRANCH  20  21
ENDBRANCH   8  19
BRANCH   6  40
ATOM     40  O   UNL     1      21.276  -6.033   6.861  0.00  0.00    +0.000 OA
ATOM     41  H   UNL     1      20.433  -6.479   6.662  0.00  0.00    +0.000 HD
ENDBRANCH   6  40
BRANCH  18  42
ATOM     42  O   UNL     1      24.615   4.141   7.858  0.00  0.00    +0.000 OA
ATOM     43  H   UNL     1      25.244   4.226   7.120  0.00  0.00    +0.000 HD
ENDBRANCH  18  42
TORSDOF 12
ENDMDL
MODEL 9
REMARK VINA RESULT:      -5.6     20.934     27.697
REMARK  Name = Fulvestrant.pdbqt.pdb
REMARK  12 active torsions:
REMARK  status: ('A' for Active; 'I' for Inactive)
REMARK    1  A    between atoms: C_6  and  O_40
REMARK    2  A    between atoms: C_8  and  C_19
REMARK    3  A    between atoms: C_18  and  O_42
REMARK    4  A    between atoms: C_20  and  C_21
REMARK    5  A    between atoms: C_22  and  C_23
REMARK    6  A    between atoms: C_23  and  C_24
REMARK    7  A    between atoms: C_25  and  C_26
REMARK    8  A    between atoms: C_27  and  S_28
REMARK    9  A    between atoms: S_28  and  C_30
REMARK   10  A    between atoms: C_30  and  C_31
REMARK   11  A    between atoms: C_32  and  C_33
REMARK   12  A    between atoms: C_33  and  C_36
REMARK                            x       y       z     vdW  Elec       q    Type
REMARK                         _______ _______ _______ _____ _____    ______ ____
ROOT
ATOM      1  C   UNL     1      21.911  20.559  29.537  0.00  0.00    +0.000 C 
ATOM      2  C   UNL     1      22.615  21.822  30.232  0.00  0.00    +0.000 C 
ATOM      3  C   UNL     1      20.766  19.805  30.144  0.00  0.00    +0.000 A 
ATOM      4  C   UNL     1      19.910  20.417  31.273  0.00  0.00    +0.000 A 
ATOM      5  C   UNL     1      21.650  22.331  31.200  0.00  0.00    +0.000 C 
ATOM      6  C   UNL     1      22.857  22.779  29.043  0.00  0.00    +0.000 C 
ATOM      7  C   UNL     1      21.926  20.806  28.126  0.00  0.00    +0.000 C 
ATOM      8  C   UNL     1      20.386  18.445  29.681  0.00  0.00    +0.000 A 
ATOM      9  C   UNL     1      20.391  21.678  31.699  0.00  0.00    +0.000 C 
ATOM     10  C   UNL     1      22.481  22.171  27.815  0.00  0.00    +0.000 C 
ATOM     11  C   UNL     1      23.961  21.364  30.850  0.00  0.00    +0.000 C 
ATOM     12  C   UNL     1      18.738  19.728  31.882  0.00  0.00    +0.000 A 
ATOM     13  C   UNL     1      19.246  17.970  30.374  0.00  0.00    +0.000 A 
ATOM     14  C   UNL     1      18.392  18.442  31.403  0.00  0.00    +0.000 A 
ATOM     15  C   UNL     1      17.971  20.292  32.899  0.00  0.00    +0.000 A 
ATOM     16  C   UNL     1      17.319  17.728  31.913  0.00  0.00    +0.000 A 
ATOM     17  C   UNL     1      16.887  19.586  33.422  0.00  0.00    +0.000 A 
ATOM     18  C   UNL     1      16.573  18.318  32.928  0.00  0.00    +0.000 A 
ENDROOT
BRANCH   8  19
ATOM     19  C   UNL     1      21.176  17.665  28.803  0.00  0.00    +0.000 C 
ATOM     20  C   UNL     1      22.030  16.805  27.866  0.00  0.00    +0.000 C 
BRANCH  20  21
ATOM     21  C   UNL     1      22.884  15.924  26.950  0.00  0.00    +0.000 C 
ATOM     22  C   UNL     1      23.733  15.018  26.053  0.00  0.00    +0.000 C 
BRANCH  22  23
ATOM     23  C   UNL     1      24.580  14.087  25.180  0.00  0.00    +0.000 C 
BRANCH  23  24
ATOM     24  C   UNL     1      25.399  13.133  24.303  0.00  0.00    +0.000 C 
ATOM     25  C   UNL     1      26.238  12.208  23.417  0.00  0.00    +0.000 C 
BRANCH  25  26
ATOM     26  C   UNL     1      27.094  11.310  22.518  0.00  0.00    +0.000 C 
ATOM     27  C   UNL     1      27.955  10.389  21.648  0.00  0.00    +0.000 C 
BRANCH  27  28
ATOM     28  S   UNL     1      28.949   9.310  20.675  0.00  0.00    +0.000 S 
ATOM     29  O   UNL     1      27.757   8.507  20.244  0.00  0.00    +0.000 OA
BRANCH  28  30
ATOM     30  C   UNL     1      28.858  10.331  19.243  0.00  0.00    +0.000 C 
BRANCH  30  31
ATOM     31  C   UNL     1      28.784  11.201  17.983  0.00  0.00    +0.000 C 
ATOM     32  C   UNL     1      28.727  12.079  16.729  0.00  0.00    +0.000 C 
BRANCH  32  33
ATOM     33  C   UNL     1      28.679  12.924  15.532  0.00  0.00    +0.000 C 
ATOM     34  F   UNL     1      27.456  12.763  14.953  0.00  0.00    +0.000 F 
ATOM     35  F   UNL     1      29.583  12.431  14.639  0.00  0.00    +0.000 F 
BRANCH  33  36
ATOM     36  C   UNL     1      28.953  14.403  15.823  0.00  0.00    +0.000 C 
ATOM     37  F   UNL     1      30.156  14.803  15.335  0.00  0.00    +0.000 F 
ATOM     38  F   UNL     1      28.959  14.671  17.152  0.00  0.00    +0.000 F 
ATOM     39  F   UNL     1      28.015  15.209  15.264  0.00  0.00    +0.000 F 
ENDBRANCH  33  36
ENDBRANCH  32  33
ENDBRANCH  30  31
ENDBRANCH  28  30
ENDBRANCH  27  28
ENDBRANCH  25  26
ENDBRANCH  23  24
ENDBRANCH  22  23
ENDBRANCH  20  21
ENDBRANCH   8  19
BRANCH   6  40
ATOM     40  O   UNL     1      22.941  24.147  29.192  0.00  0.00    +0.000 OA
ATOM     41  H   UNL     1      22.236  24.492  29.769  0.00  0.00    +0.000 HD
ENDBRANCH   6  40
BRANCH  18  42
ATOM     42  O   UNL     1      15.504  17.664  33.472  0.00  0.00    +0.000 OA
ATOM     43  H   UNL     1      15.838  16.952  34.045  0.00  0.00    +0.000 HD
ENDBRANCH  18  42
TORSDOF 12
ENDMDL
