MODEL 1
REMARK VINA RESULT:      -6.4      0.000      0.000
REMARK  Name = Gefitinib.pdbqt.pdb
REMARK  6 active torsions:
REMARK  status: ('A' for Active; 'I' for Inactive)
REMARK    1  A    between atoms: C_3  and  O_11
REMARK    2  A    between atoms: C_6  and  O_21
REMARK    3  A    between atoms: O_11  and  C_12
REMARK    4  A    between atoms: C_13  and  C_14
REMARK    5  A    between atoms: C_14  and  N_15
REMARK    6  A    between atoms: N_23  and  C_25
REMARK                            x       y       z     vdW  Elec       q    Type
REMARK                         _______ _______ _______ _____ _____    ______ ____
ROOT
ATOM      1  N   UNL     1       3.688  24.202  30.605  0.00  0.00    +0.000 NA
ATOM      2  N   UNL     1       5.469  25.337  29.501  0.00  0.00    +0.000 NA
ATOM      3  C   UNL     1       5.995  20.760  30.971  0.00  0.00    +0.000 A 
ATOM      4  C   UNL     1       5.767  23.079  30.233  0.00  0.00    +0.000 A 
ATOM      5  C   UNL     1       6.522  21.900  30.364  0.00  0.00    +0.000 A 
ATOM      6  C   UNL     1       4.690  20.798  31.461  0.00  0.00    +0.000 A 
ATOM      7  C   UNL     1       4.455  23.117  30.713  0.00  0.00    +0.000 A 
ATOM      8  C   UNL     1       3.946  21.976  31.320  0.00  0.00    +0.000 A 
ATOM      9  C   UNL     1       6.245  24.248  29.626  0.00  0.00    +0.000 A 
ATOM     10  C   UNL     1       4.228  25.265  29.997  0.00  0.00    +0.000 A 
ATOM     11  N   UNL     1       7.562  24.261  29.100  0.00  0.00    +0.000 N 
ATOM     12  H   UNL     1       8.223  23.862  29.760  0.00  0.00    +0.000 HD
ENDROOT
BRANCH  11  13
ATOM     13  C   UNL     1       8.161  25.246  28.284  0.00  0.00    +0.000 A 
ATOM     14  C   UNL     1       9.051  26.157  28.866  0.00  0.00    +0.000 A 
ATOM     15  C   UNL     1       9.745  27.078  28.085  0.00  0.00    +0.000 A 
ATOM     16 CL   UNL     1      10.799  28.192  28.859  0.00  0.00    +0.000 Cl
ATOM     17  C   UNL     1       9.578  27.080  26.705  0.00  0.00    +0.000 A 
ATOM     18  F   UNL     1      10.237  27.960  25.936  0.00  0.00    +0.000 F 
ATOM     19  C   UNL     1       8.730  26.162  26.099  0.00  0.00    +0.000 A 
ATOM     20  C   UNL     1       8.044  25.243  26.890  0.00  0.00    +0.000 A 
ENDBRANCH  11  13
BRANCH   6  21
ATOM     21  O   UNL     1       4.210  19.652  32.051  0.00  0.00    +0.000 OA
ATOM     22  C   UNL     1       3.144  19.029  31.390  0.00  0.00    +0.000 C 
ENDBRANCH   6  21
BRANCH   3  23
ATOM     23  O   UNL     1       6.701  19.590  31.119  0.00  0.00    +0.000 OA
BRANCH  23  24
ATOM     24  C   UNL     1       8.012  19.702  30.918  0.00  0.00    +0.000 C 
ATOM     25  C   UNL     1       9.524  19.815  30.693  0.00  0.00    +0.000 C 
BRANCH  25  26
ATOM     26  C   UNL     1      11.039  19.894  30.477  0.00  0.00    +0.000 C 
BRANCH  26  27
ATOM     27  N   UNL     1      12.477  19.982  30.265  0.00  0.00    +0.000 N 
ATOM     28  C   UNL     1      13.121  19.715  31.588  0.00  0.00    +0.000 C 
ATOM     29  C   UNL     1      13.947  18.468  32.042  0.00  0.00    +0.000 C 
ATOM     30  O   UNL     1      14.320  17.310  31.453  0.00  0.00    +0.000 OA
ATOM     31  C   UNL     1      13.739  17.550  30.260  0.00  0.00    +0.000 C 
ATOM     32  C   UNL     1      12.896  18.698  29.627  0.00  0.00    +0.000 C 
ENDBRANCH  26  27
ENDBRANCH  25  26
ENDBRANCH  23  24
ENDBRANCH   3  23
TORSDOF 6
ENDMDL
MODEL 2
REMARK VINA RESULT:      -5.9      7.108     10.234
REMARK  Name = Gefitinib.pdbqt.pdb
REMARK  6 active torsions:
REMARK  status: ('A' for Active; 'I' for Inactive)
REMARK    1  A    between atoms: C_3  and  O_11
REMARK    2  A    between atoms: C_6  and  O_21
REMARK    3  A    between atoms: O_11  and  C_12
REMARK    4  A    between atoms: C_13  and  C_14
REMARK    5  A    between atoms: C_14  and  N_15
REMARK    6  A    between atoms: N_23  and  C_25
REMARK                            x       y       z     vdW  Elec       q    Type
REMARK                         _______ _______ _______ _____ _____    ______ ____
ROOT
ATOM      1  N   UNL     1       7.910  35.739  27.246  0.00  0.00    +0.000 NA
ATOM      2  N   UNL     1       9.671  34.844  25.914  0.00  0.00    +0.000 NA
ATOM      3  C   UNL     1       8.080  32.473  29.816  0.00  0.00    +0.000 A 
ATOM      4  C   UNL     1       8.919  33.656  27.849  0.00  0.00    +0.000 A 
ATOM      5  C   UNL     1       8.950  32.561  28.729  0.00  0.00    +0.000 A 
ATOM      6  C   UNL     1       7.163  33.501  30.031  0.00  0.00    +0.000 A 
ATOM      7  C   UNL     1       7.994  34.683  28.055  0.00  0.00    +0.000 A 
ATOM      8  C   UNL     1       7.138  34.584  29.144  0.00  0.00    +0.000 A 
ATOM      9  C   UNL     1       9.765  33.790  26.740  0.00  0.00    +0.000 A 
ATOM     10  C   UNL     1       8.751  35.771  26.205  0.00  0.00    +0.000 A 
ATOM     11  N   UNL     1      10.710  32.767  26.467  0.00  0.00    +0.000 N 
ATOM     12  H   UNL     1      11.207  32.495  27.310  0.00  0.00    +0.000 HD
ENDROOT
BRANCH  11  13
ATOM     13  C   UNL     1      11.505  32.605  25.311  0.00  0.00    +0.000 A 
ATOM     14  C   UNL     1      12.889  32.789  25.410  0.00  0.00    +0.000 A 
ATOM     15  C   UNL     1      13.724  32.539  24.324  0.00  0.00    +0.000 A 
ATOM     16 CL   UNL     1      15.411  32.815  24.496  0.00  0.00    +0.000 Cl
ATOM     17  C   UNL     1      13.185  32.073  23.130  0.00  0.00    +0.000 A 
ATOM     18  F   UNL     1      13.973  31.827  22.073  0.00  0.00    +0.000 F 
ATOM     19  C   UNL     1      11.820  31.846  23.018  0.00  0.00    +0.000 A 
ATOM     20  C   UNL     1      10.994  32.096  24.112  0.00  0.00    +0.000 A 
ENDBRANCH  11  13
BRANCH   6  21
ATOM     21  O   UNL     1       6.323  33.374  31.113  0.00  0.00    +0.000 OA
ATOM     22  C   UNL     1       4.987  33.082  30.813  0.00  0.00    +0.000 C 
ENDBRANCH   6  21
BRANCH   3  23
ATOM     23  O   UNL     1       8.080  31.419  30.699  0.00  0.00    +0.000 OA
BRANCH  23  24
ATOM     24  C   UNL     1       8.469  30.258  30.179  0.00  0.00    +0.000 C 
ATOM     25  C   UNL     1       8.932  28.921  29.588  0.00  0.00    +0.000 C 
BRANCH  25  26
ATOM     26  C   UNL     1       9.423  27.585  29.020  0.00  0.00    +0.000 C 
BRANCH  26  27
ATOM     27  N   UNL     1       9.884  26.309  28.491  0.00  0.00    +0.000 N 
ATOM     28  C   UNL     1       9.253  25.246  29.331  0.00  0.00    +0.000 C 
ATOM     29  C   UNL     1       8.128  24.230  28.946  0.00  0.00    +0.000 C 
ATOM     30  O   UNL     1       7.405  23.994  27.829  0.00  0.00    +0.000 OA
ATOM     31  C   UNL     1       7.972  24.953  27.071  0.00  0.00    +0.000 C 
ATOM     32  C   UNL     1       9.076  26.037  27.264  0.00  0.00    +0.000 C 
ENDBRANCH  26  27
ENDBRANCH  25  26
ENDBRANCH  23  24
ENDBRANCH   3  23
TORSDOF 6
ENDMDL
MODEL 3
REMARK VINA RESULT:      -5.7      5.570      9.281
REMARK  Name = Gefitinib.pdbqt.pdb
REMARK  6 active torsions:
REMARK  status: ('A' for Active; 'I' for Inactive)
REMARK    1  A    between atoms: C_3  and  O_11
REMARK    2  A    between atoms: C_6  and  O_21
REMARK    3  A    between atoms: O_11  and  C_12
REMARK    4  A    between atoms: C_13  and  C_14
REMARK    5  A    between atoms: C_14  and  N_15
REMARK    6  A    between atoms: N_23  and  C_25
REMARK                            x       y       z     vdW  Elec       q    Type
REMARK                         _______ _______ _______ _____ _____    ______ ____
ROOT
ATOM      1  N   UNL     1      13.705  20.425  31.671  0.00  0.00    +0.000 NA
ATOM      2  N   UNL     1      11.347  20.541  31.347  0.00  0.00    +0.000 NA
ATOM      3  C   UNL     1      13.831  16.610  30.016  0.00  0.00    +0.000 A 
ATOM      4  C   UNL     1      12.550  18.590  30.661  0.00  0.00    +0.000 A 
ATOM      5  C   UNL     1      12.621  17.298  30.112  0.00  0.00    +0.000 A 
ATOM      6  C   UNL     1      14.996  17.227  30.474  0.00  0.00    +0.000 A 
ATOM      7  C   UNL     1      13.713  19.206  31.130  0.00  0.00    +0.000 A 
ATOM      8  C   UNL     1      14.911  18.513  31.023  0.00  0.00    +0.000 A 
ATOM      9  C   UNL     1      11.361  19.321  30.786  0.00  0.00    +0.000 A 
ATOM     10  C   UNL     1      12.518  21.038  31.761  0.00  0.00    +0.000 A 
ATOM     11  N   UNL     1      10.145  18.736  30.348  0.00  0.00    +0.000 N 
ATOM     12  H   UNL     1      10.252  18.315  29.430  0.00  0.00    +0.000 HD
ENDROOT
BRANCH  11  13
ATOM     13  C   UNL     1       8.830  19.205  30.562  0.00  0.00    +0.000 A 
ATOM     14  C   UNL     1       7.934  18.403  31.279  0.00  0.00    +0.000 A 
ATOM     15  C   UNL     1       6.661  18.866  31.605  0.00  0.00    +0.000 A 
ATOM     16 CL   UNL     1       5.594  17.824  32.457  0.00  0.00    +0.000 Cl
ATOM     17  C   UNL     1       6.280  20.152  31.242  0.00  0.00    +0.000 A 
ATOM     18  F   UNL     1       5.059  20.616  31.547  0.00  0.00    +0.000 F 
ATOM     19  C   UNL     1       7.163  20.982  30.565  0.00  0.00    +0.000 A 
ATOM     20  C   UNL     1       8.435  20.509  30.246  0.00  0.00    +0.000 A 
ENDBRANCH  11  13
BRANCH   6  21
ATOM     21  O   UNL     1      16.166  16.515  30.361  0.00  0.00    +0.000 OA
ATOM     22  C   UNL     1      17.333  17.204  30.713  0.00  0.00    +0.000 C 
ENDBRANCH   6  21
BRANCH   3  23
ATOM     23  O   UNL     1      13.941  15.347  29.486  0.00  0.00    +0.000 OA
BRANCH  23  24
ATOM     24  C   UNL     1      13.218  14.418  30.108  0.00  0.00    +0.000 C 
ATOM     25  C   UNL     1      12.376  13.348  30.810  0.00  0.00    +0.000 C 
BRANCH  25  26
ATOM     26  C   UNL     1      11.515  12.272  31.481  0.00  0.00    +0.000 C 
BRANCH  26  27
ATOM     27  N   UNL     1      10.694  11.244  32.106  0.00  0.00    +0.000 N 
ATOM     28  C   UNL     1      10.709  10.067  31.186  0.00  0.00    +0.000 C 
ATOM     29  C   UNL     1      11.400   8.678  31.381  0.00  0.00    +0.000 C 
ATOM     30  O   UNL     1      12.156   8.123  32.354  0.00  0.00    +0.000 OA
ATOM     31  C   UNL     1      12.143   9.184  33.184  0.00  0.00    +0.000 C 
ATOM     32  C   UNL     1      11.531  10.618  33.173  0.00  0.00    +0.000 C 
ENDBRANCH  26  27
ENDBRANCH  25  26
ENDBRANCH  23  24
ENDBRANCH   3  23
TORSDOF 6
ENDMDL
MODEL 4
REMARK VINA RESULT:      -5.4     29.376     32.777
REMARK  Name = Gefitinib.pdbqt.pdb
REMARK  6 active torsions:
REMARK  status: ('A' for Active; 'I' for Inactive)
REMARK    1  A    between atoms: C_3  and  O_11
REMARK    2  A    between atoms: C_6  and  O_21
REMARK    3  A    between atoms: O_11  and  C_12
REMARK    4  A    between atoms: C_13  and  C_14
REMARK    5  A    between atoms: C_14  and  N_15
REMARK    6  A    between atoms: N_23  and  C_25
REMARK                            x       y       z     vdW  Elec       q    Type
REMARK                         _______ _______ _______ _____ _____    ______ ____
ROOT
ATOM      1  N   UNL     1      18.275  -1.500  18.102  0.00  0.00    +0.000 NA
ATOM      2  N   UNL     1      16.719  -2.995  17.093  0.00  0.00    +0.000 NA
ATOM      3  C   UNL     1      20.096  -0.781  14.432  0.00  0.00    +0.000 A 
ATOM      4  C   UNL     1      18.366  -1.901  15.746  0.00  0.00    +0.000 A 
ATOM      5  C   UNL     1      19.004  -1.645  14.520  0.00  0.00    +0.000 A 
ATOM      6  C   UNL     1      20.557  -0.156  15.591  0.00  0.00    +0.000 A 
ATOM      7  C   UNL     1      18.832  -1.285  16.910  0.00  0.00    +0.000 A 
ATOM      8  C   UNL     1      19.916  -0.423  16.806  0.00  0.00    +0.000 A 
ATOM      9  C   UNL     1      17.271  -2.764  15.891  0.00  0.00    +0.000 A 
ATOM     10  C   UNL     1      17.243  -2.352  18.143  0.00  0.00    +0.000 A 
ATOM     11  N   UNL     1      16.768  -3.435  14.746  0.00  0.00    +0.000 N 
ATOM     12  H   UNL     1      16.663  -2.796  13.965  0.00  0.00    +0.000 HD
ENDROOT
BRANCH  11  13
ATOM     13  C   UNL     1      15.822  -4.482  14.701  0.00  0.00    +0.000 A 
ATOM     14  C   UNL     1      14.475  -4.169  14.482  0.00  0.00    +0.000 A 
ATOM     15  C   UNL     1      13.523  -5.173  14.325  0.00  0.00    +0.000 A 
ATOM     16 CL   UNL     1      11.880  -4.727  14.093  0.00  0.00    +0.000 Cl
ATOM     17  C   UNL     1      13.912  -6.507  14.357  0.00  0.00    +0.000 A 
ATOM     18  F   UNL     1      13.010  -7.488  14.208  0.00  0.00    +0.000 F 
ATOM     19  C   UNL     1      15.247  -6.844  14.534  0.00  0.00    +0.000 A 
ATOM     20  C   UNL     1      16.192  -5.832  14.686  0.00  0.00    +0.000 A 
ENDBRANCH  11  13
BRANCH   6  21
ATOM     21  O   UNL     1      21.636   0.687  15.459  0.00  0.00    +0.000 OA
ATOM     22  C   UNL     1      22.073   1.301  16.639  0.00  0.00    +0.000 C 
ENDBRANCH   6  21
BRANCH   3  23
ATOM     23  O   UNL     1      20.746  -0.505  13.253  0.00  0.00    +0.000 OA
BRANCH  23  24
ATOM     24  C   UNL     1      20.647  -1.457  12.328  0.00  0.00    +0.000 C 
ATOM     25  C   UNL     1      20.516  -2.550  11.262  0.00  0.00    +0.000 C 
BRANCH  25  26
ATOM     26  C   UNL     1      20.351  -3.634  10.192  0.00  0.00    +0.000 C 
BRANCH  26  27
ATOM     27  N   UNL     1      20.208  -4.671   9.178  0.00  0.00    +0.000 N 
ATOM     28  C   UNL     1      19.398  -5.764   9.797  0.00  0.00    +0.000 C 
ATOM     29  C   UNL     1      17.930  -6.197   9.479  0.00  0.00    +0.000 C 
ATOM     30  O   UNL     1      16.978  -5.767   8.622  0.00  0.00    +0.000 OA
ATOM     31  C   UNL     1      17.707  -4.780   8.064  0.00  0.00    +0.000 C 
ATOM     32  C   UNL     1      19.146  -4.205   8.237  0.00  0.00    +0.000 C 
ENDBRANCH  26  27
ENDBRANCH  25  26
ENDBRANCH  23  24
ENDBRANCH   3  23
TORSDOF 6
ENDMDL
MODEL 5
REMARK VINA RESULT:      -5.3     26.740     29.884
REMARK  Name = Gefitinib.pdbqt.pdb
REMARK  6 active torsions:
REMARK  status: ('A' for Active; 'I' for Inactive)
REMARK    1  A    between atoms: C_3  and  O_11
REMARK    2  A    between atoms: C_6  and  O_21
REMARK    3  A    between atoms: O_11  and  C_12
REMARK    4  A    between atoms: C_13  and  C_14
REMARK    5  A    between atoms: C_14  and  N_15
REMARK    6  A    between atoms: N_23  and  C_25
REMARK                            x       y       z     vdW  Elec       q    Type
REMARK                         _______ _______ _______ _____ _____    ______ ____
ROOT
ATOM      1  N   UNL     1      25.729  26.676   6.184  0.00  0.00    +0.000 NA
ATOM      2  N   UNL     1      24.049  28.158   6.998  0.00  0.00    +0.000 NA
ATOM      3  C   UNL     1      23.441  25.789   2.825  0.00  0.00    +0.000 A 
ATOM      4  C   UNL     1      23.726  27.015   4.921  0.00  0.00    +0.000 A 
ATOM      5  C   UNL     1      22.972  26.693   3.780  0.00  0.00    +0.000 A 
ATOM      6  C   UNL     1      24.691  25.200   3.012  0.00  0.00    +0.000 A 
ATOM      7  C   UNL     1      24.974  26.418   5.116  0.00  0.00    +0.000 A 
ATOM      8  C   UNL     1      25.431  25.525   4.155  0.00  0.00    +0.000 A 
ATOM      9  C   UNL     1      23.299  27.910   5.912  0.00  0.00    +0.000 A 
ATOM     10  C   UNL     1      25.229  27.533   7.084  0.00  0.00    +0.000 A 
ATOM     11  N   UNL     1      22.030  28.529   5.778  0.00  0.00    +0.000 N 
ATOM     12  H   UNL     1      21.897  28.891   4.839  0.00  0.00    +0.000 HD
ENDROOT
BRANCH  11  13
ATOM     13  C   UNL     1      21.331  29.291   6.741  0.00  0.00    +0.000 A 
ATOM     14  C   UNL     1      21.616  30.657   6.859  0.00  0.00    +0.000 A 
ATOM     15  C   UNL     1      20.880  31.469   7.719  0.00  0.00    +0.000 A 
ATOM     16 CL   UNL     1      21.297  33.131   7.847  0.00  0.00    +0.000 Cl
ATOM     17  C   UNL     1      19.830  30.929   8.452  0.00  0.00    +0.000 A 
ATOM     18  F   UNL     1      19.110  31.695   9.285  0.00  0.00    +0.000 F 
ATOM     19  C   UNL     1      19.502  29.585   8.323  0.00  0.00    +0.000 A 
ATOM     20  C   UNL     1      20.242  28.783   7.458  0.00  0.00    +0.000 A 
ENDBRANCH  11  13
BRANCH   6  21
ATOM     21  O   UNL     1      25.115  24.315   2.048  0.00  0.00    +0.000 OA
ATOM     22  C   UNL     1      26.429  24.490   1.599  0.00  0.00    +0.000 C 
ENDBRANCH   6  21
BRANCH   3  23
ATOM     23  O   UNL     1      22.733  25.449   1.697  0.00  0.00    +0.000 OA
BRANCH  23  24
ATOM     24  C   UNL     1      21.566  24.854   1.932  0.00  0.00    +0.000 C 
ATOM     25  C   UNL     1      20.213  24.186   2.200  0.00  0.00    +0.000 C 
BRANCH  25  26
ATOM     26  C   UNL     1      18.844  23.547   2.460  0.00  0.00    +0.000 C 
BRANCH  26  27
ATOM     27  N   UNL     1      17.549  22.933   2.718  0.00  0.00    +0.000 N 
ATOM     28  C   UNL     1      16.605  23.480   1.697  0.00  0.00    +0.000 C 
ATOM     29  C   UNL     1      15.950  22.751   0.479  0.00  0.00    +0.000 C 
ATOM     30  O   UNL     1      16.011  21.498  -0.024  0.00  0.00    +0.000 OA
ATOM     31  C   UNL     1      16.863  21.005   0.897  0.00  0.00    +0.000 C 
ATOM     32  C   UNL     1      17.609  21.553   2.152  0.00  0.00    +0.000 C 
ENDBRANCH  26  27
ENDBRANCH  25  26
ENDBRANCH  23  24
ENDBRANCH   3  23
TORSDOF 6
ENDMDL
MODEL 6
REMARK VINA RESULT:      -5.2      2.681      2.842
REMARK  Name = Gefitinib.pdbqt.pdb
REMARK  6 active torsions:
REMARK  status: ('A' for Active; 'I' for Inactive)
REMARK    1  A    between atoms: C_3  and  O_11
REMARK    2  A    between atoms: C_6  and  O_21
REMARK    3  A    between atoms: O_11  and  C_12
REMARK    4  A    between atoms: C_13  and  C_14
REMARK    5  A    between atoms: C_14  and  N_15
REMARK    6  A    between atoms: N_23  and  C_25
REMARK                            x       y       z     vdW  Elec       q    Type
REMARK                         _______ _______ _______ _____ _____    ______ ____
ROOT
ATOM      1  N   UNL     1       5.762  26.689  33.200  0.00  0.00    +0.000 NA
ATOM      2  N   UNL     1       6.815  26.881  31.072  0.00  0.00    +0.000 NA
ATOM      3  C   UNL     1       7.201  22.812  33.658  0.00  0.00    +0.000 A 
ATOM      4  C   UNL     1       7.040  24.862  32.335  0.00  0.00    +0.000 A 
ATOM      5  C   UNL     1       7.508  23.548  32.513  0.00  0.00    +0.000 A 
ATOM      6  C   UNL     1       6.415  23.402  34.648  0.00  0.00    +0.000 A 
ATOM      7  C   UNL     1       6.244  25.451  33.320  0.00  0.00    +0.000 A 
ATOM      8  C   UNL     1       5.951  24.709  34.457  0.00  0.00    +0.000 A 
ATOM      9  C   UNL     1       7.314  25.641  31.202  0.00  0.00    +0.000 A 
ATOM     10  C   UNL     1       6.065  27.349  32.076  0.00  0.00    +0.000 A 
ATOM     11  N   UNL     1       8.099  25.086  30.159  0.00  0.00    +0.000 N 
ATOM     12  H   UNL     1       8.926  24.627  30.529  0.00  0.00    +0.000 HD
ENDROOT
BRANCH  11  13
ATOM     13  C   UNL     1       8.321  25.612  28.867  0.00  0.00    +0.000 A 
ATOM     14  C   UNL     1       9.283  26.615  28.701  0.00  0.00    +0.000 A 
ATOM     15  C   UNL     1       9.611  27.090  27.433  0.00  0.00    +0.000 A 
ATOM     16 CL   UNL     1      10.775  28.346  27.295  0.00  0.00    +0.000 Cl
ATOM     17  C   UNL     1       8.999  26.544  26.311  0.00  0.00    +0.000 A 
ATOM     18  F   UNL     1       9.302  26.988  25.082  0.00  0.00    +0.000 F 
ATOM     19  C   UNL     1       8.070  25.521  26.445  0.00  0.00    +0.000 A 
ATOM     20  C   UNL     1       7.752  25.051  27.718  0.00  0.00    +0.000 A 
ENDBRANCH  11  13
BRANCH   6  21
ATOM     21  O   UNL     1       6.135  22.642  35.759  0.00  0.00    +0.000 OA
ATOM     22  C   UNL     1       4.785  22.326  35.955  0.00  0.00    +0.000 C 
ENDBRANCH   6  21
BRANCH   3  23
ATOM     23  O   UNL     1       7.639  21.527  33.869  0.00  0.00    +0.000 OA
BRANCH  23  24
ATOM     24  C   UNL     1       8.854  21.268  33.391  0.00  0.00    +0.000 C 
ATOM     25  C   UNL     1      10.260  20.971  32.858  0.00  0.00    +0.000 C 
BRANCH  25  26
ATOM     26  C   UNL     1      11.677  20.668  32.359  0.00  0.00    +0.000 C 
BRANCH  26  27
ATOM     27  N   UNL     1      13.025  20.395  31.881  0.00  0.00    +0.000 N 
ATOM     28  C   UNL     1      13.251  18.928  32.054  0.00  0.00    +0.000 C 
ATOM     29  C   UNL     1      13.366  17.818  30.958  0.00  0.00    +0.000 C 
ATOM     30  O   UNL     1      13.299  17.805  29.609  0.00  0.00    +0.000 OA
ATOM     31  C   UNL     1      13.095  19.128  29.452  0.00  0.00    +0.000 C 
ATOM     32  C   UNL     1      12.953  20.366  30.389  0.00  0.00    +0.000 C 
ENDBRANCH  26  27
ENDBRANCH  25  26
ENDBRANCH  23  24
ENDBRANCH   3  23
TORSDOF 6
ENDMDL
MODEL 7
REMARK VINA RESULT:      -5.2     24.996     29.222
REMARK  Name = Gefitinib.pdbqt.pdb
REMARK  6 active torsions:
REMARK  status: ('A' for Active; 'I' for Inactive)
REMARK    1  A    between atoms: C_3  and  O_11
REMARK    2  A    between atoms: C_6  and  O_21
REMARK    3  A    between atoms: O_11  and  C_12
REMARK    4  A    between atoms: C_13  and  C_14
REMARK    5  A    between atoms: C_14  and  N_15
REMARK    6  A    between atoms: N_23  and  C_25
REMARK                            x       y       z     vdW  Elec       q    Type
REMARK                         _______ _______ _______ _____ _____    ______ ____
ROOT
ATOM      1  N   UNL     1      16.435  -3.686  14.804  0.00  0.00    +0.000 NA
ATOM      2  N   UNL     1      15.264  -4.066  16.845  0.00  0.00    +0.000 NA
ATOM      3  C   UNL     1      19.311  -1.419  16.776  0.00  0.00    +0.000 A 
ATOM      4  C   UNL     1      17.273  -2.768  16.847  0.00  0.00    +0.000 A 
ATOM      5  C   UNL     1      18.256  -1.992  17.487  0.00  0.00    +0.000 A 
ATOM      6  C   UNL     1      19.390  -1.629  15.399  0.00  0.00    +0.000 A 
ATOM      7  C   UNL     1      17.344  -2.971  15.466  0.00  0.00    +0.000 A 
ATOM      8  C   UNL     1      18.403  -2.399  14.773  0.00  0.00    +0.000 A 
ATOM      9  C   UNL     1      16.191  -3.359  17.512  0.00  0.00    +0.000 A 
ATOM     10  C   UNL     1      15.429  -4.199  15.523  0.00  0.00    +0.000 A 
ATOM     11  N   UNL     1      16.055  -3.168  18.911  0.00  0.00    +0.000 N 
ATOM     12  H   UNL     1      16.939  -3.320  19.388  0.00  0.00    +0.000 HD
ENDROOT
BRANCH  11  13
ATOM     13  C   UNL     1      14.952  -3.498  19.729  0.00  0.00    +0.000 A 
ATOM     14  C   UNL     1      15.116  -4.464  20.729  0.00  0.00    +0.000 A 
ATOM     15  C   UNL     1      14.089  -4.747  21.626  0.00  0.00    +0.000 A 
ATOM     16 CL   UNL     1      14.337  -5.966  22.811  0.00  0.00    +0.000 Cl
ATOM     17  C   UNL     1      12.891  -4.044  21.551  0.00  0.00    +0.000 A 
ATOM     18  F   UNL     1      11.891  -4.302  22.406  0.00  0.00    +0.000 F 
ATOM     19  C   UNL     1      12.718  -3.054  20.593  0.00  0.00    +0.000 A 
ATOM     20  C   UNL     1      13.753  -2.777  19.702  0.00  0.00    +0.000 A 
ENDBRANCH  11  13
BRANCH   6  21
ATOM     21  O   UNL     1      20.445  -1.046  14.738  0.00  0.00    +0.000 OA
ATOM     22  C   UNL     1      21.131  -1.874  13.841  0.00  0.00    +0.000 C 
ENDBRANCH   6  21
BRANCH   3  23
ATOM     23  O   UNL     1      20.290  -0.656  17.365  0.00  0.00    +0.000 OA
BRANCH  23  24
ATOM     24  C   UNL     1      20.123  -0.447  18.669  0.00  0.00    +0.000 C 
ATOM     25  C   UNL     1      19.931  -0.188  20.168  0.00  0.00    +0.000 C 
BRANCH  25  26
ATOM     26  C   UNL     1      19.736   0.105  21.659  0.00  0.00    +0.000 C 
BRANCH  26  27
ATOM     27  N   UNL     1      19.556   0.370  23.080  0.00  0.00    +0.000 N 
ATOM     28  C   UNL     1      20.924   0.475  23.672  0.00  0.00    +0.000 C 
ATOM     29  C   UNL     1      21.660   1.740  24.221  0.00  0.00    +0.000 C 
ATOM     30  O   UNL     1      21.344   3.049  24.331  0.00  0.00    +0.000 OA
ATOM     31  C   UNL     1      20.110   2.955  23.796  0.00  0.00    +0.000 C 
ATOM     32  C   UNL     1      19.220   1.820  23.206  0.00  0.00    +0.000 C 
ENDBRANCH  26  27
ENDBRANCH  25  26
ENDBRANCH  23  24
ENDBRANCH   3  23
TORSDOF 6
ENDMDL
MODEL 8
REMARK VINA RESULT:      -5.1      8.267     11.954
REMARK  Name = Gefitinib.pdbqt.pdb
REMARK  6 active torsions:
REMARK  status: ('A' for Active; 'I' for Inactive)
REMARK    1  A    between atoms: C_3  and  O_11
REMARK    2  A    between atoms: C_6  and  O_21
REMARK    3  A    between atoms: O_11  and  C_12
REMARK    4  A    between atoms: C_13  and  C_14
REMARK    5  A    between atoms: C_14  and  N_15
REMARK    6  A    between atoms: N_23  and  C_25
REMARK                            x       y       z     vdW  Elec       q    Type
REMARK                         _______ _______ _______ _____ _____    ______ ____
ROOT
ATOM      1  N   UNL     1       6.234  31.995  31.079  0.00  0.00    +0.000 NA
ATOM      2  N   UNL     1       7.662  30.148  30.603  0.00  0.00    +0.000 NA
ATOM      3  C   UNL     1       7.842  34.164  27.914  0.00  0.00    +0.000 A 
ATOM      4  C   UNL     1       7.762  32.113  29.243  0.00  0.00    +0.000 A 
ATOM      5  C   UNL     1       8.292  32.871  28.184  0.00  0.00    +0.000 A 
ATOM      6  C   UNL     1       6.839  34.710  28.716  0.00  0.00    +0.000 A 
ATOM      7  C   UNL     1       6.765  32.661  30.054  0.00  0.00    +0.000 A 
ATOM      8  C   UNL     1       6.323  33.947  29.770  0.00  0.00    +0.000 A 
ATOM      9  C   UNL     1       8.183  30.814  29.560  0.00  0.00    +0.000 A 
ATOM     10  C   UNL     1       6.711  30.766  31.313  0.00  0.00    +0.000 A 
ATOM     11  N   UNL     1       9.209  30.215  28.785  0.00  0.00    +0.000 N 
ATOM     12  H   UNL     1       9.037  30.341  27.792  0.00  0.00    +0.000 HD
ENDROOT
BRANCH  11  13
ATOM     13  C   UNL     1       9.911  29.019  29.052  0.00  0.00    +0.000 A 
ATOM     14  C   UNL     1       9.395  27.810  28.570  0.00  0.00    +0.000 A 
ATOM     15  C   UNL     1      10.104  26.620  28.717  0.00  0.00    +0.000 A 
ATOM     16 CL   UNL     1       9.405  25.163  28.134  0.00  0.00    +0.000 Cl
ATOM     17  C   UNL     1      11.354  26.630  29.324  0.00  0.00    +0.000 A 
ATOM     18  F   UNL     1      12.052  25.494  29.475  0.00  0.00    +0.000 F 
ATOM     19  C   UNL     1      11.905  27.822  29.777  0.00  0.00    +0.000 A 
ATOM     20  C   UNL     1      11.189  29.007  29.621  0.00  0.00    +0.000 A 
ENDBRANCH  11  13
BRANCH   6  21
ATOM     21  O   UNL     1       6.425  35.986  28.416  0.00  0.00    +0.000 OA
ATOM     22  C   UNL     1       6.424  36.891  29.485  0.00  0.00    +0.000 C 
ENDBRANCH   6  21
BRANCH   3  23
ATOM     23  O   UNL     1       8.334  34.935  26.889  0.00  0.00    +0.000 OA
BRANCH  23  24
ATOM     24  C   UNL     1       9.136  34.291  26.044  0.00  0.00    +0.000 C 
ATOM     25  C   UNL     1      10.056  33.562  25.059  0.00  0.00    +0.000 C 
BRANCH  25  26
ATOM     26  C   UNL     1      10.974  32.860  24.052  0.00  0.00    +0.000 C 
BRANCH  26  27
ATOM     27  N   UNL     1      11.844  32.205  23.085  0.00  0.00    +0.000 N 
ATOM     28  C   UNL     1      12.175  33.227  22.046  0.00  0.00    +0.000 C 
ATOM     29  C   UNL     1      13.538  33.942  21.773  0.00  0.00    +0.000 C 
ATOM     30  O   UNL     1      14.766  33.891  22.334  0.00  0.00    +0.000 OA
ATOM     31  C   UNL     1      14.468  32.970  23.273  0.00  0.00    +0.000 C 
ATOM     32  C   UNL     1      13.206  32.160  23.697  0.00  0.00    +0.000 C 
ENDBRANCH  26  27
ENDBRANCH  25  26
ENDBRANCH  23  24
ENDBRANCH   3  23
TORSDOF 6
ENDMDL
MODEL 9
REMARK VINA RESULT:      -5.1      4.905     10.272
REMARK  Name = Gefitinib.pdbqt.pdb
REMARK  6 active torsions:
REMARK  status: ('A' for Active; 'I' for Inactive)
REMARK    1  A    between atoms: C_3  and  O_11
REMARK    2  A    between atoms: C_6  and  O_21
REMARK    3  A    between atoms: O_11  and  C_12
REMARK    4  A    between atoms: C_13  and  C_14
REMARK    5  A    between atoms: C_14  and  N_15
REMARK    6  A    between atoms: N_23  and  C_25
REMARK                            x       y       z     vdW  Elec       q    Type
REMARK                         _______ _______ _______ _____ _____    ______ ____
ROOT
ATOM      1  N   UNL     1      15.063  21.219  33.225  0.00  0.00    +0.000 NA
ATOM      2  N   UNL     1      14.542  19.038  32.420  0.00  0.00    +0.000 NA
ATOM      3  C   UNL     1      12.449  22.946  30.489  0.00  0.00    +0.000 A 
ATOM      4  C   UNL     1      13.476  20.950  31.456  0.00  0.00    +0.000 A 
ATOM      5  C   UNL     1      12.604  21.560  30.538  0.00  0.00    +0.000 A 
ATOM      6  C   UNL     1      13.175  23.738  31.378  0.00  0.00    +0.000 A 
ATOM      7  C   UNL     1      14.213  21.741  32.341  0.00  0.00    +0.000 A 
ATOM      8  C   UNL     1      14.044  23.118  32.284  0.00  0.00    +0.000 A 
ATOM      9  C   UNL     1      13.673  19.565  31.543  0.00  0.00    +0.000 A 
ATOM     10  C   UNL     1      15.196  19.887  33.222  0.00  0.00    +0.000 A 
ATOM     11  N   UNL     1      12.969  18.713  30.654  0.00  0.00    +0.000 N 
ATOM     12  H   UNL     1      11.987  18.967  30.606  0.00  0.00    +0.000 HD
ENDROOT
BRANCH  11  13
ATOM     13  C   UNL     1      13.166  17.331  30.437  0.00  0.00    +0.000 A 
ATOM     14  C   UNL     1      12.103  16.451  30.667  0.00  0.00    +0.000 A 
ATOM     15  C   UNL     1      12.218  15.095  30.367  0.00  0.00    +0.000 A 
ATOM     16 CL   UNL     1      10.890  14.058  30.702  0.00  0.00    +0.000 Cl
ATOM     17  C   UNL     1      13.392  14.608  29.805  0.00  0.00    +0.000 A 
ATOM     18  F   UNL     1      13.522  13.306  29.510  0.00  0.00    +0.000 F 
ATOM     19  C   UNL     1      14.448  15.467  29.531  0.00  0.00    +0.000 A 
ATOM     20  C   UNL     1      14.321  16.822  29.832  0.00  0.00    +0.000 A 
ENDBRANCH  11  13
BRANCH   6  21
ATOM     21  O   UNL     1      12.993  25.099  31.295  0.00  0.00    +0.000 OA
ATOM     22  C   UNL     1      13.688  25.863  32.240  0.00  0.00    +0.000 C 
ENDBRANCH   6  21
BRANCH   3  23
ATOM     23  O   UNL     1      11.607  23.580  29.606  0.00  0.00    +0.000 OA
BRANCH  23  24
ATOM     24  C   UNL     1      10.346  23.684  30.019  0.00  0.00    +0.000 C 
ATOM     25  C   UNL     1       8.899  23.815  30.506  0.00  0.00    +0.000 C 
BRANCH  25  26
ATOM     26  C   UNL     1       7.462  23.970  31.017  0.00  0.00    +0.000 C 
BRANCH  26  27
ATOM     27  N   UNL     1       6.099  24.107  31.512  0.00  0.00    +0.000 N 
ATOM     28  C   UNL     1       5.354  24.908  30.494  0.00  0.00    +0.000 C 
ATOM     29  C   UNL     1       4.230  24.443  29.512  0.00  0.00    +0.000 C 
ATOM     30  O   UNL     1       3.612  23.267  29.265  0.00  0.00    +0.000 OA
ATOM     31  C   UNL     1       4.284  22.544  30.182  0.00  0.00    +0.000 C 
ATOM     32  C   UNL     1       5.408  22.813  31.228  0.00  0.00    +0.000 C 
ENDBRANCH  26  27
ENDBRANCH  25  26
ENDBRANCH  23  24
ENDBRANCH   3  23
TORSDOF 6
ENDMDL
