MODEL 1
REMARK VINA RESULT:      -6.4      0.000      0.000
REMARK  Name = Genistein.pdbqt.pdb
REMARK  4 active torsions:
REMARK  status: ('A' for Active; 'I' for Inactive)
REMARK    1  A    between atoms: C_4  and  C_12
REMARK    2  A    between atoms: C_7  and  O_20
REMARK    3  A    between atoms: C_11  and  O_22
REMARK    4  A    between atoms: C_17  and  O_18
REMARK                            x       y       z     vdW  Elec       q    Type
REMARK                         _______ _______ _______ _____ _____    ______ ____
ROOT
ATOM      1  O   UNL     1      10.310  25.611  29.979  0.00  0.00    +0.000 OA
ATOM      2  O   UNL     1       7.266  23.798  27.752  0.00  0.00    +0.000 OA
ATOM      3  C   UNL     1       8.897  25.518  27.939  0.00  0.00    +0.000 A 
ATOM      4  C   UNL     1       8.583  23.792  29.777  0.00  0.00    +0.000 A 
ATOM      5  C   UNL     1       9.928  26.104  28.732  0.00  0.00    +0.000 A 
ATOM      6  C   UNL     1       8.152  24.301  28.434  0.00  0.00    +0.000 A 
ATOM      7  C   UNL     1       8.584  26.083  26.700  0.00  0.00    +0.000 A 
ATOM      8  C   UNL     1       9.534  24.563  30.200  0.00  0.00    +0.000 A 
ATOM      9  C   UNL     1      10.615  27.226  28.277  0.00  0.00    +0.000 A 
ATOM     10  C   UNL     1       9.276  27.207  26.250  0.00  0.00    +0.000 A 
ATOM     11  C   UNL     1      10.281  27.765  27.038  0.00  0.00    +0.000 A 
ENDROOT
BRANCH   4  12
ATOM     12  C   UNL     1       8.039  22.641  30.494  0.00  0.00    +0.000 A 
ATOM     13  C   UNL     1       7.214  22.808  31.609  0.00  0.00    +0.000 A 
ATOM     14  C   UNL     1       8.334  21.338  30.075  0.00  0.00    +0.000 A 
ATOM     15  C   UNL     1       6.695  21.711  32.293  0.00  0.00    +0.000 A 
ATOM     16  C   UNL     1       7.821  20.231  30.750  0.00  0.00    +0.000 A 
ATOM     17  C   UNL     1       7.004  20.428  31.855  0.00  0.00    +0.000 A 
BRANCH  17  18
ATOM     18  O   UNL     1       6.512  19.332  32.502  0.00  0.00    +0.000 OA
ATOM     19  H   UNL     1       6.246  19.602  33.399  0.00  0.00    +0.000 HD
ENDBRANCH  17  18
ENDBRANCH   4  12
BRANCH   7  20
ATOM     20  O   UNL     1       7.612  25.591  25.872  0.00  0.00    +0.000 OA
ATOM     21  H   UNL     1       7.980  25.518  24.961  0.00  0.00    +0.000 HD
ENDBRANCH   7  20
BRANCH  11  22
ATOM     22  O   UNL     1      10.965  28.865  26.609  0.00  0.00    +0.000 OA
ATOM     23  H   UNL     1      11.806  28.909  27.097  0.00  0.00    +0.000 HD
ENDBRANCH  11  22
TORSDOF 4
ENDMDL
MODEL 2
REMARK VINA RESULT:      -6.1      1.704      6.871
REMARK  Name = Genistein.pdbqt.pdb
REMARK  4 active torsions:
REMARK  status: ('A' for Active; 'I' for Inactive)
REMARK    1  A    between atoms: C_4  and  C_12
REMARK    2  A    between atoms: C_7  and  O_20
REMARK    3  A    between atoms: C_11  and  O_22
REMARK    4  A    between atoms: C_17  and  O_18
REMARK                            x       y       z     vdW  Elec       q    Type
REMARK                         _______ _______ _______ _____ _____    ______ ____
ROOT
ATOM      1  O   UNL     1       8.658  22.620  30.185  0.00  0.00    +0.000 OA
ATOM      2  O   UNL     1       5.893  25.313  28.569  0.00  0.00    +0.000 OA
ATOM      3  C   UNL     1       6.308  23.331  29.817  0.00  0.00    +0.000 A 
ATOM      4  C   UNL     1       8.215  24.716  28.866  0.00  0.00    +0.000 A 
ATOM      5  C   UNL     1       7.286  22.440  30.349  0.00  0.00    +0.000 A 
ATOM      6  C   UNL     1       6.733  24.547  29.027  0.00  0.00    +0.000 A 
ATOM      7  C   UNL     1       4.953  23.068  30.034  0.00  0.00    +0.000 A 
ATOM      8  C   UNL     1       8.789  23.727  29.474  0.00  0.00    +0.000 A 
ATOM      9  C   UNL     1       6.894  21.319  31.077  0.00  0.00    +0.000 A 
ATOM     10  C   UNL     1       4.568  21.944  30.763  0.00  0.00    +0.000 A 
ATOM     11  C   UNL     1       5.538  21.085  31.276  0.00  0.00    +0.000 A 
ENDROOT
BRANCH   4  12
ATOM     12  C   UNL     1       8.902  25.791  28.154  0.00  0.00    +0.000 A 
ATOM     13  C   UNL     1       8.668  26.024  26.796  0.00  0.00    +0.000 A 
ATOM     14  C   UNL     1       9.813  26.618  28.822  0.00  0.00    +0.000 A 
ATOM     15  C   UNL     1       9.323  27.049  26.117  0.00  0.00    +0.000 A 
ATOM     16  C   UNL     1      10.475  27.648  28.155  0.00  0.00    +0.000 A 
ATOM     17  C   UNL     1      10.223  27.855  26.805  0.00  0.00    +0.000 A 
BRANCH  17  18
ATOM     18  O   UNL     1      10.880  28.868  26.170  0.00  0.00    +0.000 OA
ATOM     19  H   UNL     1      11.343  29.399  26.842  0.00  0.00    +0.000 HD
ENDBRANCH  17  18
ENDBRANCH   4  12
BRANCH   7  20
ATOM     20  O   UNL     1       3.946  23.867  29.562  0.00  0.00    +0.000 OA
ATOM     21  H   UNL     1       3.802  24.603  30.200  0.00  0.00    +0.000 HD
ENDBRANCH   7  20
BRANCH  11  22
ATOM     22  O   UNL     1       5.173  19.981  31.992  0.00  0.00    +0.000 OA
ATOM     23  H   UNL     1       4.973  19.264  31.365  0.00  0.00    +0.000 HD
ENDBRANCH  11  22
TORSDOF 4
ENDMDL
MODEL 3
REMARK VINA RESULT:      -6.0     16.588     18.463
REMARK  Name = Genistein.pdbqt.pdb
REMARK  4 active torsions:
REMARK  status: ('A' for Active; 'I' for Inactive)
REMARK    1  A    between atoms: C_4  and  C_12
REMARK    2  A    between atoms: C_7  and  O_20
REMARK    3  A    between atoms: C_11  and  O_22
REMARK    4  A    between atoms: C_17  and  O_18
REMARK                            x       y       z     vdW  Elec       q    Type
REMARK                         _______ _______ _______ _____ _____    ______ ____
ROOT
ATOM      1  O   UNL     1      -0.081  26.305  15.008  0.00  0.00    +0.000 OA
ATOM      2  O   UNL     1      -0.989  30.309  15.814  0.00  0.00    +0.000 OA
ATOM      3  C   UNL     1      -1.434  28.006  16.206  0.00  0.00    +0.000 A 
ATOM      4  C   UNL     1       0.387  28.742  14.595  0.00  0.00    +0.000 A 
ATOM      5  C   UNL     1      -1.091  26.656  15.901  0.00  0.00    +0.000 A 
ATOM      6  C   UNL     1      -0.694  29.149  15.552  0.00  0.00    +0.000 A 
ATOM      7  C   UNL     1      -2.463  28.261  17.117  0.00  0.00    +0.000 A 
ATOM      8  C   UNL     1       0.417  27.447  14.567  0.00  0.00    +0.000 A 
ATOM      9  C   UNL     1      -1.774  25.603  16.504  0.00  0.00    +0.000 A 
ATOM     10  C   UNL     1      -3.143  27.201  17.717  0.00  0.00    +0.000 A 
ATOM     11  C   UNL     1      -2.793  25.889  17.407  0.00  0.00    +0.000 A 
ENDROOT
BRANCH   4  12
ATOM     12  C   UNL     1       1.256  29.630  13.826  0.00  0.00    +0.000 A 
ATOM     13  C   UNL     1       1.125  29.745  12.439  0.00  0.00    +0.000 A 
ATOM     14  C   UNL     1       2.242  30.390  14.466  0.00  0.00    +0.000 A 
ATOM     15  C   UNL     1       1.953  30.592  11.705  0.00  0.00    +0.000 A 
ATOM     16  C   UNL     1       3.078  31.241  13.743  0.00  0.00    +0.000 A 
ATOM     17  C   UNL     1       2.925  31.335  12.366  0.00  0.00    +0.000 A 
BRANCH  17  18
ATOM     18  O   UNL     1       3.751  32.173  11.677  0.00  0.00    +0.000 OA
ATOM     19  H   UNL     1       3.256  32.987  11.471  0.00  0.00    +0.000 HD
ENDBRANCH  17  18
ENDBRANCH   4  12
BRANCH   7  20
ATOM     20  O   UNL     1      -2.861  29.522  17.471  0.00  0.00    +0.000 OA
ATOM     21  H   UNL     1      -2.061  30.077  17.613  0.00  0.00    +0.000 HD
ENDBRANCH   7  20
BRANCH  11  22
ATOM     22  O   UNL     1      -3.451  24.843  17.988  0.00  0.00    +0.000 OA
ATOM     23  H   UNL     1      -4.000  25.194  18.712  0.00  0.00    +0.000 HD
ENDBRANCH  11  22
TORSDOF 4
ENDMDL
MODEL 4
REMARK VINA RESULT:      -5.9      0.990      2.534
REMARK  Name = Genistein.pdbqt.pdb
REMARK  4 active torsions:
REMARK  status: ('A' for Active; 'I' for Inactive)
REMARK    1  A    between atoms: C_4  and  C_12
REMARK    2  A    between atoms: C_7  and  O_20
REMARK    3  A    between atoms: C_11  and  O_22
REMARK    4  A    between atoms: C_17  and  O_18
REMARK                            x       y       z     vdW  Elec       q    Type
REMARK                         _______ _______ _______ _____ _____    ______ ____
ROOT
ATOM      1  O   UNL     1       7.809  25.100  26.907  0.00  0.00    +0.000 OA
ATOM      2  O   UNL     1       9.583  24.706  30.676  0.00  0.00    +0.000 OA
ATOM      3  C   UNL     1       9.464  25.854  28.596  0.00  0.00    +0.000 A 
ATOM      4  C   UNL     1       7.938  23.888  29.108  0.00  0.00    +0.000 A 
ATOM      5  C   UNL     1       8.831  25.951  27.322  0.00  0.00    +0.000 A 
ATOM      6  C   UNL     1       9.039  24.790  29.581  0.00  0.00    +0.000 A 
ATOM      7  C   UNL     1      10.482  26.754  28.925  0.00  0.00    +0.000 A 
ATOM      8  C   UNL     1       7.610  24.266  27.913  0.00  0.00    +0.000 A 
ATOM      9  C   UNL     1       9.224  26.932  26.415  0.00  0.00    +0.000 A 
ATOM     10  C   UNL     1      10.869  27.733  28.011  0.00  0.00    +0.000 A 
ATOM     11  C   UNL     1      10.239  27.813  26.771  0.00  0.00    +0.000 A 
ENDROOT
BRANCH   4  12
ATOM     12  C   UNL     1       7.334  22.781  29.846  0.00  0.00    +0.000 A 
ATOM     13  C   UNL     1       8.022  21.579  30.035  0.00  0.00    +0.000 A 
ATOM     14  C   UNL     1       6.047  22.901  30.383  0.00  0.00    +0.000 A 
ATOM     15  C   UNL     1       7.448  20.523  30.739  0.00  0.00    +0.000 A 
ATOM     16  C   UNL     1       5.460  21.852  31.089  0.00  0.00    +0.000 A 
ATOM     17  C   UNL     1       6.168  20.670  31.261  0.00  0.00    +0.000 A 
BRANCH  17  18
ATOM     18  O   UNL     1       5.577  19.655  31.956  0.00  0.00    +0.000 OA
ATOM     19  H   UNL     1       6.022  19.576  32.818  0.00  0.00    +0.000 HD
ENDBRANCH  17  18
ENDBRANCH   4  12
BRANCH   7  20
ATOM     20  O   UNL     1      11.145  26.737  30.122  0.00  0.00    +0.000 OA
ATOM     21  H   UNL     1      10.687  27.347  30.745  0.00  0.00    +0.000 HD
ENDBRANCH   7  20
BRANCH  11  22
ATOM     22  O   UNL     1      10.610  28.768  25.868  0.00  0.00    +0.000 OA
ATOM     23  H   UNL     1       9.983  28.741  25.123  0.00  0.00    +0.000 HD
ENDBRANCH  11  22
TORSDOF 4
ENDMDL
MODEL 5
REMARK VINA RESULT:      -5.5     18.912     20.624
REMARK  Name = Genistein.pdbqt.pdb
REMARK  4 active torsions:
REMARK  status: ('A' for Active; 'I' for Inactive)
REMARK    1  A    between atoms: C_4  and  C_12
REMARK    2  A    between atoms: C_7  and  O_20
REMARK    3  A    between atoms: C_11  and  O_22
REMARK    4  A    between atoms: C_17  and  O_18
REMARK                            x       y       z     vdW  Elec       q    Type
REMARK                         _______ _______ _______ _____ _____    ______ ____
ROOT
ATOM      1  O   UNL     1      24.498  11.550  28.068  0.00  0.00    +0.000 OA
ATOM      2  O   UNL     1      23.488  12.381  24.093  0.00  0.00    +0.000 OA
ATOM      3  C   UNL     1      23.913  10.766  25.786  0.00  0.00    +0.000 A 
ATOM      4  C   UNL     1      24.047  13.256  26.274  0.00  0.00    +0.000 A 
ATOM      5  C   UNL     1      24.260  10.530  27.149  0.00  0.00    +0.000 A 
ATOM      6  C   UNL     1      23.786  12.178  25.265  0.00  0.00    +0.000 A 
ATOM      7  C   UNL     1      23.692   9.677  24.938  0.00  0.00    +0.000 A 
ATOM      8  C   UNL     1      24.333  12.678  27.398  0.00  0.00    +0.000 A 
ATOM      9  C   UNL     1      24.377   9.228  27.630  0.00  0.00    +0.000 A 
ATOM     10  C   UNL     1      23.812   8.377  25.426  0.00  0.00    +0.000 A 
ATOM     11  C   UNL     1      24.151   8.165  26.761  0.00  0.00    +0.000 A 
ENDROOT
BRANCH   4  12
ATOM     12  C   UNL     1      23.997  14.699  26.049  0.00  0.00    +0.000 A 
ATOM     13  C   UNL     1      22.907  15.460  26.481  0.00  0.00    +0.000 A 
ATOM     14  C   UNL     1      25.046  15.354  25.392  0.00  0.00    +0.000 A 
ATOM     15  C   UNL     1      22.859  16.836  26.267  0.00  0.00    +0.000 A 
ATOM     16  C   UNL     1      25.010  16.730  25.171  0.00  0.00    +0.000 A 
ATOM     17  C   UNL     1      23.914  17.460  25.612  0.00  0.00    +0.000 A 
BRANCH  17  18
ATOM     18  O   UNL     1      23.897  18.805  25.387  0.00  0.00    +0.000 OA
ATOM     19  H   UNL     1      24.273  19.249  26.168  0.00  0.00    +0.000 HD
ENDBRANCH  17  18
ENDBRANCH   4  12
BRANCH   7  20
ATOM     20  O   UNL     1      23.355   9.807  23.618  0.00  0.00    +0.000 OA
ATOM     21  H   UNL     1      22.505   9.337  23.461  0.00  0.00    +0.000 HD
ENDBRANCH   7  20
BRANCH  11  22
ATOM     22  O   UNL     1      24.270   6.897  27.251  0.00  0.00    +0.000 OA
ATOM     23  H   UNL     1      24.417   6.294  26.500  0.00  0.00    +0.000 HD
ENDBRANCH  11  22
TORSDOF 4
ENDMDL
MODEL 6
REMARK VINA RESULT:      -5.5     17.895     19.181
REMARK  Name = Genistein.pdbqt.pdb
REMARK  4 active torsions:
REMARK  status: ('A' for Active; 'I' for Inactive)
REMARK    1  A    between atoms: C_4  and  C_12
REMARK    2  A    between atoms: C_7  and  O_20
REMARK    3  A    between atoms: C_11  and  O_22
REMARK    4  A    between atoms: C_17  and  O_18
REMARK                            x       y       z     vdW  Elec       q    Type
REMARK                         _______ _______ _______ _____ _____    ______ ____
ROOT
ATOM      1  O   UNL     1      25.429  14.295  24.487  0.00  0.00    +0.000 OA
ATOM      2  O   UNL     1      22.078  12.949  26.600  0.00  0.00    +0.000 OA
ATOM      3  C   UNL     1      23.950  12.443  25.224  0.00  0.00    +0.000 A 
ATOM      4  C   UNL     1      23.447  14.827  25.942  0.00  0.00    +0.000 A 
ATOM      5  C   UNL     1      25.082  12.946  24.517  0.00  0.00    +0.000 A 
ATOM      6  C   UNL     1      23.051  13.382  25.993  0.00  0.00    +0.000 A 
ATOM      7  C   UNL     1      23.682  11.071  25.198  0.00  0.00    +0.000 A 
ATOM      8  C   UNL     1      24.515  14.914  25.215  0.00  0.00    +0.000 A 
ATOM      9  C   UNL     1      25.911  12.080  23.808  0.00  0.00    +0.000 A 
ATOM     10  C   UNL     1      24.516  10.211  24.486  0.00  0.00    +0.000 A 
ATOM     11  C   UNL     1      25.618  10.720  23.802  0.00  0.00    +0.000 A 
ENDROOT
BRANCH   4  12
ATOM     12  C   UNL     1      22.764  15.946  26.588  0.00  0.00    +0.000 A 
ATOM     13  C   UNL     1      22.412  15.895  27.939  0.00  0.00    +0.000 A 
ATOM     14  C   UNL     1      22.448  17.101  25.862  0.00  0.00    +0.000 A 
ATOM     15  C   UNL     1      21.762  16.962  28.556  0.00  0.00    +0.000 A 
ATOM     16  C   UNL     1      21.796  18.175  26.466  0.00  0.00    +0.000 A 
ATOM     17  C   UNL     1      21.459  18.096  27.811  0.00  0.00    +0.000 A 
BRANCH  17  18
ATOM     18  O   UNL     1      20.822  19.158  28.384  0.00  0.00    +0.000 OA
ATOM     19  H   UNL     1      20.892  19.068  29.351  0.00  0.00    +0.000 HD
ENDBRANCH  17  18
ENDBRANCH   4  12
BRANCH   7  20
ATOM     20  O   UNL     1      22.621  10.499  25.845  0.00  0.00    +0.000 OA
ATOM     21  H   UNL     1      22.906   9.631  26.212  0.00  0.00    +0.000 HD
ENDBRANCH   7  20
BRANCH  11  22
ATOM     22  O   UNL     1      26.442   9.887  23.101  0.00  0.00    +0.000 OA
ATOM     23  H   UNL     1      26.591   9.087  23.636  0.00  0.00    +0.000 HD
ENDBRANCH  11  22
TORSDOF 4
ENDMDL
MODEL 7
REMARK VINA RESULT:      -5.2     25.619     26.198
REMARK  Name = Genistein.pdbqt.pdb
REMARK  4 active torsions:
REMARK  status: ('A' for Active; 'I' for Inactive)
REMARK    1  A    between atoms: C_4  and  C_12
REMARK    2  A    between atoms: C_7  and  O_20
REMARK    3  A    between atoms: C_11  and  O_22
REMARK    4  A    between atoms: C_17  and  O_18
REMARK                            x       y       z     vdW  Elec       q    Type
REMARK                         _______ _______ _______ _____ _____    ______ ____
ROOT
ATOM      1  O   UNL     1      29.543  15.265  18.178  0.00  0.00    +0.000 OA
ATOM      2  O   UNL     1      28.425  11.966  15.860  0.00  0.00    +0.000 OA
ATOM      3  C   UNL     1      28.676  14.323  16.051  0.00  0.00    +0.000 A 
ATOM      4  C   UNL     1      29.277  12.772  17.972  0.00  0.00    +0.000 A 
ATOM      5  C   UNL     1      29.068  15.418  16.877  0.00  0.00    +0.000 A 
ATOM      6  C   UNL     1      28.762  12.907  16.570  0.00  0.00    +0.000 A 
ATOM      7  C   UNL     1      28.211  14.575  14.757  0.00  0.00    +0.000 A 
ATOM      8  C   UNL     1      29.531  13.964  18.411  0.00  0.00    +0.000 A 
ATOM      9  C   UNL     1      28.988  16.724  16.399  0.00  0.00    +0.000 A 
ATOM     10  C   UNL     1      28.134  15.885  14.286  0.00  0.00    +0.000 A 
ATOM     11  C   UNL     1      28.522  16.942  15.107  0.00  0.00    +0.000 A 
ENDROOT
BRANCH   4  12
ATOM     12  C   UNL     1      29.462  11.532  18.722  0.00  0.00    +0.000 A 
ATOM     13  C   UNL     1      28.367  10.805  19.198  0.00  0.00    +0.000 A 
ATOM     14  C   UNL     1      30.747  11.041  18.979  0.00  0.00    +0.000 A 
ATOM     15  C   UNL     1      28.543   9.622  19.912  0.00  0.00    +0.000 A 
ATOM     16  C   UNL     1      30.938   9.859  19.693  0.00  0.00    +0.000 A 
ATOM     17  C   UNL     1      29.831   9.158  20.154  0.00  0.00    +0.000 A 
BRANCH  17  18
ATOM     18  O   UNL     1      30.037   8.003  20.850  0.00  0.00    +0.000 OA
ATOM     19  H   UNL     1      30.857   7.593  20.523  0.00  0.00    +0.000 HD
ENDBRANCH  17  18
ENDBRANCH   4  12
BRANCH   7  20
ATOM     20  O   UNL     1      27.814  13.590  13.895  0.00  0.00    +0.000 OA
ATOM     21  H   UNL     1      27.881  12.722  14.355  0.00  0.00    +0.000 HD
ENDBRANCH   7  20
BRANCH  11  22
ATOM     22  O   UNL     1      28.451  18.228  14.656  0.00  0.00    +0.000 OA
ATOM     23  H   UNL     1      29.182  18.731  15.056  0.00  0.00    +0.000 HD
ENDBRANCH  11  22
TORSDOF 4
ENDMDL
MODEL 8
REMARK VINA RESULT:      -5.1     15.573     19.129
REMARK  Name = Genistein.pdbqt.pdb
REMARK  4 active torsions:
REMARK  status: ('A' for Active; 'I' for Inactive)
REMARK    1  A    between atoms: C_4  and  C_12
REMARK    2  A    between atoms: C_7  and  O_20
REMARK    3  A    between atoms: C_11  and  O_22
REMARK    4  A    between atoms: C_17  and  O_18
REMARK                            x       y       z     vdW  Elec       q    Type
REMARK                         _______ _______ _______ _____ _____    ______ ____
ROOT
ATOM      1  O   UNL     1      -1.557  27.798  13.610  0.00  0.00    +0.000 OA
ATOM      2  O   UNL     1       1.342  29.983  15.690  0.00  0.00    +0.000 OA
ATOM      3  C   UNL     1      -0.453  28.423  15.743  0.00  0.00    +0.000 A 
ATOM      4  C   UNL     1       0.342  29.446  13.558  0.00  0.00    +0.000 A 
ATOM      5  C   UNL     1      -1.426  27.698  14.993  0.00  0.00    +0.000 A 
ATOM      6  C   UNL     1       0.506  29.359  15.046  0.00  0.00    +0.000 A 
ATOM      7  C   UNL     1      -0.397  28.258  17.130  0.00  0.00    +0.000 A 
ATOM      8  C   UNL     1      -0.630  28.658  13.225  0.00  0.00    +0.000 A 
ATOM      9  C   UNL     1      -2.310  26.836  15.636  0.00  0.00    +0.000 A 
ATOM     10  C   UNL     1      -1.285  27.394  17.766  0.00  0.00    +0.000 A 
ATOM     11  C   UNL     1      -2.229  26.693  17.017  0.00  0.00    +0.000 A 
ENDROOT
BRANCH   4  12
ATOM     12  C   UNL     1       1.126  30.266  12.636  0.00  0.00    +0.000 A 
ATOM     13  C   UNL     1       2.377  30.770  13.003  0.00  0.00    +0.000 A 
ATOM     14  C   UNL     1       0.638  30.565  11.359  0.00  0.00    +0.000 A 
ATOM     15  C   UNL     1       3.125  31.552  12.125  0.00  0.00    +0.000 A 
ATOM     16  C   UNL     1       1.376  31.346  10.470  0.00  0.00    +0.000 A 
ATOM     17  C   UNL     1       2.616  31.833  10.862  0.00  0.00    +0.000 A 
BRANCH  17  18
ATOM     18  O   UNL     1       3.323  32.595   9.979  0.00  0.00    +0.000 OA
ATOM     19  H   UNL     1       2.806  33.397   9.787  0.00  0.00    +0.000 HD
ENDBRANCH  17  18
ENDBRANCH   4  12
BRANCH   7  20
ATOM     20  O   UNL     1       0.502  28.911  17.930  0.00  0.00    +0.000 OA
ATOM     21  H   UNL     1       0.987  28.245  18.468  0.00  0.00    +0.000 HD
ENDBRANCH   7  20
BRANCH  11  22
ATOM     22  O   UNL     1      -3.104  25.843  17.630  0.00  0.00    +0.000 OA
ATOM     23  H   UNL     1      -3.761  26.377  18.110  0.00  0.00    +0.000 HD
ENDBRANCH  11  22
TORSDOF 4
ENDMDL
MODEL 9
REMARK VINA RESULT:      -5.1     23.807     26.383
REMARK  Name = Genistein.pdbqt.pdb
REMARK  4 active torsions:
REMARK  status: ('A' for Active; 'I' for Inactive)
REMARK    1  A    between atoms: C_4  and  C_12
REMARK    2  A    between atoms: C_7  and  O_20
REMARK    3  A    between atoms: C_11  and  O_22
REMARK    4  A    between atoms: C_17  and  O_18
REMARK                            x       y       z     vdW  Elec       q    Type
REMARK                         _______ _______ _______ _____ _____    ______ ____
ROOT
ATOM      1  O   UNL     1       4.816   1.298  19.741  0.00  0.00    +0.000 OA
ATOM      2  O   UNL     1       6.673  -2.138  21.241  0.00  0.00    +0.000 OA
ATOM      3  C   UNL     1       5.760  -0.969  19.382  0.00  0.00    +0.000 A 
ATOM      4  C   UNL     1       5.784   0.060  21.705  0.00  0.00    +0.000 A 
ATOM      5  C   UNL     1       5.128   0.220  18.915  0.00  0.00    +0.000 A 
ATOM      6  C   UNL     1       6.130  -1.115  20.840  0.00  0.00    +0.000 A 
ATOM      7  C   UNL     1       6.034  -1.999  18.477  0.00  0.00    +0.000 A 
ATOM      8  C   UNL     1       5.225   0.951  20.949  0.00  0.00    +0.000 A 
ATOM      9  C   UNL     1       4.786   0.354  17.572  0.00  0.00    +0.000 A 
ATOM     10  C   UNL     1       5.688  -1.858  17.135  0.00  0.00    +0.000 A 
ATOM     11  C   UNL     1       5.072  -0.688  16.695  0.00  0.00    +0.000 A 
ENDROOT
BRANCH   4  12
ATOM     12  C   UNL     1       6.024   0.191  23.141  0.00  0.00    +0.000 A 
ATOM     13  C   UNL     1       6.930   1.132  23.638  0.00  0.00    +0.000 A 
ATOM     14  C   UNL     1       5.347  -0.626  24.053  0.00  0.00    +0.000 A 
ATOM     15  C   UNL     1       7.158   1.259  25.007  0.00  0.00    +0.000 A 
ATOM     16  C   UNL     1       5.567  -0.510  25.425  0.00  0.00    +0.000 A 
ATOM     17  C   UNL     1       6.472   0.434  25.890  0.00  0.00    +0.000 A 
BRANCH  17  18
ATOM     18  O   UNL     1       6.674   0.533  27.236  0.00  0.00    +0.000 OA
ATOM     19  H   UNL     1       6.499   1.453  27.503  0.00  0.00    +0.000 HD
ENDBRANCH  17  18
ENDBRANCH   4  12
BRANCH   7  20
ATOM     20  O   UNL     1       6.637  -3.175  18.834  0.00  0.00    +0.000 OA
ATOM     21  H   UNL     1       6.751  -3.728  18.028  0.00  0.00    +0.000 HD
ENDBRANCH   7  20
BRANCH  11  22
ATOM     22  O   UNL     1       4.730  -0.538  15.383  0.00  0.00    +0.000 OA
ATOM     23  H   UNL     1       3.760  -0.463  15.328  0.00  0.00    +0.000 HD
ENDBRANCH  11  22
TORSDOF 4
ENDMDL
