MODEL 1
REMARK VINA RESULT:      -4.8      0.000      0.000
REMARK  Name = Hyoscyamine.pdbqt.pdb
REMARK  6 active torsions:
REMARK  status: ('A' for Active; 'I' for Inactive)
REMARK    1  A    between atoms: C_2  and  O_3
REMARK    2  A    between atoms: C_2  and  C_13
REMARK    3  A    between atoms: O_3  and  C_4
REMARK    4  A    between atoms: C_13  and  C_14
REMARK    5  A    between atoms: C_13  and  C_20
REMARK    6  A    between atoms: C_20  and  O_21
REMARK                            x       y       z     vdW  Elec       q    Type
REMARK                         _______ _______ _______ _____ _____    ______ ____
ROOT
ATOM      1  O   UNL     1      21.844   1.961  15.399  0.00  0.00    +0.000 OA
ATOM      2  C   UNL     1      22.061   1.433  16.483  0.00  0.00    +0.000 C 
ENDROOT
BRANCH   2   3
ATOM      3  O   UNL     1      21.175   0.724  17.241  0.00  0.00    +0.000 OA
BRANCH   3   4
ATOM      4  C   UNL     1      20.625  -0.362  16.560  0.00  0.00    +0.000 C 
ATOM      5  C   UNL     1      21.472  -1.300  15.844  0.00  0.00    +0.000 C 
ATOM      6  C   UNL     1      21.202  -1.907  14.534  0.00  0.00    +0.000 C 
ATOM      7  N   UNL     1      20.607  -0.759  13.706  0.00  0.00    +0.000 NA
ATOM      8  C   UNL     1      20.144  -2.901  14.573  0.00  0.00    +0.000 C 
ATOM      9  C   UNL     1      19.228  -0.735  14.384  0.00  0.00    +0.000 C 
ATOM     10  C   UNL     1      20.500  -1.121  12.284  0.00  0.00    +0.000 C 
ATOM     11  C   UNL     1      18.826  -2.132  14.470  0.00  0.00    +0.000 C 
ATOM     12  C   UNL     1      19.484  -0.125  15.698  0.00  0.00    +0.000 C 
ENDBRANCH   3   4
ENDBRANCH   2   3
BRANCH   2  13
ATOM     13  C   UNL     1      23.378   1.529  17.180  0.00  0.00    +0.000 C 
BRANCH  13  14
ATOM     14  C   UNL     1      24.109   0.365  17.715  0.00  0.00    +0.000 A 
ATOM     15  C   UNL     1      24.908  -0.415  16.872  0.00  0.00    +0.000 A 
ATOM     16  C   UNL     1      25.576  -1.539  17.355  0.00  0.00    +0.000 A 
ATOM     17  C   UNL     1      25.444  -1.904  18.690  0.00  0.00    +0.000 A 
ATOM     18  C   UNL     1      24.646  -1.146  19.540  0.00  0.00    +0.000 A 
ATOM     19  C   UNL     1      23.980  -0.023  19.051  0.00  0.00    +0.000 A 
ENDBRANCH  13  14
BRANCH  13  20
ATOM     20  C   UNL     1      23.973   2.828  17.263  0.00  0.00    +0.000 C 
BRANCH  20  21
ATOM     21  O   UNL     1      24.525   4.034  17.340  0.00  0.00    +0.000 OA
ATOM     22  H   UNL     1      25.474   3.989  17.127  0.00  0.00    +0.000 HD
ENDBRANCH  20  21
ENDBRANCH  13  20
ENDBRANCH   2  13
TORSDOF 6
ENDMDL
MODEL 2
REMARK VINA RESULT:      -4.7      1.685      2.250
REMARK  Name = Hyoscyamine.pdbqt.pdb
REMARK  6 active torsions:
REMARK  status: ('A' for Active; 'I' for Inactive)
REMARK    1  A    between atoms: C_2  and  O_3
REMARK    2  A    between atoms: C_2  and  C_13
REMARK    3  A    between atoms: O_3  and  C_4
REMARK    4  A    between atoms: C_13  and  C_14
REMARK    5  A    between atoms: C_13  and  C_20
REMARK    6  A    between atoms: C_20  and  O_21
REMARK                            x       y       z     vdW  Elec       q    Type
REMARK                         _______ _______ _______ _____ _____    ______ ____
ROOT
ATOM      1  O   UNL     1      21.516   1.541  15.324  0.00  0.00    +0.000 OA
ATOM      2  C   UNL     1      21.287   0.744  16.226  0.00  0.00    +0.000 C 
ENDROOT
BRANCH   2   3
ATOM      3  O   UNL     1      20.150   0.010  16.401  0.00  0.00    +0.000 OA
BRANCH   3   4
ATOM      4  C   UNL     1      19.981  -0.973  15.425  0.00  0.00    +0.000 C 
ATOM      5  C   UNL     1      21.129  -1.607  14.800  0.00  0.00    +0.000 C 
ATOM      6  C   UNL     1      21.278  -1.952  13.381  0.00  0.00    +0.000 C 
ATOM      7  N   UNL     1      20.677  -0.751  12.638  0.00  0.00    +0.000 NA
ATOM      8  C   UNL     1      20.446  -3.072  12.976  0.00  0.00    +0.000 C 
ATOM      9  C   UNL     1      19.203  -1.067  12.933  0.00  0.00    +0.000 C 
ATOM     10  C   UNL     1      20.962  -0.813  11.196  0.00  0.00    +0.000 C 
ATOM     11  C   UNL     1      19.064  -2.493  12.672  0.00  0.00    +0.000 C 
ATOM     12  C   UNL     1      19.038  -0.721  14.354  0.00  0.00    +0.000 C 
ENDBRANCH   3   4
ENDBRANCH   2   3
BRANCH   2  13
ATOM     13  C   UNL     1      22.250   0.480  17.336  0.00  0.00    +0.000 C 
BRANCH  13  14
ATOM     14  C   UNL     1      23.713   0.599  17.198  0.00  0.00    +0.000 A 
ATOM     15  C   UNL     1      24.461  -0.459  16.671  0.00  0.00    +0.000 A 
ATOM     16  C   UNL     1      25.849  -0.375  16.568  0.00  0.00    +0.000 A 
ATOM     17  C   UNL     1      26.509   0.770  17.002  0.00  0.00    +0.000 A 
ATOM     18  C   UNL     1      25.781   1.828  17.538  0.00  0.00    +0.000 A 
ATOM     19  C   UNL     1      24.394   1.737  17.638  0.00  0.00    +0.000 A 
ENDBRANCH  13  14
BRANCH  13  20
ATOM     20  C   UNL     1      21.691   0.158  18.613  0.00  0.00    +0.000 C 
BRANCH  20  21
ATOM     21  O   UNL     1      21.171  -0.141  19.799  0.00  0.00    +0.000 OA
ATOM     22  H   UNL     1      21.245   0.617  20.405  0.00  0.00    +0.000 HD
ENDBRANCH  20  21
ENDBRANCH  13  20
ENDBRANCH   2  13
TORSDOF 6
ENDMDL
MODEL 3
REMARK VINA RESULT:      -4.7     11.203     13.438
REMARK  Name = Hyoscyamine.pdbqt.pdb
REMARK  6 active torsions:
REMARK  status: ('A' for Active; 'I' for Inactive)
REMARK    1  A    between atoms: C_2  and  O_3
REMARK    2  A    between atoms: C_2  and  C_13
REMARK    3  A    between atoms: O_3  and  C_4
REMARK    4  A    between atoms: C_13  and  C_14
REMARK    5  A    between atoms: C_13  and  C_20
REMARK    6  A    between atoms: C_20  and  O_21
REMARK                            x       y       z     vdW  Elec       q    Type
REMARK                         _______ _______ _______ _____ _____    ______ ____
ROOT
ATOM      1  O   UNL     1      17.118  -0.540  25.113  0.00  0.00    +0.000 OA
ATOM      2  C   UNL     1      16.382   0.243  25.702  0.00  0.00    +0.000 C 
ENDROOT
BRANCH   2   3
ATOM      3  O   UNL     1      16.758   1.208  26.590  0.00  0.00    +0.000 OA
BRANCH   3   4
ATOM      4  C   UNL     1      18.069   1.052  27.042  0.00  0.00    +0.000 C 
ATOM      5  C   UNL     1      18.358   0.916  28.459  0.00  0.00    +0.000 C 
ATOM      6  C   UNL     1      19.475   1.527  29.191  0.00  0.00    +0.000 C 
ATOM      7  N   UNL     1      19.573   2.944  28.610  0.00  0.00    +0.000 NA
ATOM      8  C   UNL     1      20.759   0.925  28.878  0.00  0.00    +0.000 C 
ATOM      9  C   UNL     1      20.197   2.550  27.262  0.00  0.00    +0.000 C 
ATOM     10  C   UNL     1      20.485   3.787  29.398  0.00  0.00    +0.000 C 
ATOM     11  C   UNL     1      21.251   1.602  27.597  0.00  0.00    +0.000 C 
ATOM     12  C   UNL     1      19.086   1.939  26.516  0.00  0.00    +0.000 C 
ENDBRANCH   3   4
ENDBRANCH   2   3
BRANCH   2  13
ATOM     13  C   UNL     1      14.897   0.227  25.552  0.00  0.00    +0.000 C 
BRANCH  13  14
ATOM     14  C   UNL     1      14.077  -0.995  25.647  0.00  0.00    +0.000 A 
ATOM     15  C   UNL     1      13.646  -1.462  26.894  0.00  0.00    +0.000 A 
ATOM     16  C   UNL     1      12.902  -2.636  27.002  0.00  0.00    +0.000 A 
ATOM     17  C   UNL     1      12.585  -3.364  25.860  0.00  0.00    +0.000 A 
ATOM     18  C   UNL     1      13.014  -2.920  24.614  0.00  0.00    +0.000 A 
ATOM     19  C   UNL     1      13.758  -1.746  24.512  0.00  0.00    +0.000 A 
ENDBRANCH  13  14
BRANCH  13  20
ATOM     20  C   UNL     1      14.251   1.491  25.373  0.00  0.00    +0.000 C 
BRANCH  20  21
ATOM     21  O   UNL     1      13.651   2.665  25.207  0.00  0.00    +0.000 OA
ATOM     22  H   UNL     1      13.855   3.260  25.950  0.00  0.00    +0.000 HD
ENDBRANCH  20  21
ENDBRANCH  13  20
ENDBRANCH   2  13
TORSDOF 6
ENDMDL
MODEL 4
REMARK VINA RESULT:      -4.7     35.867     37.331
REMARK  Name = Hyoscyamine.pdbqt.pdb
REMARK  6 active torsions:
REMARK  status: ('A' for Active; 'I' for Inactive)
REMARK    1  A    between atoms: C_2  and  O_3
REMARK    2  A    between atoms: C_2  and  C_13
REMARK    3  A    between atoms: O_3  and  C_4
REMARK    4  A    between atoms: C_13  and  C_14
REMARK    5  A    between atoms: C_13  and  C_20
REMARK    6  A    between atoms: C_20  and  O_21
REMARK                            x       y       z     vdW  Elec       q    Type
REMARK                         _______ _______ _______ _____ _____    ______ ____
ROOT
ATOM      1  O   UNL     1       2.896  30.757  12.353  0.00  0.00    +0.000 OA
ATOM      2  C   UNL     1       2.835  31.152  13.511  0.00  0.00    +0.000 C 
ENDROOT
BRANCH   2   3
ATOM      3  O   UNL     1       2.432  30.434  14.600  0.00  0.00    +0.000 OA
BRANCH   3   4
ATOM      4  C   UNL     1       1.243  29.739  14.383  0.00  0.00    +0.000 C 
ATOM      5  C   UNL     1      -0.041  30.343  14.690  0.00  0.00    +0.000 C 
ATOM      6  C   UNL     1      -1.198  29.685  15.312  0.00  0.00    +0.000 C 
ATOM      7  N   UNL     1      -0.583  28.803  16.407  0.00  0.00    +0.000 NA
ATOM      8  C   UNL     1      -1.860  28.742  14.427  0.00  0.00    +0.000 C 
ATOM      9  C   UNL     1      -0.009  27.723  15.476  0.00  0.00    +0.000 C 
ATOM     10  C   UNL     1      -1.615  28.252  17.297  0.00  0.00    +0.000 C 
ATOM     11  C   UNL     1      -1.079  27.432  14.532  0.00  0.00    +0.000 C 
ATOM     12  C   UNL     1       1.155  28.369  14.850  0.00  0.00    +0.000 C 
ENDBRANCH   3   4
ENDBRANCH   2   3
BRANCH   2  13
ATOM     13  C   UNL     1       3.173  32.551  13.909  0.00  0.00    +0.000 C 
BRANCH  13  14
ATOM     14  C   UNL     1       4.524  32.985  14.312  0.00  0.00    +0.000 A 
ATOM     15  C   UNL     1       5.569  32.994  13.382  0.00  0.00    +0.000 A 
ATOM     16  C   UNL     1       6.859  33.367  13.757  0.00  0.00    +0.000 A 
ATOM     17  C   UNL     1       7.122  33.728  15.075  0.00  0.00    +0.000 A 
ATOM     18  C   UNL     1       6.096  33.715  16.014  0.00  0.00    +0.000 A 
ATOM     19  C   UNL     1       4.809  33.341  15.633  0.00  0.00    +0.000 A 
ENDBRANCH  13  14
BRANCH  13  20
ATOM     20  C   UNL     1       2.123  33.519  13.823  0.00  0.00    +0.000 C 
BRANCH  20  21
ATOM     21  O   UNL     1       1.148  34.418  13.743  0.00  0.00    +0.000 OA
ATOM     22  H   UNL     1       1.414  35.160  13.171  0.00  0.00    +0.000 HD
ENDBRANCH  20  21
ENDBRANCH  13  20
ENDBRANCH   2  13
TORSDOF 6
ENDMDL
MODEL 5
REMARK VINA RESULT:      -4.6     11.210     14.731
REMARK  Name = Hyoscyamine.pdbqt.pdb
REMARK  6 active torsions:
REMARK  status: ('A' for Active; 'I' for Inactive)
REMARK    1  A    between atoms: C_2  and  O_3
REMARK    2  A    between atoms: C_2  and  C_13
REMARK    3  A    between atoms: O_3  and  C_4
REMARK    4  A    between atoms: C_13  and  C_14
REMARK    5  A    between atoms: C_13  and  C_20
REMARK    6  A    between atoms: C_20  and  O_21
REMARK                            x       y       z     vdW  Elec       q    Type
REMARK                         _______ _______ _______ _____ _____    ______ ____
ROOT
ATOM      1  O   UNL     1      27.269  12.760  23.945  0.00  0.00    +0.000 OA
ATOM      2  C   UNL     1      26.339  12.237  23.345  0.00  0.00    +0.000 C 
ENDROOT
BRANCH   2   3
ATOM      3  O   UNL     1      26.368  11.718  22.083  0.00  0.00    +0.000 OA
BRANCH   3   4
ATOM      4  C   UNL     1      27.485  10.915  21.850  0.00  0.00    +0.000 C 
ATOM      5  C   UNL     1      27.921  10.618  20.497  0.00  0.00    +0.000 C 
ATOM      6  C   UNL     1      28.410   9.328  19.994  0.00  0.00    +0.000 C 
ATOM      7  N   UNL     1      27.487   8.294  20.653  0.00  0.00    +0.000 NA
ATOM      8  C   UNL     1      29.733   8.988  20.488  0.00  0.00    +0.000 C 
ATOM      9  C   UNL     1      28.087   8.382  22.065  0.00  0.00    +0.000 C 
ATOM     10  C   UNL     1      27.675   6.956  20.072  0.00  0.00    +0.000 C 
ATOM     11  C   UNL     1      29.529   8.354  21.865  0.00  0.00    +0.000 C 
ATOM     12  C   UNL     1      27.600   9.670  22.584  0.00  0.00    +0.000 C 
ENDBRANCH   3   4
ENDBRANCH   2   3
BRANCH   2  13
ATOM     13  C   UNL     1      24.966  12.122  23.920  0.00  0.00    +0.000 C 
BRANCH  13  14
ATOM     14  C   UNL     1      24.356  13.141  24.795  0.00  0.00    +0.000 A 
ATOM     15  C   UNL     1      23.235  12.826  25.570  0.00  0.00    +0.000 A 
ATOM     16  C   UNL     1      22.625  13.789  26.373  0.00  0.00    +0.000 A 
ATOM     17  C   UNL     1      23.127  15.086  26.404  0.00  0.00    +0.000 A 
ATOM     18  C   UNL     1      24.234  15.418  25.631  0.00  0.00    +0.000 A 
ATOM     19  C   UNL     1      24.839  14.451  24.830  0.00  0.00    +0.000 A 
ENDBRANCH  13  14
BRANCH  13  20
ATOM     20  C   UNL     1      24.196  10.980  23.533  0.00  0.00    +0.000 C 
BRANCH  20  21
ATOM     21  O   UNL     1      23.481   9.919  23.173  0.00  0.00    +0.000 OA
ATOM     22  H   UNL     1      23.914   9.099  23.469  0.00  0.00    +0.000 HD
ENDBRANCH  20  21
ENDBRANCH  13  20
ENDBRANCH   2  13
TORSDOF 6
ENDMDL
MODEL 6
REMARK VINA RESULT:      -4.6     25.475     27.541
REMARK  Name = Hyoscyamine.pdbqt.pdb
REMARK  6 active torsions:
REMARK  status: ('A' for Active; 'I' for Inactive)
REMARK    1  A    between atoms: C_2  and  O_3
REMARK    2  A    between atoms: C_2  and  C_13
REMARK    3  A    between atoms: O_3  and  C_4
REMARK    4  A    between atoms: C_13  and  C_14
REMARK    5  A    between atoms: C_13  and  C_20
REMARK    6  A    between atoms: C_20  and  O_21
REMARK                            x       y       z     vdW  Elec       q    Type
REMARK                         _______ _______ _______ _____ _____    ______ ____
ROOT
ATOM      1  O   UNL     1      -0.348  13.419  26.413  0.00  0.00    +0.000 OA
ATOM      2  C   UNL     1       0.649  13.450  25.702  0.00  0.00    +0.000 C 
ENDROOT
BRANCH   2   3
ATOM      3  O   UNL     1       1.213  14.553  25.130  0.00  0.00    +0.000 OA
BRANCH   3   4
ATOM      4  C   UNL     1       0.285  15.559  24.857  0.00  0.00    +0.000 C 
ATOM      5  C   UNL     1      -0.705  15.394  23.808  0.00  0.00    +0.000 C 
ATOM      6  C   UNL     1      -1.149  16.415  22.849  0.00  0.00    +0.000 C 
ATOM      7  N   UNL     1       0.142  17.146  22.457  0.00  0.00    +0.000 NA
ATOM      8  C   UNL     1      -1.971  17.447  23.455  0.00  0.00    +0.000 C 
ATOM      9  C   UNL     1       0.317  17.932  23.766  0.00  0.00    +0.000 C 
ATOM     10  C   UNL     1      -0.076  18.046  21.314  0.00  0.00    +0.000 C 
ATOM     11  C   UNL     1      -1.005  18.464  24.065  0.00  0.00    +0.000 C 
ATOM     12  C   UNL     1       0.766  16.920  24.735  0.00  0.00    +0.000 C 
ENDBRANCH   3   4
ENDBRANCH   2   3
BRANCH   2  13
ATOM     13  C   UNL     1       1.402  12.221  25.310  0.00  0.00    +0.000 C 
BRANCH  13  14
ATOM     14  C   UNL     1       1.099  11.422  24.108  0.00  0.00    +0.000 A 
ATOM     15  C   UNL     1       0.079  11.818  23.236  0.00  0.00    +0.000 A 
ATOM     16  C   UNL     1      -0.243  11.054  22.116  0.00  0.00    +0.000 A 
ATOM     17  C   UNL     1       0.448   9.874  21.859  0.00  0.00    +0.000 A 
ATOM     18  C   UNL     1       1.457   9.461  22.721  0.00  0.00    +0.000 A 
ATOM     19  C   UNL     1       1.775  10.230  23.840  0.00  0.00    +0.000 A 
ENDBRANCH  13  14
BRANCH  13  20
ATOM     20  C   UNL     1       2.518  11.859  26.129  0.00  0.00    +0.000 C 
BRANCH  20  21
ATOM     21  O   UNL     1       3.554  11.521  26.890  0.00  0.00    +0.000 OA
ATOM     22  H   UNL     1       3.370  10.694  27.369  0.00  0.00    +0.000 HD
ENDBRANCH  20  21
ENDBRANCH  13  20
ENDBRANCH   2  13
TORSDOF 6
ENDMDL
MODEL 7
REMARK VINA RESULT:      -4.6     25.850     27.734
REMARK  Name = Hyoscyamine.pdbqt.pdb
REMARK  6 active torsions:
REMARK  status: ('A' for Active; 'I' for Inactive)
REMARK    1  A    between atoms: C_2  and  O_3
REMARK    2  A    between atoms: C_2  and  C_13
REMARK    3  A    between atoms: O_3  and  C_4
REMARK    4  A    between atoms: C_13  and  C_14
REMARK    5  A    between atoms: C_13  and  C_20
REMARK    6  A    between atoms: C_20  and  O_21
REMARK                            x       y       z     vdW  Elec       q    Type
REMARK                         _______ _______ _______ _____ _____    ______ ____
ROOT
ATOM      1  O   UNL     1      -2.524  15.653  21.839  0.00  0.00    +0.000 OA
ATOM      2  C   UNL     1      -1.300  15.650  21.810  0.00  0.00    +0.000 C 
ENDROOT
BRANCH   2   3
ATOM      3  O   UNL     1      -0.498  14.735  21.190  0.00  0.00    +0.000 OA
BRANCH   3   4
ATOM      4  C   UNL     1      -1.068  13.463  21.132  0.00  0.00    +0.000 C 
ATOM      5  C   UNL     1      -0.942  12.539  22.245  0.00  0.00    +0.000 C 
ATOM      6  C   UNL     1      -0.690  11.094  22.165  0.00  0.00    +0.000 C 
ATOM      7  N   UNL     1       0.353  10.958  21.047  0.00  0.00    +0.000 NA
ATOM      8  C   UNL     1      -1.833  10.342  21.678  0.00  0.00    +0.000 C 
ATOM      9  C   UNL     1      -0.599  11.224  19.871  0.00  0.00    +0.000 C 
ATOM     10  C   UNL     1       0.907   9.597  20.992  0.00  0.00    +0.000 C 
ATOM     11  C   UNL     1      -1.780  10.419  20.151  0.00  0.00    +0.000 C 
ATOM     12  C   UNL     1      -0.857  12.671  19.937  0.00  0.00    +0.000 C 
ENDBRANCH   3   4
ENDBRANCH   2   3
BRANCH   2  13
ATOM     13  C   UNL     1      -0.470  16.672  22.514  0.00  0.00    +0.000 C 
BRANCH  13  14
ATOM     14  C   UNL     1       0.017  16.520  23.898  0.00  0.00    +0.000 A 
ATOM     15  C   UNL     1       0.131  17.637  24.733  0.00  0.00    +0.000 A 
ATOM     16  C   UNL     1       0.624  17.514  26.031  0.00  0.00    +0.000 A 
ATOM     17  C   UNL     1       1.020  16.269  26.508  0.00  0.00    +0.000 A 
ATOM     18  C   UNL     1       0.924  15.150  25.688  0.00  0.00    +0.000 A 
ATOM     19  C   UNL     1       0.430  15.279  24.391  0.00  0.00    +0.000 A 
ENDBRANCH  13  14
BRANCH  13  20
ATOM     20  C   UNL     1      -0.086  17.825  21.759  0.00  0.00    +0.000 C 
BRANCH  20  21
ATOM     21  O   UNL     1       0.271  18.895  21.057  0.00  0.00    +0.000 OA
ATOM     22  H   UNL     1       1.241  18.967  21.014  0.00  0.00    +0.000 HD
ENDBRANCH  20  21
ENDBRANCH  13  20
ENDBRANCH   2  13
TORSDOF 6
ENDMDL
MODEL 8
REMARK VINA RESULT:      -4.4     15.474     18.663
REMARK  Name = Hyoscyamine.pdbqt.pdb
REMARK  6 active torsions:
REMARK  status: ('A' for Active; 'I' for Inactive)
REMARK    1  A    between atoms: C_2  and  O_3
REMARK    2  A    between atoms: C_2  and  C_13
REMARK    3  A    between atoms: O_3  and  C_4
REMARK    4  A    between atoms: C_13  and  C_14
REMARK    5  A    between atoms: C_13  and  C_20
REMARK    6  A    between atoms: C_20  and  O_21
REMARK                            x       y       z     vdW  Elec       q    Type
REMARK                         _______ _______ _______ _____ _____    ______ ____
ROOT
ATOM      1  O   UNL     1      24.826  13.962  28.452  0.00  0.00    +0.000 OA
ATOM      2  C   UNL     1      24.628  14.071  27.248  0.00  0.00    +0.000 C 
ENDROOT
BRANCH   2   3
ATOM      3  O   UNL     1      24.958  15.133  26.458  0.00  0.00    +0.000 OA
BRANCH   3   4
ATOM      4  C   UNL     1      23.883  15.989  26.218  0.00  0.00    +0.000 C 
ATOM      5  C   UNL     1      23.932  16.965  25.144  0.00  0.00    +0.000 C 
ATOM      6  C   UNL     1      23.443  18.349  25.190  0.00  0.00    +0.000 C 
ATOM      7  N   UNL     1      23.860  18.847  26.580  0.00  0.00    +0.000 NA
ATOM      8  C   UNL     1      21.993  18.442  25.199  0.00  0.00    +0.000 C 
ATOM      9  C   UNL     1      22.807  18.066  27.382  0.00  0.00    +0.000 C 
ATOM     10  C   UNL     1      23.666  20.299  26.712  0.00  0.00    +0.000 C 
ATOM     11  C   UNL     1      21.560  18.258  26.655  0.00  0.00    +0.000 C 
ATOM     12  C   UNL     1      23.288  16.676  27.347  0.00  0.00    +0.000 C 
ENDBRANCH   3   4
ENDBRANCH   2   3
BRANCH   2  13
ATOM     13  C   UNL     1      23.929  13.025  26.445  0.00  0.00    +0.000 C 
BRANCH  13  14
ATOM     14  C   UNL     1      24.584  12.225  25.393  0.00  0.00    +0.000 A 
ATOM     15  C   UNL     1      24.448  12.582  24.047  0.00  0.00    +0.000 A 
ATOM     16  C   UNL     1      25.031  11.814  23.040  0.00  0.00    +0.000 A 
ATOM     17  C   UNL     1      25.752  10.671  23.368  0.00  0.00    +0.000 A 
ATOM     18  C   UNL     1      25.888  10.296  24.700  0.00  0.00    +0.000 A 
ATOM     19  C   UNL     1      25.303  11.068  25.703  0.00  0.00    +0.000 A 
ENDBRANCH  13  14
BRANCH  13  20
ATOM     20  C   UNL     1      22.563  12.759  26.779  0.00  0.00    +0.000 C 
BRANCH  20  21
ATOM     21  O   UNL     1      21.295  12.511  27.089  0.00  0.00    +0.000 OA
ATOM     22  H   UNL     1      21.191  11.593  27.396  0.00  0.00    +0.000 HD
ENDBRANCH  20  21
ENDBRANCH  13  20
ENDBRANCH   2  13
TORSDOF 6
ENDMDL
MODEL 9
REMARK VINA RESULT:      -4.4     13.964     16.977
REMARK  Name = Hyoscyamine.pdbqt.pdb
REMARK  6 active torsions:
REMARK  status: ('A' for Active; 'I' for Inactive)
REMARK    1  A    between atoms: C_2  and  O_3
REMARK    2  A    between atoms: C_2  and  C_13
REMARK    3  A    between atoms: O_3  and  C_4
REMARK    4  A    between atoms: C_13  and  C_14
REMARK    5  A    between atoms: C_13  and  C_20
REMARK    6  A    between atoms: C_20  and  O_21
REMARK                            x       y       z     vdW  Elec       q    Type
REMARK                         _______ _______ _______ _____ _____    ______ ____
ROOT
ATOM      1  O   UNL     1      21.500  12.928  25.963  0.00  0.00    +0.000 OA
ATOM      2  C   UNL     1      22.689  13.039  25.693  0.00  0.00    +0.000 C 
ENDROOT
BRANCH   2   3
ATOM      3  O   UNL     1      23.485  12.102  25.100  0.00  0.00    +0.000 OA
BRANCH   3   4
ATOM      4  C   UNL     1      23.551  10.910  25.820  0.00  0.00    +0.000 C 
ATOM      5  C   UNL     1      24.494  10.750  26.912  0.00  0.00    +0.000 C 
ATOM      6  C   UNL     1      25.291   9.555  27.219  0.00  0.00    +0.000 C 
ATOM      7  N   UNL     1      25.750   9.048  25.845  0.00  0.00    +0.000 NA
ATOM      8  C   UNL     1      24.497   8.462  27.753  0.00  0.00    +0.000 C 
ATOM      9  C   UNL     1      24.397   8.475  25.396  0.00  0.00    +0.000 C 
ATOM     10  C   UNL     1      26.766   7.992  25.973  0.00  0.00    +0.000 C 
ATOM     11  C   UNL     1      23.901   7.734  26.547  0.00  0.00    +0.000 C 
ATOM     12  C   UNL     1      23.589   9.663  25.081  0.00  0.00    +0.000 C 
ENDBRANCH   3   4
ENDBRANCH   2   3
BRANCH   2  13
ATOM     13  C   UNL     1      23.485  14.258  26.025  0.00  0.00    +0.000 C 
BRANCH  13  14
ATOM     14  C   UNL     1      22.923  15.447  26.693  0.00  0.00    +0.000 A 
ATOM     15  C   UNL     1      22.541  15.388  28.037  0.00  0.00    +0.000 A 
ATOM     16  C   UNL     1      21.974  16.493  28.671  0.00  0.00    +0.000 A 
ATOM     17  C   UNL     1      21.773  17.672  27.962  0.00  0.00    +0.000 A 
ATOM     18  C   UNL     1      22.137  17.745  26.622  0.00  0.00    +0.000 A 
ATOM     19  C   UNL     1      22.703  16.637  25.993  0.00  0.00    +0.000 A 
ENDBRANCH  13  14
BRANCH  13  20
ATOM     20  C   UNL     1      24.884  14.218  25.728  0.00  0.00    +0.000 C 
BRANCH  20  21
ATOM     21  O   UNL     1      26.183  14.181  25.452  0.00  0.00    +0.000 OA
ATOM     22  H   UNL     1      26.641  13.561  26.046  0.00  0.00    +0.000 HD
ENDBRANCH  20  21
ENDBRANCH  13  20
ENDBRANCH   2  13
TORSDOF 6
ENDMDL
