MODEL 1
REMARK VINA RESULT:      -7.5      0.000      0.000
REMARK  Name = 
REMARK  21 active torsions:
REMARK  status: ('A' for Active; 'I' for Inactive)
REMARK    1  A    between atoms: O_3  and  C_22
REMARK    2  A    between atoms: O_3  and  C_28
REMARK    3  A    between atoms: O_4  and  C_25
REMARK    4  A    between atoms: O_4  and  C_30
REMARK    5  A    between atoms: O_5  and  C_16
REMARK    6  A    between atoms: O_6  and  C_17
REMARK    7  A    between atoms: O_7  and  C_18
REMARK    8  A    between atoms: O_8  and  C_20
REMARK    9  A    between atoms: O_9  and  C_21
REMARK   10  A    between atoms: O_10  and  C_23
REMARK   11  A    between atoms: O_11  and  C_26
REMARK   12  A    between atoms: O_13  and  C_36
REMARK   13  A    between atoms: O_15  and  C_45
REMARK   14  A    between atoms: O_15  and  C_48
REMARK   15  A    between atoms: C_19  and  C_26
REMARK   16  A    between atoms: C_24  and  C_27
REMARK   17  A    between atoms: C_29  and  C_37
REMARK   18  A    between atoms: C_35  and  C_38
REMARK   19  A    between atoms: C_37  and  C_39
REMARK   20  A    between atoms: C_42  and  C_46
REMARK   21  A    between atoms: C_42  and  C_47
REMARK                            x       y       z     vdW  Elec       q    Type
REMARK                         _______ _______ _______ _____ _____    ______ ____
ROOT
ATOM      1  O   UNL     1       9.480  20.438  31.321  0.00  0.00    +0.000 OA
ATOM      2  O   UNL     1      13.201  19.606  29.926  0.00  0.00    +0.000 OA
ATOM      3  C   UNL     1      10.535  23.818  30.401  0.00  0.00    +0.000 A 
ATOM      4  C   UNL     1       9.738  22.761  30.878  0.00  0.00    +0.000 A 
ATOM      5  C   UNL     1      11.196  18.786  30.906  0.00  0.00    +0.000 A 
ATOM      6  C   UNL     1      10.274  21.457  30.853  0.00  0.00    +0.000 A 
ATOM      7  C   UNL     1      11.557  21.224  30.359  0.00  0.00    +0.000 A 
ATOM      8  C   UNL     1      12.078  19.850  30.364  0.00  0.00    +0.000 A 
ATOM      9  C   UNL     1      11.805  23.578  29.869  0.00  0.00    +0.000 A 
ATOM     10  C   UNL     1       9.988  19.154  31.370  0.00  0.00    +0.000 A 
ATOM     11  C   UNL     1      12.318  22.285  29.863  0.00  0.00    +0.000 A 
ENDROOT
BRANCH  10  12
ATOM     12  C   UNL     1       9.044  18.186  31.950  0.00  0.00    +0.000 A 
ATOM     13  C   UNL     1       7.981  17.701  31.179  0.00  0.00    +0.000 A 
ATOM     14  C   UNL     1       9.178  17.745  33.272  0.00  0.00    +0.000 A 
ATOM     15  C   UNL     1       7.082  16.779  31.721  0.00  0.00    +0.000 A 
ATOM     16  C   UNL     1       8.277  16.819  33.811  0.00  0.00    +0.000 A 
ATOM     17  C   UNL     1       7.228  16.327  33.034  0.00  0.00    +0.000 A 
BRANCH  17  18
ATOM     18  O   UNL     1       6.285  15.423  33.436  0.00  0.00    +0.000 OA
ATOM     19  C   UNL     1       5.601  14.712  32.411  0.00  0.00    +0.000 C 
ENDBRANCH  17  18
ENDBRANCH  10  12
BRANCH  11  20
ATOM     20  O   UNL     1      13.575  22.131  29.344  0.00  0.00    +0.000 OA
ATOM     21  H   UNL     1      13.892  21.227  29.566  0.00  0.00    +0.000 HD
ENDBRANCH  11  20
BRANCH   4  22
ATOM     22  C   UNL     1       8.353  23.008  31.443  0.00  0.00    +0.000 C 
BRANCH  22  23
ATOM     23  C   UNL     1       7.335  23.282  30.367  0.00  0.00    +0.000 C 
ATOM     24  C   UNL     1       6.565  24.375  30.194  0.00  0.00    +0.000 C 
ATOM     25  C   UNL     1       6.569  25.597  31.071  0.00  0.00    +0.000 C 
ATOM     26  C   UNL     1       5.601  24.451  29.038  0.00  0.00    +0.000 C 
ENDBRANCH  22  23
ENDBRANCH   4  22
BRANCH   5  27
ATOM     27  O   UNL     1      11.671  17.490  30.988  0.00  0.00    +0.000 OA
BRANCH  27  33
ATOM     28  O   UNL     1      10.578  15.507  30.289  0.00  0.00    +0.000 OA
ATOM     29  C   UNL     1      13.417  15.357  29.802  0.00  0.00    +0.000 C 
ATOM     30  C   UNL     1      12.612  14.141  30.277  0.00  0.00    +0.000 C 
ATOM     31  C   UNL     1      12.531  16.339  29.036  0.00  0.00    +0.000 C 
ATOM     32  C   UNL     1      11.382  14.608  31.065  0.00  0.00    +0.000 C 
ATOM     33  C   UNL     1      11.278  16.687  29.868  0.00  0.00    +0.000 C 
ATOM     34  C   UNL     1      10.496  13.434  31.467  0.00  0.00    +0.000 C 
BRANCH  29  35
ATOM     35  O   UNL     1      14.486  14.891  28.957  0.00  0.00    +0.000 OA
ATOM     36  H   UNL     1      15.290  14.952  29.514  0.00  0.00    +0.000 HD
ENDBRANCH  29  35
BRANCH  30  37
ATOM     37  O   UNL     1      13.459  13.312  31.082  0.00  0.00    +0.000 OA
ATOM     38  H   UNL     1      13.109  13.394  31.992  0.00  0.00    +0.000 HD
ENDBRANCH  30  37
BRANCH  31  39
ATOM     39  O   UNL     1      12.196  15.728  27.772  0.00  0.00    +0.000 OA
ATOM     40  H   UNL     1      11.359  16.128  27.472  0.00  0.00    +0.000 HD
ENDBRANCH  31  39
ENDBRANCH  27  33
ENDBRANCH   5  27
BRANCH   3  41
ATOM     41  O   UNL     1      10.014  25.087  30.367  0.00  0.00    +0.000 OA
BRANCH  41  47
ATOM     42  O   UNL     1      11.010  27.145  29.760  0.00  0.00    +0.000 OA
ATOM     43  C   UNL     1       9.870  26.983  27.147  0.00  0.00    +0.000 C 
ATOM     44  C   UNL     1      10.468  28.286  27.685  0.00  0.00    +0.000 C 
ATOM     45  C   UNL     1       9.403  26.082  28.288  0.00  0.00    +0.000 C 
ATOM     46  C   UNL     1      11.563  27.960  28.711  0.00  0.00    +0.000 C 
ATOM     47  C   UNL     1      10.556  25.877  29.289  0.00  0.00    +0.000 C 
BRANCH  44  48
ATOM     48  O   UNL     1      10.986  29.048  26.594  0.00  0.00    +0.000 OA
ATOM     49  H   UNL     1      11.148  29.942  26.961  0.00  0.00    +0.000 HD
ENDBRANCH  44  48
BRANCH  45  50
ATOM     50  O   UNL     1       8.947  24.839  27.729  0.00  0.00    +0.000 OA
ATOM     51  H   UNL     1       9.560  24.154  28.064  0.00  0.00    +0.000 HD
ENDBRANCH  45  50
BRANCH  43  52
ATOM     52  O   UNL     1       8.769  27.300  26.279  0.00  0.00    +0.000 OA
ATOM     53  H   UNL     1       8.046  26.701  26.556  0.00  0.00    +0.000 HD
ENDBRANCH  43  52
BRANCH  46  54
ATOM     54  C   UNL     1      12.133  29.239  29.339  0.00  0.00    +0.000 C 
BRANCH  54  55
ATOM     55  O   UNL     1      13.487  29.420  28.920  0.00  0.00    +0.000 OA
ATOM     56  H   UNL     1      13.603  28.901  28.106  0.00  0.00    +0.000 HD
ENDBRANCH  54  55
ENDBRANCH  46  54
ENDBRANCH  41  47
ENDBRANCH   3  41
TORSDOF 17
ENDMDL
MODEL 2
REMARK VINA RESULT:      -7.1      2.661     10.347
REMARK  Name = 
REMARK  21 active torsions:
REMARK  status: ('A' for Active; 'I' for Inactive)
REMARK    1  A    between atoms: O_3  and  C_22
REMARK    2  A    between atoms: O_3  and  C_28
REMARK    3  A    between atoms: O_4  and  C_25
REMARK    4  A    between atoms: O_4  and  C_30
REMARK    5  A    between atoms: O_5  and  C_16
REMARK    6  A    between atoms: O_6  and  C_17
REMARK    7  A    between atoms: O_7  and  C_18
REMARK    8  A    between atoms: O_8  and  C_20
REMARK    9  A    between atoms: O_9  and  C_21
REMARK   10  A    between atoms: O_10  and  C_23
REMARK   11  A    between atoms: O_11  and  C_26
REMARK   12  A    between atoms: O_13  and  C_36
REMARK   13  A    between atoms: O_15  and  C_45
REMARK   14  A    between atoms: O_15  and  C_48
REMARK   15  A    between atoms: C_19  and  C_26
REMARK   16  A    between atoms: C_24  and  C_27
REMARK   17  A    between atoms: C_29  and  C_37
REMARK   18  A    between atoms: C_35  and  C_38
REMARK   19  A    between atoms: C_37  and  C_39
REMARK   20  A    between atoms: C_42  and  C_46
REMARK   21  A    between atoms: C_42  and  C_47
REMARK                            x       y       z     vdW  Elec       q    Type
REMARK                         _______ _______ _______ _____ _____    ______ ____
ROOT
ATOM      1  O   UNL     1       9.533  21.917  30.342  0.00  0.00    +0.000 OA
ATOM      2  O   UNL     1       5.935  20.138  30.948  0.00  0.00    +0.000 OA
ATOM      3  C   UNL     1      10.683  18.635  31.479  0.00  0.00    +0.000 A 
ATOM      4  C   UNL     1      10.712  19.964  31.019  0.00  0.00    +0.000 A 
ATOM      5  C   UNL     1       7.123  22.098  30.317  0.00  0.00    +0.000 A 
ATOM      6  C   UNL     1       9.485  20.620  30.793  0.00  0.00    +0.000 A 
ATOM      7  C   UNL     1       8.274  19.962  31.013  0.00  0.00    +0.000 A 
ATOM      8  C   UNL     1       7.021  20.689  30.775  0.00  0.00    +0.000 A 
ATOM      9  C   UNL     1       9.470  17.964  31.660  0.00  0.00    +0.000 A 
ATOM     10  C   UNL     1       8.355  22.617  30.165  0.00  0.00    +0.000 A 
ATOM     11  C   UNL     1       8.271  18.632  31.441  0.00  0.00    +0.000 A 
ENDROOT
BRANCH  10  12
ATOM     12  C   UNL     1       8.573  24.007  29.738  0.00  0.00    +0.000 A 
ATOM     13  C   UNL     1       8.977  24.968  30.671  0.00  0.00    +0.000 A 
ATOM     14  C   UNL     1       8.371  24.397  28.408  0.00  0.00    +0.000 A 
ATOM     15  C   UNL     1       9.191  26.290  30.272  0.00  0.00    +0.000 A 
ATOM     16  C   UNL     1       8.589  25.722  28.011  0.00  0.00    +0.000 A 
ATOM     17  C   UNL     1       9.006  26.673  28.942  0.00  0.00    +0.000 A 
BRANCH  17  18
ATOM     18  O   UNL     1       9.255  27.993  28.687  0.00  0.00    +0.000 OA
ATOM     19  C   UNL     1      10.454  28.295  27.985  0.00  0.00    +0.000 C 
ENDBRANCH  17  18
ENDBRANCH  10  12
BRANCH  11  20
ATOM     20  O   UNL     1       7.125  17.916  31.657  0.00  0.00    +0.000 OA
ATOM     21  H   UNL     1       7.355  17.114  32.176  0.00  0.00    +0.000 HD
ENDBRANCH  11  20
BRANCH   4  22
ATOM     22  C   UNL     1      12.022  20.697  30.804  0.00  0.00    +0.000 C 
BRANCH  22  23
ATOM     23  C   UNL     1      12.360  21.614  31.951  0.00  0.00    +0.000 C 
ATOM     24  C   UNL     1      12.548  22.949  31.936  0.00  0.00    +0.000 C 
ATOM     25  C   UNL     1      12.449  23.833  30.724  0.00  0.00    +0.000 C 
ATOM     26  C   UNL     1      12.881  23.684  33.208  0.00  0.00    +0.000 C 
ENDBRANCH  22  23
ENDBRANCH   4  22
BRANCH   5  27
ATOM     27  O   UNL     1       5.968  22.839  30.142  0.00  0.00    +0.000 OA
BRANCH  27  33
ATOM     28  O   UNL     1       4.260  22.731  31.780  0.00  0.00    +0.000 OA
ATOM     29  C   UNL     1       4.093  25.178  30.264  0.00  0.00    +0.000 C 
ATOM     30  C   UNL     1       2.839  24.417  30.712  0.00  0.00    +0.000 C 
ATOM     31  C   UNL     1       5.269  24.904  31.201  0.00  0.00    +0.000 C 
ATOM     32  C   UNL     1       3.167  22.928  30.873  0.00  0.00    +0.000 C 
ATOM     33  C   UNL     1       5.471  23.384  31.371  0.00  0.00    +0.000 C 
ATOM     34  C   UNL     1       1.974  22.149  31.419  0.00  0.00    +0.000 C 
BRANCH  29  35
ATOM     35  O   UNL     1       3.787  26.585  30.250  0.00  0.00    +0.000 OA
ATOM     36  H   UNL     1       3.046  26.687  30.883  0.00  0.00    +0.000 HD
ENDBRANCH  29  35
BRANCH  30  37
ATOM     37  O   UNL     1       1.805  24.618  29.741  0.00  0.00    +0.000 OA
ATOM     38  H   UNL     1       0.987  24.751  30.261  0.00  0.00    +0.000 HD
ENDBRANCH  30  37
BRANCH  31  39
ATOM     39  O   UNL     1       4.988  25.562  32.454  0.00  0.00    +0.000 OA
ATOM     40  H   UNL     1       4.410  26.322  32.257  0.00  0.00    +0.000 HD
ENDBRANCH  31  39
ENDBRANCH  27  33
ENDBRANCH   5  27
BRANCH   3  41
ATOM     41  O   UNL     1      11.865  17.961  31.654  0.00  0.00    +0.000 OA
BRANCH  41  47
ATOM     42  O   UNL     1      11.756  15.603  31.485  0.00  0.00    +0.000 OA
ATOM     43  C   UNL     1      13.671  15.619  29.365  0.00  0.00    +0.000 C 
ATOM     44  C   UNL     1      13.299  14.331  30.106  0.00  0.00    +0.000 C 
ATOM     45  C   UNL     1      13.429  16.845  30.243  0.00  0.00    +0.000 C 
ATOM     46  C   UNL     1      11.864  14.445  30.640  0.00  0.00    +0.000 C 
ATOM     47  C   UNL     1      11.985  16.821  30.778  0.00  0.00    +0.000 C 
BRANCH  44  48
ATOM     48  O   UNL     1      13.438  13.223  29.214  0.00  0.00    +0.000 OA
ATOM     49  H   UNL     1      14.291  13.370  28.755  0.00  0.00    +0.000 HD
ENDBRANCH  44  48
BRANCH  45  50
ATOM     50  O   UNL     1      13.698  18.023  29.465  0.00  0.00    +0.000 OA
ATOM     51  H   UNL     1      14.639  17.965  29.207  0.00  0.00    +0.000 HD
ENDBRANCH  45  50
BRANCH  43  52
ATOM     52  O   UNL     1      15.051  15.550  28.973  0.00  0.00    +0.000 OA
ATOM     53  H   UNL     1      15.278  16.455  28.679  0.00  0.00    +0.000 HD
ENDBRANCH  43  52
BRANCH  46  54
ATOM     54  C   UNL     1      11.479  13.207  31.461  0.00  0.00    +0.000 C 
BRANCH  54  55
ATOM     55  O   UNL     1      11.316  13.570  32.834  0.00  0.00    +0.000 OA
ATOM     56  H   UNL     1      10.634  14.262  32.863  0.00  0.00    +0.000 HD
ENDBRANCH  54  55
ENDBRANCH  46  54
ENDBRANCH  41  47
ENDBRANCH   3  41
TORSDOF 17
ENDMDL
MODEL 3
REMARK VINA RESULT:      -6.5      3.847      6.006
REMARK  Name = 
REMARK  21 active torsions:
REMARK  status: ('A' for Active; 'I' for Inactive)
REMARK    1  A    between atoms: O_3  and  C_22
REMARK    2  A    between atoms: O_3  and  C_28
REMARK    3  A    between atoms: O_4  and  C_25
REMARK    4  A    between atoms: O_4  and  C_30
REMARK    5  A    between atoms: O_5  and  C_16
REMARK    6  A    between atoms: O_6  and  C_17
REMARK    7  A    between atoms: O_7  and  C_18
REMARK    8  A    between atoms: O_8  and  C_20
REMARK    9  A    between atoms: O_9  and  C_21
REMARK   10  A    between atoms: O_10  and  C_23
REMARK   11  A    between atoms: O_11  and  C_26
REMARK   12  A    between atoms: O_13  and  C_36
REMARK   13  A    between atoms: O_15  and  C_45
REMARK   14  A    between atoms: O_15  and  C_48
REMARK   15  A    between atoms: C_19  and  C_26
REMARK   16  A    between atoms: C_24  and  C_27
REMARK   17  A    between atoms: C_29  and  C_37
REMARK   18  A    between atoms: C_35  and  C_38
REMARK   19  A    between atoms: C_37  and  C_39
REMARK   20  A    between atoms: C_42  and  C_46
REMARK   21  A    between atoms: C_42  and  C_47
REMARK                            x       y       z     vdW  Elec       q    Type
REMARK                         _______ _______ _______ _____ _____    ______ ____
ROOT
ATOM      1  O   UNL     1       7.242  17.039  31.369  0.00  0.00    +0.000 OA
ATOM      2  O   UNL     1      10.500  18.878  29.792  0.00  0.00    +0.000 OA
ATOM      3  C   UNL     1       6.231  20.526  31.827  0.00  0.00    +0.000 A 
ATOM      4  C   UNL     1       6.194  19.120  31.854  0.00  0.00    +0.000 A 
ATOM      5  C   UNL     1       9.432  16.833  30.366  0.00  0.00    +0.000 A 
ATOM      6  C   UNL     1       7.297  18.412  31.334  0.00  0.00    +0.000 A 
ATOM      7  C   UNL     1       8.391  19.092  30.800  0.00  0.00    +0.000 A 
ATOM      8  C   UNL     1       9.523  18.313  30.281  0.00  0.00    +0.000 A 
ATOM      9  C   UNL     1       7.310  21.205  31.253  0.00  0.00    +0.000 A 
ATOM     10  C   UNL     1       8.327  16.308  30.925  0.00  0.00    +0.000 A 
ATOM     11  C   UNL     1       8.392  20.488  30.755  0.00  0.00    +0.000 A 
ENDROOT
BRANCH  10  12
ATOM     12  C   UNL     1       8.141  14.857  31.081  0.00  0.00    +0.000 A 
ATOM     13  C   UNL     1       8.372  14.253  32.322  0.00  0.00    +0.000 A 
ATOM     14  C   UNL     1       7.747  14.056  30.001  0.00  0.00    +0.000 A 
ATOM     15  C   UNL     1       8.194  12.877  32.479  0.00  0.00    +0.000 A 
ATOM     16  C   UNL     1       7.567  12.678  30.163  0.00  0.00    +0.000 A 
ATOM     17  C   UNL     1       7.784  12.083  31.406  0.00  0.00    +0.000 A 
BRANCH  17  18
ATOM     18  O   UNL     1       7.642  10.755  31.698  0.00  0.00    +0.000 OA
ATOM     19  C   UNL     1       6.961  10.433  32.904  0.00  0.00    +0.000 C 
ENDBRANCH  17  18
ENDBRANCH  10  12
BRANCH  11  20
ATOM     20  O   UNL     1       9.419  21.222  30.228  0.00  0.00    +0.000 OA
ATOM     21  H   UNL     1       9.280  21.296  29.257  0.00  0.00    +0.000 HD
ENDBRANCH  11  20
BRANCH   4  22
ATOM     22  C   UNL     1       5.022  18.372  32.459  0.00  0.00    +0.000 C 
BRANCH  22  23
ATOM     23  C   UNL     1       4.064  17.864  31.413  0.00  0.00    +0.000 C 
ATOM     24  C   UNL     1       3.796  16.590  31.063  0.00  0.00    +0.000 C 
ATOM     25  C   UNL     1       4.421  15.365  31.671  0.00  0.00    +0.000 C 
ATOM     26  C   UNL     1       2.791  16.294  29.980  0.00  0.00    +0.000 C 
ENDBRANCH  22  23
ENDBRANCH   4  22
BRANCH   5  27
ATOM     27  O   UNL     1      10.502  16.063  29.947  0.00  0.00    +0.000 OA
BRANCH  27  33
ATOM     28  O   UNL     1      12.350  16.495  31.365  0.00  0.00    +0.000 OA
ATOM     29  C   UNL     1      12.899  14.297  29.582  0.00  0.00    +0.000 C 
ATOM     30  C   UNL     1      13.975  15.325  29.953  0.00  0.00    +0.000 C 
ATOM     31  C   UNL     1      11.843  14.182  30.681  0.00  0.00    +0.000 C 
ATOM     32  C   UNL     1      13.312  16.660  30.314  0.00  0.00    +0.000 C 
ATOM     33  C   UNL     1      11.294  15.580  31.039  0.00  0.00    +0.000 C 
ATOM     34  C   UNL     1      14.339  17.682  30.792  0.00  0.00    +0.000 C 
BRANCH  29  35
ATOM     35  O   UNL     1      13.542  13.024  29.377  0.00  0.00    +0.000 OA
ATOM     36  H   UNL     1      13.852  13.046  28.448  0.00  0.00    +0.000 HD
ENDBRANCH  29  35
BRANCH  30  37
ATOM     37  O   UNL     1      14.872  15.475  28.846  0.00  0.00    +0.000 OA
ATOM     38  H   UNL     1      15.544  14.773  28.964  0.00  0.00    +0.000 HD
ENDBRANCH  30  37
BRANCH  31  39
ATOM     39  O   UNL     1      12.460  13.531  31.811  0.00  0.00    +0.000 OA
ATOM     40  H   UNL     1      12.178  12.598  31.795  0.00  0.00    +0.000 HD
ENDBRANCH  31  39
ENDBRANCH  27  33
ENDBRANCH   5  27
BRANCH   3  41
ATOM     41  O   UNL     1       5.145  21.233  32.278  0.00  0.00    +0.000 OA
BRANCH  41  47
ATOM     42  O   UNL     1       4.956  23.166  30.926  0.00  0.00    +0.000 OA
ATOM     43  C   UNL     1       2.142  22.760  30.654  0.00  0.00    +0.000 C 
ATOM     44  C   UNL     1       2.805  24.088  30.277  0.00  0.00    +0.000 C 
ATOM     45  C   UNL     1       2.967  22.013  31.699  0.00  0.00    +0.000 C 
ATOM     46  C   UNL     1       4.260  23.833  29.859  0.00  0.00    +0.000 C 
ATOM     47  C   UNL     1       4.420  21.873  31.207  0.00  0.00    +0.000 C 
BRANCH  44  48
ATOM     48  O   UNL     1       2.058  24.700  29.224  0.00  0.00    +0.000 OA
ATOM     49  H   UNL     1       2.207  24.131  28.440  0.00  0.00    +0.000 HD
ENDBRANCH  44  48
BRANCH  45  50
ATOM     50  O   UNL     1       2.353  20.736  31.937  0.00  0.00    +0.000 OA
ATOM     51  H   UNL     1       2.872  20.089  31.418  0.00  0.00    +0.000 HD
ENDBRANCH  45  50
BRANCH  43  52
ATOM     52  O   UNL     1       0.822  23.024  31.156  0.00  0.00    +0.000 OA
ATOM     53  H   UNL     1       0.376  23.530  30.447  0.00  0.00    +0.000 HD
ENDBRANCH  43  52
BRANCH  46  54
ATOM     54  C   UNL     1       4.987  25.149  29.552  0.00  0.00    +0.000 C 
BRANCH  54  55
ATOM     55  O   UNL     1       4.246  26.247  30.090  0.00  0.00    +0.000 OA
ATOM     56  H   UNL     1       3.978  26.802  29.338  0.00  0.00    +0.000 HD
ENDBRANCH  54  55
ENDBRANCH  46  54
ENDBRANCH  41  47
ENDBRANCH   3  41
TORSDOF 17
ENDMDL
MODEL 4
REMARK VINA RESULT:      -6.5      3.671      5.096
REMARK  Name = 
REMARK  21 active torsions:
REMARK  status: ('A' for Active; 'I' for Inactive)
REMARK    1  A    between atoms: O_3  and  C_22
REMARK    2  A    between atoms: O_3  and  C_28
REMARK    3  A    between atoms: O_4  and  C_25
REMARK    4  A    between atoms: O_4  and  C_30
REMARK    5  A    between atoms: O_5  and  C_16
REMARK    6  A    between atoms: O_6  and  C_17
REMARK    7  A    between atoms: O_7  and  C_18
REMARK    8  A    between atoms: O_8  and  C_20
REMARK    9  A    between atoms: O_9  and  C_21
REMARK   10  A    between atoms: O_10  and  C_23
REMARK   11  A    between atoms: O_11  and  C_26
REMARK   12  A    between atoms: O_13  and  C_36
REMARK   13  A    between atoms: O_15  and  C_45
REMARK   14  A    between atoms: O_15  and  C_48
REMARK   15  A    between atoms: C_19  and  C_26
REMARK   16  A    between atoms: C_24  and  C_27
REMARK   17  A    between atoms: C_29  and  C_37
REMARK   18  A    between atoms: C_35  and  C_38
REMARK   19  A    between atoms: C_37  and  C_39
REMARK   20  A    between atoms: C_42  and  C_46
REMARK   21  A    between atoms: C_42  and  C_47
REMARK                            x       y       z     vdW  Elec       q    Type
REMARK                         _______ _______ _______ _____ _____    ______ ____
ROOT
ATOM      1  O   UNL     1       6.911  17.397  31.363  0.00  0.00    +0.000 OA
ATOM      2  O   UNL     1      10.623  18.504  30.147  0.00  0.00    +0.000 OA
ATOM      3  C   UNL     1       6.571  21.028  31.662  0.00  0.00    +0.000 A 
ATOM      4  C   UNL     1       6.251  19.658  31.701  0.00  0.00    +0.000 A 
ATOM      5  C   UNL     1       9.112  16.730  30.618  0.00  0.00    +0.000 A 
ATOM      6  C   UNL     1       7.241  18.730  31.319  0.00  0.00    +0.000 A 
ATOM      7  C   UNL     1       8.501  19.163  30.905  0.00  0.00    +0.000 A 
ATOM      8  C   UNL     1       9.505  18.159  30.527  0.00  0.00    +0.000 A 
ATOM      9  C   UNL     1       7.820  21.462  31.208  0.00  0.00    +0.000 A 
ATOM     10  C   UNL     1       7.870  16.452  31.054  0.00  0.00    +0.000 A 
ATOM     11  C   UNL     1       8.785  20.529  30.845  0.00  0.00    +0.000 A 
ENDROOT
BRANCH  10  12
ATOM     12  C   UNL     1       7.383  15.072  31.204  0.00  0.00    +0.000 A 
ATOM     13  C   UNL     1       7.303  14.495  32.476  0.00  0.00    +0.000 A 
ATOM     14  C   UNL     1       7.005  14.311  30.091  0.00  0.00    +0.000 A 
ATOM     15  C   UNL     1       6.837  13.186  32.628  0.00  0.00    +0.000 A 
ATOM     16  C   UNL     1       6.536  13.001  30.246  0.00  0.00    +0.000 A 
ATOM     17  C   UNL     1       6.445  12.435  31.517  0.00  0.00    +0.000 A 
BRANCH  17  18
ATOM     18  O   UNL     1       6.004  11.174  31.807  0.00  0.00    +0.000 OA
ATOM     19  C   UNL     1       5.104  11.045  32.900  0.00  0.00    +0.000 C 
ENDBRANCH  17  18
ENDBRANCH  10  12
BRANCH  11  20
ATOM     20  O   UNL     1       9.989  21.029  30.429  0.00  0.00    +0.000 OA
ATOM     21  H   UNL     1       9.974  21.095  29.448  0.00  0.00    +0.000 HD
ENDBRANCH  11  20
BRANCH   4  22
ATOM     22  C   UNL     1       4.895  19.176  32.178  0.00  0.00    +0.000 C 
BRANCH  22  23
ATOM     23  C   UNL     1       3.905  19.043  31.050  0.00  0.00    +0.000 C 
ATOM     24  C   UNL     1       3.407  17.921  30.493  0.00  0.00    +0.000 C 
ATOM     25  C   UNL     1       3.746  16.515  30.904  0.00  0.00    +0.000 C 
ATOM     26  C   UNL     1       2.414  18.009  29.363  0.00  0.00    +0.000 C 
ENDBRANCH  22  23
ENDBRANCH   4  22
BRANCH   5  27
ATOM     27  O   UNL     1      10.046  15.751  30.333  0.00  0.00    +0.000 OA
BRANCH  27  33
ATOM     28  O   UNL     1      12.217  15.981  31.254  0.00  0.00    +0.000 OA
ATOM     29  C   UNL     1      11.675  13.240  30.542  0.00  0.00    +0.000 C 
ATOM     30  C   UNL     1      13.058  13.870  30.337  0.00  0.00    +0.000 C 
ATOM     31  C   UNL     1      10.916  13.930  31.675  0.00  0.00    +0.000 C 
ATOM     32  C   UNL     1      12.914  15.386  30.151  0.00  0.00    +0.000 C 
ATOM     33  C   UNL     1      10.895  15.456  31.449  0.00  0.00    +0.000 C 
ATOM     34  C   UNL     1      14.274  16.068  30.049  0.00  0.00    +0.000 C 
BRANCH  29  35
ATOM     35  O   UNL     1      11.854  11.843  30.844  0.00  0.00    +0.000 OA
ATOM     36  H   UNL     1      11.049  11.589  31.343  0.00  0.00    +0.000 HD
ENDBRANCH  29  35
BRANCH  30  37
ATOM     37  O   UNL     1      13.677  13.264  29.196  0.00  0.00    +0.000 OA
ATOM     38  H   UNL     1      14.125  12.466  29.541  0.00  0.00    +0.000 HD
ENDBRANCH  30  37
BRANCH  31  39
ATOM     39  O   UNL     1      11.563  13.569  32.914  0.00  0.00    +0.000 OA
ATOM     40  H   UNL     1      12.498  13.836  32.838  0.00  0.00    +0.000 HD
ENDBRANCH  31  39
ENDBRANCH  27  33
ENDBRANCH   5  27
BRANCH   3  41
ATOM     41  O   UNL     1       5.605  21.949  31.979  0.00  0.00    +0.000 OA
BRANCH  41  47
ATOM     42  O   UNL     1       6.212  24.031  32.926  0.00  0.00    +0.000 OA
ATOM     43  C   UNL     1       5.224  25.418  30.633  0.00  0.00    +0.000 C 
ATOM     44  C   UNL     1       5.540  26.148  31.941  0.00  0.00    +0.000 C 
ATOM     45  C   UNL     1       4.895  23.949  30.891  0.00  0.00    +0.000 C 
ATOM     46  C   UNL     1       6.637  25.386  32.699  0.00  0.00    +0.000 C 
ATOM     47  C   UNL     1       6.027  23.304  31.712  0.00  0.00    +0.000 C 
BRANCH  44  48
ATOM     48  O   UNL     1       5.944  27.486  31.644  0.00  0.00    +0.000 OA
ATOM     49  H   UNL     1       6.538  27.408  30.869  0.00  0.00    +0.000 HD
ENDBRANCH  44  48
BRANCH  45  50
ATOM     50  O   UNL     1       4.708  23.295  29.625  0.00  0.00    +0.000 OA
ATOM     51  H   UNL     1       3.758  23.390  29.412  0.00  0.00    +0.000 HD
ENDBRANCH  45  50
BRANCH  43  52
ATOM     52  O   UNL     1       4.116  26.071  29.991  0.00  0.00    +0.000 OA
ATOM     53  H   UNL     1       4.392  27.005  29.895  0.00  0.00    +0.000 HD
ENDBRANCH  43  52
BRANCH  46  54
ATOM     54  C   UNL     1       6.927  26.039  34.057  0.00  0.00    +0.000 C 
BRANCH  54  55
ATOM     55  O   UNL     1       5.782  26.774  34.494  0.00  0.00    +0.000 OA
ATOM     56  H   UNL     1       5.268  26.995  33.699  0.00  0.00    +0.000 HD
ENDBRANCH  54  55
ENDBRANCH  46  54
ENDBRANCH  41  47
ENDBRANCH   3  41
TORSDOF 17
ENDMDL
MODEL 5
REMARK VINA RESULT:      -6.4     25.162     27.043
REMARK  Name = 
REMARK  21 active torsions:
REMARK  status: ('A' for Active; 'I' for Inactive)
REMARK    1  A    between atoms: O_3  and  C_22
REMARK    2  A    between atoms: O_3  and  C_28
REMARK    3  A    between atoms: O_4  and  C_25
REMARK    4  A    between atoms: O_4  and  C_30
REMARK    5  A    between atoms: O_5  and  C_16
REMARK    6  A    between atoms: O_6  and  C_17
REMARK    7  A    between atoms: O_7  and  C_18
REMARK    8  A    between atoms: O_8  and  C_20
REMARK    9  A    between atoms: O_9  and  C_21
REMARK   10  A    between atoms: O_10  and  C_23
REMARK   11  A    between atoms: O_11  and  C_26
REMARK   12  A    between atoms: O_13  and  C_36
REMARK   13  A    between atoms: O_15  and  C_45
REMARK   14  A    between atoms: O_15  and  C_48
REMARK   15  A    between atoms: C_19  and  C_26
REMARK   16  A    between atoms: C_24  and  C_27
REMARK   17  A    between atoms: C_29  and  C_37
REMARK   18  A    between atoms: C_35  and  C_38
REMARK   19  A    between atoms: C_37  and  C_39
REMARK   20  A    between atoms: C_42  and  C_46
REMARK   21  A    between atoms: C_42  and  C_47
REMARK                            x       y       z     vdW  Elec       q    Type
REMARK                         _______ _______ _______ _____ _____    ______ ____
ROOT
ATOM      1  O   UNL     1       2.360  15.475   5.735  0.00  0.00    +0.000 OA
ATOM      2  O   UNL     1       4.273  12.075   6.860  0.00  0.00    +0.000 OA
ATOM      3  C   UNL     1       4.362  14.902   2.727  0.00  0.00    +0.000 A 
ATOM      4  C   UNL     1       3.453  15.495   3.621  0.00  0.00    +0.000 A 
ATOM      5  C   UNL     1       2.748  13.806   7.439  0.00  0.00    +0.000 A 
ATOM      6  C   UNL     1       3.252  14.881   4.874  0.00  0.00    +0.000 A 
ATOM      7  C   UNL     1       3.932  13.711   5.212  0.00  0.00    +0.000 A 
ATOM      8  C   UNL     1       3.699  13.113   6.533  0.00  0.00    +0.000 A 
ATOM      9  C   UNL     1       5.012  13.707   3.049  0.00  0.00    +0.000 A 
ATOM     10  C   UNL     1       2.177  14.940   6.996  0.00  0.00    +0.000 A 
ATOM     11  C   UNL     1       4.806  13.123   4.294  0.00  0.00    +0.000 A 
ENDROOT
BRANCH  10  12
ATOM     12  C   UNL     1       1.239  15.718   7.818  0.00  0.00    +0.000 A 
ATOM     13  C   UNL     1       1.722  16.525   8.854  0.00  0.00    +0.000 A 
ATOM     14  C   UNL     1      -0.142  15.661   7.593  0.00  0.00    +0.000 A 
ATOM     15  C   UNL     1       0.838  17.272   9.636  0.00  0.00    +0.000 A 
ATOM     16  C   UNL     1      -1.026  16.412   8.377  0.00  0.00    +0.000 A 
ATOM     17  C   UNL     1      -0.537  17.226   9.400  0.00  0.00    +0.000 A 
BRANCH  17  18
ATOM     18  O   UNL     1      -1.287  18.008  10.233  0.00  0.00    +0.000 OA
ATOM     19  C   UNL     1      -2.461  17.421  10.780  0.00  0.00    +0.000 C 
ENDBRANCH  17  18
ENDBRANCH  10  12
BRANCH  11  20
ATOM     20  O   UNL     1       5.491  11.965   4.545  0.00  0.00    +0.000 OA
ATOM     21  H   UNL     1       6.030  11.747   3.753  0.00  0.00    +0.000 HD
ENDBRANCH  11  20
BRANCH   4  22
ATOM     22  C   UNL     1       2.731  16.784   3.277  0.00  0.00    +0.000 C 
BRANCH  22  23
ATOM     23  C   UNL     1       1.466  16.541   2.495  0.00  0.00    +0.000 C 
ATOM     24  C   UNL     1       1.162  16.932   1.242  0.00  0.00    +0.000 C 
ATOM     25  C   UNL     1       2.060  17.718   0.327  0.00  0.00    +0.000 C 
ATOM     26  C   UNL     1      -0.173  16.580   0.639  0.00  0.00    +0.000 C 
ENDBRANCH  22  23
ENDBRANCH   4  22
BRANCH   5  27
ATOM     27  O   UNL     1       2.548  13.312   8.716  0.00  0.00    +0.000 OA
BRANCH  27  33
ATOM     28  O   UNL     1       0.376  12.434   9.065  0.00  0.00    +0.000 OA
ATOM     29  C   UNL     1       2.183  11.599  11.152  0.00  0.00    +0.000 C 
ATOM     30  C   UNL     1       0.722  11.961  11.445  0.00  0.00    +0.000 C 
ATOM     31  C   UNL     1       2.353  11.112   9.713  0.00  0.00    +0.000 C 
ATOM     32  C   UNL     1       0.213  12.954  10.392  0.00  0.00    +0.000 C 
ATOM     33  C   UNL     1       1.738  12.130   8.730  0.00  0.00    +0.000 C 
ATOM     34  C   UNL     1      -1.269  13.261  10.583  0.00  0.00    +0.000 C 
BRANCH  29  35
ATOM     35  O   UNL     1       2.588  10.570  12.074  0.00  0.00    +0.000 OA
ATOM     36  H   UNL     1       2.948  11.054  12.847  0.00  0.00    +0.000 HD
ENDBRANCH  29  35
BRANCH  30  37
ATOM     37  O   UNL     1       0.639  12.516  12.763  0.00  0.00    +0.000 OA
ATOM     38  H   UNL     1      -0.317  12.531  12.975  0.00  0.00    +0.000 HD
ENDBRANCH  30  37
BRANCH  31  39
ATOM     39  O   UNL     1       1.729   9.814   9.617  0.00  0.00    +0.000 OA
ATOM     40  H   UNL     1       0.793   9.961   9.386  0.00  0.00    +0.000 HD
ENDBRANCH  31  39
ENDBRANCH  27  33
ENDBRANCH   5  27
BRANCH   3  41
ATOM     41  O   UNL     1       4.533  15.453   1.482  0.00  0.00    +0.000 OA
BRANCH  41  47
ATOM     42  O   UNL     1       5.698  17.510   1.375  0.00  0.00    +0.000 OA
ATOM     43  C   UNL     1       7.679  16.354  -0.328  0.00  0.00    +0.000 C 
ATOM     44  C   UNL     1       7.552  17.870  -0.153  0.00  0.00    +0.000 C 
ATOM     45  C   UNL     1       6.349  15.657  -0.049  0.00  0.00    +0.000 C 
ATOM     46  C   UNL     1       6.964  18.178   1.232  0.00  0.00    +0.000 C 
ATOM     47  C   UNL     1       5.819  16.089   1.331  0.00  0.00    +0.000 C 
BRANCH  44  48
ATOM     48  O   UNL     1       8.839  18.469  -0.318  0.00  0.00    +0.000 OA
ATOM     49  H   UNL     1       9.478  17.789  -0.019  0.00  0.00    +0.000 HD
ENDBRANCH  44  48
BRANCH  45  50
ATOM     50  O   UNL     1       6.554  14.237  -0.129  0.00  0.00    +0.000 OA
ATOM     51  H   UNL     1       6.778  13.948   0.778  0.00  0.00    +0.000 HD
ENDBRANCH  45  50
BRANCH  43  52
ATOM     52  O   UNL     1       8.118  16.075  -1.667  0.00  0.00    +0.000 OA
ATOM     53  H   UNL     1       8.603  15.227  -1.605  0.00  0.00    +0.000 HD
ENDBRANCH  43  52
BRANCH  46  54
ATOM     54  C   UNL     1       6.742  19.684   1.417  0.00  0.00    +0.000 C 
BRANCH  54  55
ATOM     55  O   UNL     1       7.959  20.304   1.840  0.00  0.00    +0.000 OA
ATOM     56  H   UNL     1       7.890  20.434   2.801  0.00  0.00    +0.000 HD
ENDBRANCH  54  55
ENDBRANCH  46  54
ENDBRANCH  41  47
ENDBRANCH   3  41
TORSDOF 17
ENDMDL
MODEL 6
REMARK VINA RESULT:      -6.1     15.558     19.255
REMARK  Name = 
REMARK  21 active torsions:
REMARK  status: ('A' for Active; 'I' for Inactive)
REMARK    1  A    between atoms: O_3  and  C_22
REMARK    2  A    between atoms: O_3  and  C_28
REMARK    3  A    between atoms: O_4  and  C_25
REMARK    4  A    between atoms: O_4  and  C_30
REMARK    5  A    between atoms: O_5  and  C_16
REMARK    6  A    between atoms: O_6  and  C_17
REMARK    7  A    between atoms: O_7  and  C_18
REMARK    8  A    between atoms: O_8  and  C_20
REMARK    9  A    between atoms: O_9  and  C_21
REMARK   10  A    between atoms: O_10  and  C_23
REMARK   11  A    between atoms: O_11  and  C_26
REMARK   12  A    between atoms: O_13  and  C_36
REMARK   13  A    between atoms: O_15  and  C_45
REMARK   14  A    between atoms: O_15  and  C_48
REMARK   15  A    between atoms: C_19  and  C_26
REMARK   16  A    between atoms: C_24  and  C_27
REMARK   17  A    between atoms: C_29  and  C_37
REMARK   18  A    between atoms: C_35  and  C_38
REMARK   19  A    between atoms: C_37  and  C_39
REMARK   20  A    between atoms: C_42  and  C_46
REMARK   21  A    between atoms: C_42  and  C_47
REMARK                            x       y       z     vdW  Elec       q    Type
REMARK                         _______ _______ _______ _____ _____    ______ ____
ROOT
ATOM      1  O   UNL     1      -2.988  15.699  20.145  0.00  0.00    +0.000 OA
ATOM      2  O   UNL     1       0.090  13.577  21.727  0.00  0.00    +0.000 OA
ATOM      3  C   UNL     1      -3.170  12.725  18.022  0.00  0.00    +0.000 A 
ATOM      4  C   UNL     1      -3.469  13.989  18.562  0.00  0.00    +0.000 A 
ATOM      5  C   UNL     1      -1.183  15.584  21.749  0.00  0.00    +0.000 A 
ATOM      6  C   UNL     1      -2.680  14.463  19.629  0.00  0.00    +0.000 A 
ATOM      7  C   UNL     1      -1.635  13.693  20.140  0.00  0.00    +0.000 A 
ATOM      8  C   UNL     1      -0.832  14.233  21.245  0.00  0.00    +0.000 A 
ATOM      9  C   UNL     1      -2.149  11.936  18.561  0.00  0.00    +0.000 A 
ATOM     10  C   UNL     1      -2.202  16.227  21.151  0.00  0.00    +0.000 A 
ATOM     11  C   UNL     1      -1.376  12.427  19.607  0.00  0.00    +0.000 A 
ENDROOT
BRANCH  10  12
ATOM     12  C   UNL     1      -2.621  17.578  21.555  0.00  0.00    +0.000 A 
ATOM     13  C   UNL     1      -1.749  18.659  21.385  0.00  0.00    +0.000 A 
ATOM     14  C   UNL     1      -3.881  17.808  22.122  0.00  0.00    +0.000 A 
ATOM     15  C   UNL     1      -2.140  19.946  21.762  0.00  0.00    +0.000 A 
ATOM     16  C   UNL     1      -4.272  19.099  22.496  0.00  0.00    +0.000 A 
ATOM     17  C   UNL     1      -3.403  20.176  22.311  0.00  0.00    +0.000 A 
BRANCH  17  18
ATOM     18  O   UNL     1      -3.661  21.480  22.629  0.00  0.00    +0.000 OA
ATOM     19  C   UNL     1      -3.619  22.420  21.563  0.00  0.00    +0.000 C 
ENDBRANCH  17  18
ENDBRANCH  10  12
BRANCH  11  20
ATOM     20  O   UNL     1      -0.384  11.606  20.070  0.00  0.00    +0.000 OA
ATOM     21  H   UNL     1       0.192  12.127  20.673  0.00  0.00    +0.000 HD
ENDBRANCH  11  20
BRANCH   4  22
ATOM     22  C   UNL     1      -4.584  14.847  17.995  0.00  0.00    +0.000 C 
BRANCH  22  23
ATOM     23  C   UNL     1      -4.068  15.923  17.076  0.00  0.00    +0.000 C 
ATOM     24  C   UNL     1      -4.158  17.261  17.210  0.00  0.00    +0.000 C 
ATOM     25  C   UNL     1      -4.813  17.984  18.354  0.00  0.00    +0.000 C 
ATOM     26  C   UNL     1      -3.567  18.172  16.166  0.00  0.00    +0.000 C 
ENDBRANCH  22  23
ENDBRANCH   4  22
BRANCH   5  27
ATOM     27  O   UNL     1      -0.413  16.157  22.745  0.00  0.00    +0.000 OA
BRANCH  27  33
ATOM     28  O   UNL     1      -1.722  16.483  24.693  0.00  0.00    +0.000 OA
ATOM     29  C   UNL     1       1.072  16.954  25.227  0.00  0.00    +0.000 C 
ATOM     30  C   UNL     1      -0.028  17.813  25.863  0.00  0.00    +0.000 C 
ATOM     31  C   UNL     1       0.554  15.557  24.885  0.00  0.00    +0.000 C 
ATOM     32  C   UNL     1      -1.268  17.817  24.960  0.00  0.00    +0.000 C 
ATOM     33  C   UNL     1      -0.739  15.659  24.049  0.00  0.00    +0.000 C 
ATOM     34  C   UNL     1      -2.426  18.573  25.604  0.00  0.00    +0.000 C 
BRANCH  29  35
ATOM     35  O   UNL     1       2.168  16.863  26.157  0.00  0.00    +0.000 OA
ATOM     36  H   UNL     1       2.957  17.136  25.643  0.00  0.00    +0.000 HD
ENDBRANCH  29  35
BRANCH  30  37
ATOM     37  O   UNL     1       0.475  19.139  26.058  0.00  0.00    +0.000 OA
ATOM     38  H   UNL     1       1.402  19.021  26.349  0.00  0.00    +0.000 HD
ENDBRANCH  30  37
BRANCH  31  39
ATOM     39  O   UNL     1       0.348  14.854  26.128  0.00  0.00    +0.000 OA
ATOM     40  H   UNL     1      -0.147  15.452  26.718  0.00  0.00    +0.000 HD
ENDBRANCH  31  39
ENDBRANCH  27  33
ENDBRANCH   5  27
BRANCH   3  41
ATOM     41  O   UNL     1      -3.959  12.222  17.019  0.00  0.00    +0.000 OA
BRANCH  41  47
ATOM     42  O   UNL     1      -2.762  12.049  14.985  0.00  0.00    +0.000 OA
ATOM     43  C   UNL     1      -3.565   9.325  14.686  0.00  0.00    +0.000 C 
ATOM     44  C   UNL     1      -2.959  10.118  13.525  0.00  0.00    +0.000 C 
ATOM     45  C   UNL     1      -4.232  10.256  15.697  0.00  0.00    +0.000 C 
ATOM     46  C   UNL     1      -2.028  11.205  14.080  0.00  0.00    +0.000 C 
ATOM     47  C   UNL     1      -3.233  11.344  16.133  0.00  0.00    +0.000 C 
BRANCH  44  48
ATOM     48  O   UNL     1      -2.257   9.220  12.663  0.00  0.00    +0.000 OA
ATOM     49  H   UNL     1      -1.954   8.492  13.244  0.00  0.00    +0.000 HD
ENDBRANCH  44  48
BRANCH  45  50
ATOM     50  O   UNL     1      -4.691   9.469  16.808  0.00  0.00    +0.000 OA
ATOM     51  H   UNL     1      -3.895   9.038  17.177  0.00  0.00    +0.000 HD
ENDBRANCH  45  50
BRANCH  43  52
ATOM     52  O   UNL     1      -4.523   8.391  14.162  0.00  0.00    +0.000 OA
ATOM     53  H   UNL     1      -4.892   7.937  14.947  0.00  0.00    +0.000 HD
ENDBRANCH  43  52
BRANCH  46  54
ATOM     54  C   UNL     1      -1.462  12.078  12.953  0.00  0.00    +0.000 C 
BRANCH  54  55
ATOM     55  O   UNL     1      -0.050  12.227  13.120  0.00  0.00    +0.000 OA
ATOM     56  H   UNL     1       0.258  11.455  13.623  0.00  0.00    +0.000 HD
ENDBRANCH  54  55
ENDBRANCH  46  54
ENDBRANCH  41  47
ENDBRANCH   3  41
TORSDOF 17
ENDMDL
MODEL 7
REMARK VINA RESULT:      -6.1      1.358      2.040
REMARK  Name = 
REMARK  21 active torsions:
REMARK  status: ('A' for Active; 'I' for Inactive)
REMARK    1  A    between atoms: O_3  and  C_22
REMARK    2  A    between atoms: O_3  and  C_28
REMARK    3  A    between atoms: O_4  and  C_25
REMARK    4  A    between atoms: O_4  and  C_30
REMARK    5  A    between atoms: O_5  and  C_16
REMARK    6  A    between atoms: O_6  and  C_17
REMARK    7  A    between atoms: O_7  and  C_18
REMARK    8  A    between atoms: O_8  and  C_20
REMARK    9  A    between atoms: O_9  and  C_21
REMARK   10  A    between atoms: O_10  and  C_23
REMARK   11  A    between atoms: O_11  and  C_26
REMARK   12  A    between atoms: O_13  and  C_36
REMARK   13  A    between atoms: O_15  and  C_45
REMARK   14  A    between atoms: O_15  and  C_48
REMARK   15  A    between atoms: C_19  and  C_26
REMARK   16  A    between atoms: C_24  and  C_27
REMARK   17  A    between atoms: C_29  and  C_37
REMARK   18  A    between atoms: C_35  and  C_38
REMARK   19  A    between atoms: C_37  and  C_39
REMARK   20  A    between atoms: C_42  and  C_46
REMARK   21  A    between atoms: C_42  and  C_47
REMARK                            x       y       z     vdW  Elec       q    Type
REMARK                         _______ _______ _______ _____ _____    ______ ____
ROOT
ATOM      1  O   UNL     1       9.582  20.775  31.647  0.00  0.00    +0.000 OA
ATOM      2  O   UNL     1      13.181  19.810  30.035  0.00  0.00    +0.000 OA
ATOM      3  C   UNL     1      10.778  24.133  30.820  0.00  0.00    +0.000 A 
ATOM      4  C   UNL     1       9.947  23.099  31.290  0.00  0.00    +0.000 A 
ATOM      5  C   UNL     1      11.182  19.055  31.077  0.00  0.00    +0.000 A 
ATOM      6  C   UNL     1      10.408  21.771  31.183  0.00  0.00    +0.000 A 
ATOM      7  C   UNL     1      11.652  21.492  30.617  0.00  0.00    +0.000 A 
ATOM      8  C   UNL     1      12.095  20.094  30.537  0.00  0.00    +0.000 A 
ATOM      9  C   UNL     1      12.006  23.849  30.215  0.00  0.00    +0.000 A 
ATOM     10  C   UNL     1      10.020  19.465  31.615  0.00  0.00    +0.000 A 
ATOM     11  C   UNL     1      12.446  22.533  30.129  0.00  0.00    +0.000 A 
ENDROOT
BRANCH  10  12
ATOM     12  C   UNL     1       9.051  18.524  32.199  0.00  0.00    +0.000 A 
ATOM     13  C   UNL     1       9.341  17.887  33.411  0.00  0.00    +0.000 A 
ATOM     14  C   UNL     1       7.839  18.240  31.558  0.00  0.00    +0.000 A 
ATOM     15  C   UNL     1       8.425  16.996  33.975  0.00  0.00    +0.000 A 
ATOM     16  C   UNL     1       6.922  17.348  32.127  0.00  0.00    +0.000 A 
ATOM     17  C   UNL     1       7.209  16.726  33.342  0.00  0.00    +0.000 A 
BRANCH  17  18
ATOM     18  O   UNL     1       6.404  15.842  34.003  0.00  0.00    +0.000 OA
ATOM     19  C   UNL     1       7.050  14.792  34.712  0.00  0.00    +0.000 C 
ENDBRANCH  17  18
ENDBRANCH  10  12
BRANCH  11  20
ATOM     20  O   UNL     1      13.666  22.335  29.542  0.00  0.00    +0.000 OA
ATOM     21  H   UNL     1      13.562  22.437  28.570  0.00  0.00    +0.000 HD
ENDBRANCH  11  20
BRANCH   4  22
ATOM     22  C   UNL     1       8.606  23.394  31.933  0.00  0.00    +0.000 C 
BRANCH  22  23
ATOM     23  C   UNL     1       8.699  23.493  33.434  0.00  0.00    +0.000 C 
ATOM     24  C   UNL     1       8.175  22.673  34.366  0.00  0.00    +0.000 C 
ATOM     25  C   UNL     1       7.361  21.439  34.090  0.00  0.00    +0.000 C 
ATOM     26  C   UNL     1       8.389  22.952  35.831  0.00  0.00    +0.000 C 
ENDBRANCH  22  23
ENDBRANCH   4  22
BRANCH   5  27
ATOM     27  O   UNL     1      11.587  17.732  31.080  0.00  0.00    +0.000 OA
BRANCH  27  33
ATOM     28  O   UNL     1      10.157  15.906  30.598  0.00  0.00    +0.000 OA
ATOM     29  C   UNL     1      12.871  15.338  29.806  0.00  0.00    +0.000 C 
ATOM     30  C   UNL     1      11.967  14.264  30.423  0.00  0.00    +0.000 C 
ATOM     31  C   UNL     1      12.046  16.413  29.099  0.00  0.00    +0.000 C 
ATOM     32  C   UNL     1      10.914  14.925  31.321  0.00  0.00    +0.000 C 
ATOM     33  C   UNL     1      10.960  16.961  30.048  0.00  0.00    +0.000 C 
ATOM     34  C   UNL     1       9.927  13.901  31.872  0.00  0.00    +0.000 C 
BRANCH  29  35
ATOM     35  O   UNL     1      13.760  14.699  28.870  0.00  0.00    +0.000 OA
ATOM     36  H   UNL     1      13.328  13.845  28.658  0.00  0.00    +0.000 HD
ENDBRANCH  29  35
BRANCH  30  37
ATOM     37  O   UNL     1      12.780  13.347  31.166  0.00  0.00    +0.000 OA
ATOM     38  H   UNL     1      12.197  12.586  31.360  0.00  0.00    +0.000 HD
ENDBRANCH  30  37
BRANCH  31  39
ATOM     39  O   UNL     1      11.485  15.818  27.910  0.00  0.00    +0.000 OA
ATOM     40  H   UNL     1      11.628  16.447  27.179  0.00  0.00    +0.000 HD
ENDBRANCH  31  39
ENDBRANCH  27  33
ENDBRANCH   5  27
BRANCH   3  41
ATOM     41  O   UNL     1      10.326  25.427  30.865  0.00  0.00    +0.000 OA
BRANCH  41  47
ATOM     42  O   UNL     1      12.035  27.015  30.467  0.00  0.00    +0.000 OA
ATOM     43  C   UNL     1      10.494  28.224  28.388  0.00  0.00    +0.000 C 
ATOM     44  C   UNL     1      11.715  28.921  28.994  0.00  0.00    +0.000 C 
ATOM     45  C   UNL     1       9.880  27.236  29.377  0.00  0.00    +0.000 C 
ATOM     46  C   UNL     1      12.700  27.864  29.515  0.00  0.00    +0.000 C 
ATOM     47  C   UNL     1      10.967  26.270  29.884  0.00  0.00    +0.000 C 
BRANCH  44  48
ATOM     48  O   UNL     1      12.319  29.753  28.002  0.00  0.00    +0.000 OA
ATOM     49  H   UNL     1      13.066  30.193  28.458  0.00  0.00    +0.000 HD
ENDBRANCH  44  48
BRANCH  45  50
ATOM     50  O   UNL     1       8.806  26.542  28.720  0.00  0.00    +0.000 OA
ATOM     51  H   UNL     1       8.217  27.237  28.364  0.00  0.00    +0.000 HD
ENDBRANCH  45  50
BRANCH  43  52
ATOM     52  O   UNL     1       9.528  29.220  28.012  0.00  0.00    +0.000 OA
ATOM     53  H   UNL     1       8.658  28.805  28.178  0.00  0.00    +0.000 HD
ENDBRANCH  43  52
BRANCH  46  54
ATOM     54  C   UNL     1      13.902  28.521  30.207  0.00  0.00    +0.000 C 
BRANCH  54  55
ATOM     55  O   UNL     1      14.662  27.528  30.900  0.00  0.00    +0.000 OA
ATOM     56  H   UNL     1      14.159  26.698  30.846  0.00  0.00    +0.000 HD
ENDBRANCH  54  55
ENDBRANCH  46  54
ENDBRANCH  41  47
ENDBRANCH   3  41
TORSDOF 17
ENDMDL
MODEL 8
REMARK VINA RESULT:      -6.0      2.015      9.602
REMARK  Name = 
REMARK  21 active torsions:
REMARK  status: ('A' for Active; 'I' for Inactive)
REMARK    1  A    between atoms: O_3  and  C_22
REMARK    2  A    between atoms: O_3  and  C_28
REMARK    3  A    between atoms: O_4  and  C_25
REMARK    4  A    between atoms: O_4  and  C_30
REMARK    5  A    between atoms: O_5  and  C_16
REMARK    6  A    between atoms: O_6  and  C_17
REMARK    7  A    between atoms: O_7  and  C_18
REMARK    8  A    between atoms: O_8  and  C_20
REMARK    9  A    between atoms: O_9  and  C_21
REMARK   10  A    between atoms: O_10  and  C_23
REMARK   11  A    between atoms: O_11  and  C_26
REMARK   12  A    between atoms: O_13  and  C_36
REMARK   13  A    between atoms: O_15  and  C_45
REMARK   14  A    between atoms: O_15  and  C_48
REMARK   15  A    between atoms: C_19  and  C_26
REMARK   16  A    between atoms: C_24  and  C_27
REMARK   17  A    between atoms: C_29  and  C_37
REMARK   18  A    between atoms: C_35  and  C_38
REMARK   19  A    between atoms: C_37  and  C_39
REMARK   20  A    between atoms: C_42  and  C_46
REMARK   21  A    between atoms: C_42  and  C_47
REMARK                            x       y       z     vdW  Elec       q    Type
REMARK                         _______ _______ _______ _____ _____    ______ ____
ROOT
ATOM      1  O   UNL     1       9.329  22.205  31.272  0.00  0.00    +0.000 OA
ATOM      2  O   UNL     1      12.886  23.487  29.794  0.00  0.00    +0.000 OA
ATOM      3  C   UNL     1      11.470  19.478  32.441  0.00  0.00    +0.000 A 
ATOM      4  C   UNL     1      10.323  20.260  32.216  0.00  0.00    +0.000 A 
ATOM      5  C   UNL     1      10.547  23.862  30.001  0.00  0.00    +0.000 A 
ATOM      6  C   UNL     1      10.461  21.455  31.480  0.00  0.00    +0.000 A 
ATOM      7  C   UNL     1      11.708  21.853  30.997  0.00  0.00    +0.000 A 
ATOM      8  C   UNL     1      11.802  23.100  30.226  0.00  0.00    +0.000 A 
ATOM      9  C   UNL     1      12.726  19.899  31.991  0.00  0.00    +0.000 A 
ATOM     10  C   UNL     1       9.409  23.352  30.506  0.00  0.00    +0.000 A 
ATOM     11  C   UNL     1      12.839  21.076  31.260  0.00  0.00    +0.000 A 
ENDROOT
BRANCH  10  12
ATOM     12  C   UNL     1       8.107  24.012  30.324  0.00  0.00    +0.000 A 
ATOM     13  C   UNL     1       7.414  24.506  31.434  0.00  0.00    +0.000 A 
ATOM     14  C   UNL     1       7.534  24.146  29.053  0.00  0.00    +0.000 A 
ATOM     15  C   UNL     1       6.179  25.137  31.270  0.00  0.00    +0.000 A 
ATOM     16  C   UNL     1       6.297  24.782  28.891  0.00  0.00    +0.000 A 
ATOM     17  C   UNL     1       5.617  25.286  30.000  0.00  0.00    +0.000 A 
BRANCH  17  18
ATOM     18  O   UNL     1       4.410  25.927  29.980  0.00  0.00    +0.000 OA
ATOM     19  C   UNL     1       3.263  25.144  30.286  0.00  0.00    +0.000 C 
ENDBRANCH  17  18
ENDBRANCH  10  12
BRANCH  11  20
ATOM     20  O   UNL     1      14.096  21.413  30.837  0.00  0.00    +0.000 OA
ATOM     21  H   UNL     1      14.692  20.648  31.000  0.00  0.00    +0.000 HD
ENDBRANCH  11  20
BRANCH   4  22
ATOM     22  C   UNL     1       8.958  19.821  32.712  0.00  0.00    +0.000 C 
BRANCH  22  23
ATOM     23  C   UNL     1       8.507  20.604  33.917  0.00  0.00    +0.000 C 
ATOM     24  C   UNL     1       7.362  21.293  34.094  0.00  0.00    +0.000 C 
ATOM     25  C   UNL     1       6.254  21.423  33.087  0.00  0.00    +0.000 C 
ATOM     26  C   UNL     1       7.101  22.014  35.391  0.00  0.00    +0.000 C 
ENDBRANCH  22  23
ENDBRANCH   4  22
BRANCH   5  27
ATOM     27  O   UNL     1      10.581  25.007  29.227  0.00  0.00    +0.000 OA
BRANCH  27  33
ATOM     28  O   UNL     1      10.358  26.811  30.747  0.00  0.00    +0.000 OA
ATOM     29  C   UNL     1      10.762  27.763  28.055  0.00  0.00    +0.000 C 
ATOM     30  C   UNL     1       9.807  28.467  29.027  0.00  0.00    +0.000 C 
ATOM     31  C   UNL     1      11.865  27.019  28.808  0.00  0.00    +0.000 C 
ATOM     32  C   UNL     1       9.281  27.459  30.057  0.00  0.00    +0.000 C 
ATOM     33  C   UNL     1      11.248  26.095  29.879  0.00  0.00    +0.000 C 
ATOM     34  C   UNL     1       8.409  28.139  31.107  0.00  0.00    +0.000 C 
BRANCH  29  35
ATOM     35  O   UNL     1      11.338  28.758  27.188  0.00  0.00    +0.000 OA
ATOM     36  H   UNL     1      11.936  29.278  27.765  0.00  0.00    +0.000 HD
ENDBRANCH  29  35
BRANCH  30  37
ATOM     37  O   UNL     1       8.734  29.051  28.278  0.00  0.00    +0.000 OA
ATOM     38  H   UNL     1       7.941  28.945  28.841  0.00  0.00    +0.000 HD
ENDBRANCH  30  37
BRANCH  31  39
ATOM     39  O   UNL     1      12.745  28.010  29.381  0.00  0.00    +0.000 OA
ATOM     40  H   UNL     1      13.563  27.550  29.644  0.00  0.00    +0.000 HD
ENDBRANCH  31  39
ENDBRANCH  27  33
ENDBRANCH   5  27
BRANCH   3  41
ATOM     41  O   UNL     1      11.367  18.340  33.199  0.00  0.00    +0.000 OA
BRANCH  41  47
ATOM     42  O   UNL     1      11.216  17.465  31.006  0.00  0.00    +0.000 OA
ATOM     43  C   UNL     1       9.816  15.168  31.966  0.00  0.00    +0.000 C 
ATOM     44  C   UNL     1       9.859  15.522  30.477  0.00  0.00    +0.000 C 
ATOM     45  C   UNL     1      10.014  16.412  32.830  0.00  0.00    +0.000 C 
ATOM     46  C   UNL     1      11.149  16.296  30.171  0.00  0.00    +0.000 C 
ATOM     47  C   UNL     1      11.297  17.145  32.394  0.00  0.00    +0.000 C 
BRANCH  44  48
ATOM     48  O   UNL     1       9.777  14.320  29.709  0.00  0.00    +0.000 OA
ATOM     49  H   UNL     1       9.113  13.766  30.170  0.00  0.00    +0.000 HD
ENDBRANCH  44  48
BRANCH  45  50
ATOM     50  O   UNL     1      10.067  16.005  34.207  0.00  0.00    +0.000 OA
ATOM     51  H   UNL     1       9.137  15.950  34.506  0.00  0.00    +0.000 HD
ENDBRANCH  45  50
BRANCH  43  52
ATOM     52  O   UNL     1       8.554  14.550  32.262  0.00  0.00    +0.000 OA
ATOM     53  H   UNL     1       8.665  14.156  33.151  0.00  0.00    +0.000 HD
ENDBRANCH  43  52
BRANCH  46  54
ATOM     54  C   UNL     1      11.193  16.743  28.704  0.00  0.00    +0.000 C 
BRANCH  54  55
ATOM     55  O   UNL     1      11.869  15.758  27.919  0.00  0.00    +0.000 OA
ATOM     56  H   UNL     1      12.745  16.120  27.705  0.00  0.00    +0.000 HD
ENDBRANCH  54  55
ENDBRANCH  46  54
ENDBRANCH  41  47
ENDBRANCH   3  41
TORSDOF 17
ENDMDL
MODEL 9
REMARK VINA RESULT:      -6.0     19.519     24.697
REMARK  Name = 
REMARK  21 active torsions:
REMARK  status: ('A' for Active; 'I' for Inactive)
REMARK    1  A    between atoms: O_3  and  C_22
REMARK    2  A    between atoms: O_3  and  C_28
REMARK    3  A    between atoms: O_4  and  C_25
REMARK    4  A    between atoms: O_4  and  C_30
REMARK    5  A    between atoms: O_5  and  C_16
REMARK    6  A    between atoms: O_6  and  C_17
REMARK    7  A    between atoms: O_7  and  C_18
REMARK    8  A    between atoms: O_8  and  C_20
REMARK    9  A    between atoms: O_9  and  C_21
REMARK   10  A    between atoms: O_10  and  C_23
REMARK   11  A    between atoms: O_11  and  C_26
REMARK   12  A    between atoms: O_13  and  C_36
REMARK   13  A    between atoms: O_15  and  C_45
REMARK   14  A    between atoms: O_15  and  C_48
REMARK   15  A    between atoms: C_19  and  C_26
REMARK   16  A    between atoms: C_24  and  C_27
REMARK   17  A    between atoms: C_29  and  C_37
REMARK   18  A    between atoms: C_35  and  C_38
REMARK   19  A    between atoms: C_37  and  C_39
REMARK   20  A    between atoms: C_42  and  C_46
REMARK   21  A    between atoms: C_42  and  C_47
REMARK                            x       y       z     vdW  Elec       q    Type
REMARK                         _______ _______ _______ _____ _____    ______ ____
ROOT
ATOM      1  O   UNL     1      -0.541  28.753  10.925  0.00  0.00    +0.000 OA
ATOM      2  O   UNL     1      -1.741  24.991   9.982  0.00  0.00    +0.000 OA
ATOM      3  C   UNL     1      -1.139  27.463  14.296  0.00  0.00    +0.000 A 
ATOM      4  C   UNL     1      -0.793  28.344  13.255  0.00  0.00    +0.000 A 
ATOM      5  C   UNL     1      -1.037  27.126   9.207  0.00  0.00    +0.000 A 
ATOM      6  C   UNL     1      -0.884  27.878  11.928  0.00  0.00    +0.000 A 
ATOM      7  C   UNL     1      -1.298  26.574  11.657  0.00  0.00    +0.000 A 
ATOM      8  C   UNL     1      -1.389  26.137  10.257  0.00  0.00    +0.000 A 
ATOM      9  C   UNL     1      -1.515  26.143  14.025  0.00  0.00    +0.000 A 
ATOM     10  C   UNL     1      -0.673  28.357   9.607  0.00  0.00    +0.000 A 
ATOM     11  C   UNL     1      -1.608  25.708  12.708  0.00  0.00    +0.000 A 
ENDROOT
BRANCH  10  12
ATOM     12  C   UNL     1      -0.325  29.421   8.653  0.00  0.00    +0.000 A 
ATOM     13  C   UNL     1       1.002  29.851   8.541  0.00  0.00    +0.000 A 
ATOM     14  C   UNL     1      -1.302  30.026   7.854  0.00  0.00    +0.000 A 
ATOM     15  C   UNL     1       1.342  30.858   7.634  0.00  0.00    +0.000 A 
ATOM     16  C   UNL     1      -0.959  31.033   6.943  0.00  0.00    +0.000 A 
ATOM     17  C   UNL     1       0.368  31.449   6.826  0.00  0.00    +0.000 A 
BRANCH  17  18
ATOM     18  O   UNL     1       0.836  32.414   5.979  0.00  0.00    +0.000 OA
ATOM     19  C   UNL     1       1.837  32.021   5.049  0.00  0.00    +0.000 C 
ENDBRANCH  17  18
ENDBRANCH  10  12
BRANCH  11  20
ATOM     20  O   UNL     1      -2.000  24.410  12.521  0.00  0.00    +0.000 OA
ATOM     21  H   UNL     1      -2.793  24.244  13.078  0.00  0.00    +0.000 HD
ENDBRANCH  11  20
BRANCH   4  22
ATOM     22  C   UNL     1      -0.370  29.772  13.537  0.00  0.00    +0.000 C 
BRANCH  22  23
ATOM     23  C   UNL     1       1.114  29.974  13.371  0.00  0.00    +0.000 C 
ATOM     24  C   UNL     1       1.762  30.849  12.577  0.00  0.00    +0.000 C 
ATOM     25  C   UNL     1       1.111  31.848  11.661  0.00  0.00    +0.000 C 
ATOM     26  C   UNL     1       3.268  30.891  12.561  0.00  0.00    +0.000 C 
ENDBRANCH  22  23
ENDBRANCH   4  22
BRANCH   5  27
ATOM     27  O   UNL     1      -1.169  26.776   7.876  0.00  0.00    +0.000 OA
BRANCH  27  33
ATOM     28  O   UNL     1       0.910  26.760   6.740  0.00  0.00    +0.000 OA
ATOM     29  C   UNL     1      -1.139  25.469   5.175  0.00  0.00    +0.000 C 
ATOM     30  C   UNL     1      -0.062  26.350   4.529  0.00  0.00    +0.000 C 
ATOM     31  C   UNL     1      -0.641  24.861   6.486  0.00  0.00    +0.000 C 
ATOM     32  C   UNL     1       0.434  27.388   5.542  0.00  0.00    +0.000 C 
ATOM     33  C   UNL     1      -0.083  25.967   7.407  0.00  0.00    +0.000 C 
ATOM     34  C   UNL     1       1.582  28.218   4.975  0.00  0.00    +0.000 C 
BRANCH  29  35
ATOM     35  O   UNL     1      -1.488  24.426   4.246  0.00  0.00    +0.000 OA
ATOM     36  H   UNL     1      -1.585  23.621   4.797  0.00  0.00    +0.000 HD
ENDBRANCH  29  35
BRANCH  30  37
ATOM     37  O   UNL     1      -0.617  26.982   3.369  0.00  0.00    +0.000 OA
ATOM     38  H   UNL     1      -1.093  27.767   3.707  0.00  0.00    +0.000 HD
ENDBRANCH  30  37
BRANCH  31  39
ATOM     39  O   UNL     1       0.354  23.871   6.155  0.00  0.00    +0.000 OA
ATOM     40  H   UNL     1       0.247  23.659   5.209  0.00  0.00    +0.000 HD
ENDBRANCH  31  39
ENDBRANCH  27  33
ENDBRANCH   5  27
BRANCH   3  41
ATOM     41  O   UNL     1      -1.007  27.878  15.596  0.00  0.00    +0.000 OA
BRANCH  41  47
ATOM     42  O   UNL     1      -2.606  29.356  16.523  0.00  0.00    +0.000 OA
ATOM     43  C   UNL     1      -3.397  27.382  18.430  0.00  0.00    +0.000 C 
ATOM     44  C   UNL     1      -3.796  28.853  18.580  0.00  0.00    +0.000 C 
ATOM     45  C   UNL     1      -2.116  27.243  17.609  0.00  0.00    +0.000 C 
ATOM     46  C   UNL     1      -3.870  29.506  17.193  0.00  0.00    +0.000 C 
ATOM     47  C   UNL     1      -2.277  27.990  16.272  0.00  0.00    +0.000 C 
BRANCH  44  48
ATOM     48  O   UNL     1      -5.050  28.929  19.261  0.00  0.00    +0.000 OA
ATOM     49  H   UNL     1      -5.712  29.098  18.559  0.00  0.00    +0.000 HD
ENDBRANCH  44  48
BRANCH  45  50
ATOM     50  O   UNL     1      -1.848  25.844  17.417  0.00  0.00    +0.000 OA
ATOM     51  H   UNL     1      -2.711  25.392  17.503  0.00  0.00    +0.000 HD
ENDBRANCH  45  50
BRANCH  43  52
ATOM     52  O   UNL     1      -3.215  26.813  19.737  0.00  0.00    +0.000 OA
ATOM     53  H   UNL     1      -2.308  26.446  19.732  0.00  0.00    +0.000 HD
ENDBRANCH  43  52
BRANCH  46  54
ATOM     54  C   UNL     1      -4.186  31.003  17.302  0.00  0.00    +0.000 C 
BRANCH  54  55
ATOM     55  O   UNL     1      -3.035  31.769  16.938  0.00  0.00    +0.000 OA
ATOM     56  H   UNL     1      -3.258  32.703  17.087  0.00  0.00    +0.000 HD
ENDBRANCH  54  55
ENDBRANCH  46  54
ENDBRANCH  41  47
ENDBRANCH   3  41
TORSDOF 17
ENDMDL
