MODEL 1
REMARK VINA RESULT:      -6.1      0.000      0.000
REMARK  Name = 
REMARK  9 active torsions:
REMARK  status: ('A' for Active; 'I' for Inactive)
REMARK    1  A    between atoms: O_1  and  N_7
REMARK    2  A    between atoms: O_1  and  C_20
REMARK    3  A    between atoms: O_2  and  C_14
REMARK    4  A    between atoms: O_3  and  C_18
REMARK    5  A    between atoms: O_4  and  C_25
REMARK    6  A    between atoms: C_8  and  C_10
REMARK    7  A    between atoms: C_17  and  C_18
REMARK    8  A    between atoms: C_17  and  C_20
REMARK    9  A    between atoms: C_18  and  C_25
REMARK                            x       y       z     vdW  Elec       q    Type
REMARK                         _______ _______ _______ _____ _____    ______ ____
ROOT
ATOM      1  N   UNL     1       6.180  25.022  28.821  0.00  0.00    +0.000 NA
ATOM      2  N   UNL     1       9.045  23.189  29.827  0.00  0.00    +0.000 NA
ATOM      3  C   UNL     1       7.472  24.809  28.807  0.00  0.00    +0.000 C 
ATOM      4  C   UNL     1       7.826  23.551  29.578  0.00  0.00    +0.000 C 
ATOM      5  C   UNL     1       6.537  23.004  29.978  0.00  0.00    +0.000 A 
ATOM      6  C   UNL     1       5.612  23.938  29.510  0.00  0.00    +0.000 A 
ATOM      7  C   UNL     1       6.158  21.868  30.671  0.00  0.00    +0.000 A 
ATOM      8  C   UNL     1       4.260  23.748  29.733  0.00  0.00    +0.000 A 
ATOM      9  C   UNL     1       4.793  21.674  30.896  0.00  0.00    +0.000 A 
ATOM     10  C   UNL     1       3.850  22.608  30.432  0.00  0.00    +0.000 A 
ENDROOT
BRANCH   3  12
ATOM     11  N   UNL     1       9.359  26.906  26.527  0.00  0.00    +0.000 N 
ATOM     12  C   UNL     1       8.361  25.725  28.132  0.00  0.00    +0.000 A 
ATOM     13  C   UNL     1       9.372  26.556  28.724  0.00  0.00    +0.000 A 
ATOM     14  C   UNL     1       9.985  27.270  27.695  0.00  0.00    +0.000 A 
ATOM     15  C   UNL     1       8.366  25.994  26.775  0.00  0.00    +0.000 A 
ATOM     16  C   UNL     1       9.835  26.757  30.042  0.00  0.00    +0.000 A 
ATOM     17  C   UNL     1      11.032  28.174  27.913  0.00  0.00    +0.000 A 
ATOM     18  C   UNL     1      10.880  27.657  30.280  0.00  0.00    +0.000 A 
ATOM     19  C   UNL     1      11.469  28.354  29.229  0.00  0.00    +0.000 A 
ATOM     20  H   UNL     1       9.592  27.288  25.624  0.00  0.00    +0.000 HD
BRANCH  15  21
ATOM     21  O   UNL     1       7.577  25.542  25.806  0.00  0.00    +0.000 OA
ATOM     22  H   UNL     1       7.238  26.278  25.271  0.00  0.00    +0.000 HD
ENDBRANCH  15  21
ENDBRANCH   3  12
BRANCH   2  23
ATOM     23  O   UNL     1       9.104  22.023  30.594  0.00  0.00    +0.000 OA
BRANCH  23  24
ATOM     24  C   UNL     1       9.758  22.326  31.823  0.00  0.00    +0.000 C 
BRANCH  24  25
ATOM     25  C   UNL     1      11.008  23.147  31.542  0.00  0.00    +0.000 C 
BRANCH  25  26
ATOM     26  C   UNL     1      12.249  22.310  31.232  0.00  0.00    +0.000 C 
BRANCH  26  27
ATOM     27  O   UNL     1      11.859  20.928  31.234  0.00  0.00    +0.000 OA
ATOM     28  H   UNL     1      12.321  20.546  32.007  0.00  0.00    +0.000 HD
ENDBRANCH  26  27
BRANCH  26  29
ATOM     29  C   UNL     1      12.891  22.624  29.877  0.00  0.00    +0.000 C 
BRANCH  29  30
ATOM     30  O   UNL     1      13.213  21.384  29.238  0.00  0.00    +0.000 OA
ATOM     31  H   UNL     1      14.169  21.245  29.368  0.00  0.00    +0.000 HD
ENDBRANCH  29  30
ENDBRANCH  26  29
ENDBRANCH  25  26
ENDBRANCH  24  25
ENDBRANCH  23  24
ENDBRANCH   2  23
TORSDOF 9
ENDMDL
MODEL 2
REMARK VINA RESULT:      -5.7     16.987     18.581
REMARK  Name = 
REMARK  9 active torsions:
REMARK  status: ('A' for Active; 'I' for Inactive)
REMARK    1  A    between atoms: O_1  and  N_7
REMARK    2  A    between atoms: O_1  and  C_20
REMARK    3  A    between atoms: O_2  and  C_14
REMARK    4  A    between atoms: O_3  and  C_18
REMARK    5  A    between atoms: O_4  and  C_25
REMARK    6  A    between atoms: C_8  and  C_10
REMARK    7  A    between atoms: C_17  and  C_18
REMARK    8  A    between atoms: C_17  and  C_20
REMARK    9  A    between atoms: C_18  and  C_25
REMARK                            x       y       z     vdW  Elec       q    Type
REMARK                         _______ _______ _______ _____ _____    ______ ____
ROOT
ATOM      1  N   UNL     1       0.311  27.139  13.611  0.00  0.00    +0.000 NA
ATOM      2  N   UNL     1      -0.761  29.436  16.093  0.00  0.00    +0.000 NA
ATOM      3  C   UNL     1       0.321  28.329  14.158  0.00  0.00    +0.000 C 
ATOM      4  C   UNL     1      -0.502  28.352  15.433  0.00  0.00    +0.000 C 
ATOM      5  C   UNL     1      -0.929  26.970  15.605  0.00  0.00    +0.000 A 
ATOM      6  C   UNL     1      -0.427  26.317  14.480  0.00  0.00    +0.000 A 
ATOM      7  C   UNL     1      -1.672  26.317  16.573  0.00  0.00    +0.000 A 
ATOM      8  C   UNL     1      -0.662  24.965  14.298  0.00  0.00    +0.000 A 
ATOM      9  C   UNL     1      -1.910  24.952  16.391  0.00  0.00    +0.000 A 
ATOM     10  C   UNL     1      -1.411  24.281  15.262  0.00  0.00    +0.000 A 
ENDROOT
BRANCH   3  12
ATOM     11  N   UNL     1       2.388  31.166  13.246  0.00  0.00    +0.000 N 
ATOM     12  C   UNL     1       1.037  29.418  13.536  0.00  0.00    +0.000 A 
ATOM     13  C   UNL     1       1.002  29.811  12.156  0.00  0.00    +0.000 A 
ATOM     14  C   UNL     1       1.845  30.913  12.010  0.00  0.00    +0.000 A 
ATOM     15  C   UNL     1       1.930  30.263  14.171  0.00  0.00    +0.000 A 
ATOM     16  C   UNL     1       0.317  29.341  11.014  0.00  0.00    +0.000 A 
ATOM     17  C   UNL     1       2.041  31.565  10.787  0.00  0.00    +0.000 A 
ATOM     18  C   UNL     1       0.501  29.980   9.783  0.00  0.00    +0.000 A 
ATOM     19  C   UNL     1       1.351  31.077   9.674  0.00  0.00    +0.000 A 
ATOM     20  H   UNL     1       3.054  31.903  13.425  0.00  0.00    +0.000 HD
BRANCH  15  21
ATOM     21  O   UNL     1       2.366  30.268  15.426  0.00  0.00    +0.000 OA
ATOM     22  H   UNL     1       3.156  30.826  15.510  0.00  0.00    +0.000 HD
ENDBRANCH  15  21
ENDBRANCH   3  12
BRANCH   2  23
ATOM     23  O   UNL     1      -1.576  29.198  17.202  0.00  0.00    +0.000 OA
BRANCH  23  24
ATOM     24  C   UNL     1      -2.776  29.951  17.047  0.00  0.00    +0.000 C 
BRANCH  24  25
ATOM     25  C   UNL     1      -3.927  29.009  16.729  0.00  0.00    +0.000 C 
BRANCH  25  26
ATOM     26  C   UNL     1      -4.696  28.523  17.958  0.00  0.00    +0.000 C 
BRANCH  26  27
ATOM     27  O   UNL     1      -4.888  27.106  17.826  0.00  0.00    +0.000 OA
ATOM     28  H   UNL     1      -4.522  26.733  18.653  0.00  0.00    +0.000 HD
ENDBRANCH  26  27
BRANCH  26  29
ATOM     29  C   UNL     1      -3.981  28.788  19.286  0.00  0.00    +0.000 C 
BRANCH  29  30
ATOM     30  O   UNL     1      -3.103  27.687  19.547  0.00  0.00    +0.000 OA
ATOM     31  H   UNL     1      -2.456  27.999  20.205  0.00  0.00    +0.000 HD
ENDBRANCH  29  30
ENDBRANCH  26  29
ENDBRANCH  25  26
ENDBRANCH  24  25
ENDBRANCH  23  24
ENDBRANCH   2  23
TORSDOF 9
ENDMDL
MODEL 3
REMARK VINA RESULT:      -5.7     16.440     18.427
REMARK  Name = 
REMARK  9 active torsions:
REMARK  status: ('A' for Active; 'I' for Inactive)
REMARK    1  A    between atoms: O_1  and  N_7
REMARK    2  A    between atoms: O_1  and  C_20
REMARK    3  A    between atoms: O_2  and  C_14
REMARK    4  A    between atoms: O_3  and  C_18
REMARK    5  A    between atoms: O_4  and  C_25
REMARK    6  A    between atoms: C_8  and  C_10
REMARK    7  A    between atoms: C_17  and  C_18
REMARK    8  A    between atoms: C_17  and  C_20
REMARK    9  A    between atoms: C_18  and  C_25
REMARK                            x       y       z     vdW  Elec       q    Type
REMARK                         _______ _______ _______ _____ _____    ______ ____
ROOT
ATOM      1  N   UNL     1      -1.537  30.149  16.029  0.00  0.00    +0.000 NA
ATOM      2  N   UNL     1      -1.995  26.654  15.627  0.00  0.00    +0.000 NA
ATOM      3  C   UNL     1      -1.997  28.994  16.442  0.00  0.00    +0.000 C 
ATOM      4  C   UNL     1      -1.565  27.871  15.517  0.00  0.00    +0.000 C 
ATOM      5  C   UNL     1      -0.706  28.525  14.540  0.00  0.00    +0.000 A 
ATOM      6  C   UNL     1      -0.752  29.873  14.896  0.00  0.00    +0.000 A 
ATOM      7  C   UNL     1       0.024  28.068  13.457  0.00  0.00    +0.000 A 
ATOM      8  C   UNL     1      -0.052  30.811  14.158  0.00  0.00    +0.000 A 
ATOM      9  C   UNL     1       0.732  29.014  12.711  0.00  0.00    +0.000 A 
ATOM     10  C   UNL     1       0.694  30.376  13.058  0.00  0.00    +0.000 A 
ENDROOT
BRANCH   3  12
ATOM     11  N   UNL     1      -3.631  28.245  19.592  0.00  0.00    +0.000 N 
ATOM     12  C   UNL     1      -2.818  28.911  17.627  0.00  0.00    +0.000 A 
ATOM     13  C   UNL     1      -3.923  29.755  17.985  0.00  0.00    +0.000 A 
ATOM     14  C   UNL     1      -4.417  29.305  19.209  0.00  0.00    +0.000 A 
ATOM     15  C   UNL     1      -2.651  28.008  18.663  0.00  0.00    +0.000 A 
ATOM     16  C   UNL     1      -4.562  30.854  17.373  0.00  0.00    +0.000 A 
ATOM     17  C   UNL     1      -5.511  29.896  19.853  0.00  0.00    +0.000 A 
ATOM     18  C   UNL     1      -5.657  31.458  18.001  0.00  0.00    +0.000 A 
ATOM     19  C   UNL     1      -6.123  30.984  19.224  0.00  0.00    +0.000 A 
ATOM     20  H   UNL     1      -3.755  27.739  20.456  0.00  0.00    +0.000 HD
BRANCH  15  21
ATOM     21  O   UNL     1      -1.727  27.071  18.846  0.00  0.00    +0.000 OA
ATOM     22  H   UNL     1      -1.058  27.372  19.481  0.00  0.00    +0.000 HD
ENDBRANCH  15  21
ENDBRANCH   3  12
BRANCH   2  23
ATOM     23  O   UNL     1      -1.487  25.821  14.628  0.00  0.00    +0.000 OA
BRANCH  23  24
ATOM     24  C   UNL     1      -2.064  24.527  14.785  0.00  0.00    +0.000 C 
BRANCH  24  25
ATOM     25  C   UNL     1      -3.399  24.653  15.505  0.00  0.00    +0.000 C 
BRANCH  25  26
ATOM     26  C   UNL     1      -3.370  24.189  16.961  0.00  0.00    +0.000 C 
BRANCH  26  27
ATOM     27  O   UNL     1      -2.097  24.557  17.515  0.00  0.00    +0.000 OA
ATOM     28  H   UNL     1      -2.315  25.203  18.218  0.00  0.00    +0.000 HD
ENDBRANCH  26  27
BRANCH  26  29
ATOM     29  C   UNL     1      -4.468  24.805  17.834  0.00  0.00    +0.000 C 
BRANCH  29  30
ATOM     30  O   UNL     1      -3.936  25.001  19.149  0.00  0.00    +0.000 OA
ATOM     31  H   UNL     1      -3.074  25.442  19.037  0.00  0.00    +0.000 HD
ENDBRANCH  29  30
ENDBRANCH  26  29
ENDBRANCH  25  26
ENDBRANCH  24  25
ENDBRANCH  23  24
ENDBRANCH   2  23
TORSDOF 9
ENDMDL
MODEL 4
REMARK VINA RESULT:      -5.6     14.982     17.698
REMARK  Name = 
REMARK  9 active torsions:
REMARK  status: ('A' for Active; 'I' for Inactive)
REMARK    1  A    between atoms: O_1  and  N_7
REMARK    2  A    between atoms: O_1  and  C_20
REMARK    3  A    between atoms: O_2  and  C_14
REMARK    4  A    between atoms: O_3  and  C_18
REMARK    5  A    between atoms: O_4  and  C_25
REMARK    6  A    between atoms: C_8  and  C_10
REMARK    7  A    between atoms: C_17  and  C_18
REMARK    8  A    between atoms: C_17  and  C_20
REMARK    9  A    between atoms: C_18  and  C_25
REMARK                            x       y       z     vdW  Elec       q    Type
REMARK                         _______ _______ _______ _____ _____    ______ ____
ROOT
ATOM      1  N   UNL     1      22.705  14.610  28.825  0.00  0.00    +0.000 NA
ATOM      2  N   UNL     1      22.456  17.034  26.247  0.00  0.00    +0.000 NA
ATOM      3  C   UNL     1      22.792  14.964  27.567  0.00  0.00    +0.000 C 
ATOM      4  C   UNL     1      22.555  16.454  27.401  0.00  0.00    +0.000 C 
ATOM      5  C   UNL     1      22.401  16.944  28.764  0.00  0.00    +0.000 A 
ATOM      6  C   UNL     1      22.483  15.794  29.549  0.00  0.00    +0.000 A 
ATOM      7  C   UNL     1      22.194  18.199  29.307  0.00  0.00    +0.000 A 
ATOM      8  C   UNL     1      22.356  15.880  30.924  0.00  0.00    +0.000 A 
ATOM      9  C   UNL     1      22.067  18.289  30.696  0.00  0.00    +0.000 A 
ATOM     10  C   UNL     1      22.146  17.138  31.499  0.00  0.00    +0.000 A 
ENDROOT
BRANCH   3  12
ATOM     11  N   UNL     1      22.839  12.232  25.182  0.00  0.00    +0.000 N 
ATOM     12  C   UNL     1      23.063  13.982  26.543  0.00  0.00    +0.000 A 
ATOM     13  C   UNL     1      24.212  13.907  25.687  0.00  0.00    +0.000 A 
ATOM     14  C   UNL     1      24.049  12.797  24.858  0.00  0.00    +0.000 A 
ATOM     15  C   UNL     1      22.223  12.945  26.178  0.00  0.00    +0.000 A 
ATOM     16  C   UNL     1      25.390  14.674  25.548  0.00  0.00    +0.000 A 
ATOM     17  C   UNL     1      24.995  12.416  23.899  0.00  0.00    +0.000 A 
ATOM     18  C   UNL     1      26.347  14.308  24.595  0.00  0.00    +0.000 A 
ATOM     19  C   UNL     1      26.150  13.194  23.783  0.00  0.00    +0.000 A 
ATOM     20  H   UNL     1      22.458  11.421  24.720  0.00  0.00    +0.000 HD
BRANCH  15  21
ATOM     21  O   UNL     1      21.009  12.627  26.615  0.00  0.00    +0.000 OA
ATOM     22  H   UNL     1      20.917  11.664  26.698  0.00  0.00    +0.000 HD
ENDBRANCH  15  21
ENDBRANCH   3  12
BRANCH   2  23
ATOM     23  O   UNL     1      22.191  18.401  26.363  0.00  0.00    +0.000 OA
BRANCH  23  24
ATOM     24  C   UNL     1      23.263  19.120  25.760  0.00  0.00    +0.000 C 
BRANCH  24  25
ATOM     25  C   UNL     1      22.917  19.420  24.309  0.00  0.00    +0.000 C 
BRANCH  25  26
ATOM     26  C   UNL     1      22.469  20.860  24.057  0.00  0.00    +0.000 C 
BRANCH  26  27
ATOM     27  O   UNL     1      21.483  21.193  25.047  0.00  0.00    +0.000 OA
ATOM     28  H   UNL     1      21.477  22.171  25.064  0.00  0.00    +0.000 HD
ENDBRANCH  26  27
BRANCH  26  29
ATOM     29  C   UNL     1      23.601  21.889  24.144  0.00  0.00    +0.000 C 
BRANCH  29  30
ATOM     30  O   UNL     1      23.280  22.819  25.184  0.00  0.00    +0.000 OA
ATOM     31  H   UNL     1      22.932  23.616  24.746  0.00  0.00    +0.000 HD
ENDBRANCH  29  30
ENDBRANCH  26  29
ENDBRANCH  25  26
ENDBRANCH  24  25
ENDBRANCH  23  24
ENDBRANCH   2  23
TORSDOF 9
ENDMDL
MODEL 5
REMARK VINA RESULT:      -5.6     21.689     25.831
REMARK  Name = 
REMARK  9 active torsions:
REMARK  status: ('A' for Active; 'I' for Inactive)
REMARK    1  A    between atoms: O_1  and  N_7
REMARK    2  A    between atoms: O_1  and  C_20
REMARK    3  A    between atoms: O_2  and  C_14
REMARK    4  A    between atoms: O_3  and  C_18
REMARK    5  A    between atoms: O_4  and  C_25
REMARK    6  A    between atoms: C_8  and  C_10
REMARK    7  A    between atoms: C_17  and  C_18
REMARK    8  A    between atoms: C_17  and  C_20
REMARK    9  A    between atoms: C_18  and  C_25
REMARK                            x       y       z     vdW  Elec       q    Type
REMARK                         _______ _______ _______ _____ _____    ______ ____
ROOT
ATOM      1  N   UNL     1      28.320   9.350  19.853  0.00  0.00    +0.000 NA
ATOM      2  N   UNL     1      27.545  10.598  23.082  0.00  0.00    +0.000 NA
ATOM      3  C   UNL     1      27.874   9.185  21.074  0.00  0.00    +0.000 C 
ATOM      4  C   UNL     1      27.823  10.505  21.820  0.00  0.00    +0.000 C 
ATOM      5  C   UNL     1      28.224  11.491  20.826  0.00  0.00    +0.000 A 
ATOM      6  C   UNL     1      28.520  10.731  19.695  0.00  0.00    +0.000 A 
ATOM      7  C   UNL     1      28.354  12.869  20.850  0.00  0.00    +0.000 A 
ATOM      8  C   UNL     1      28.961  11.350  18.538  0.00  0.00    +0.000 A 
ATOM      9  C   UNL     1      28.798  13.495  19.683  0.00  0.00    +0.000 A 
ATOM     10  C   UNL     1      29.101  12.742  18.536  0.00  0.00    +0.000 A 
ENDROOT
BRANCH   3  12
ATOM     11  N   UNL     1      26.408   6.204  22.531  0.00  0.00    +0.000 N 
ATOM     12  C   UNL     1      27.524   7.870  21.557  0.00  0.00    +0.000 A 
ATOM     13  C   UNL     1      28.270   6.653  21.399  0.00  0.00    +0.000 A 
ATOM     14  C   UNL     1      27.554   5.635  22.029  0.00  0.00    +0.000 A 
ATOM     15  C   UNL     1      26.364   7.543  22.238  0.00  0.00    +0.000 A 
ATOM     16  C   UNL     1      29.499   6.323  20.789  0.00  0.00    +0.000 A 
ATOM     17  C   UNL     1      27.999   4.309  22.079  0.00  0.00    +0.000 A 
ATOM     18  C   UNL     1      29.961   5.003  20.829  0.00  0.00    +0.000 A 
ATOM     19  C   UNL     1      29.220   4.011  21.466  0.00  0.00    +0.000 A 
ATOM     20  H   UNL     1      25.694   5.687  23.021  0.00  0.00    +0.000 HD
BRANCH  15  21
ATOM     21  O   UNL     1      25.318   8.294  22.565  0.00  0.00    +0.000 OA
ATOM     22  H   UNL     1      25.094   8.900  21.841  0.00  0.00    +0.000 HD
ENDBRANCH  15  21
ENDBRANCH   3  12
BRANCH   2  23
ATOM     23  O   UNL     1      27.609  11.916  23.542  0.00  0.00    +0.000 OA
BRANCH  23  24
ATOM     24  C   UNL     1      26.686  12.062  24.618  0.00  0.00    +0.000 C 
BRANCH  24  25
ATOM     25  C   UNL     1      25.439  12.778  24.120  0.00  0.00    +0.000 C 
BRANCH  25  26
ATOM     26  C   UNL     1      24.302  11.842  23.711  0.00  0.00    +0.000 C 
BRANCH  26  27
ATOM     27  O   UNL     1      24.672  11.214  22.473  0.00  0.00    +0.000 OA
ATOM     28  H   UNL     1      23.920  10.624  22.265  0.00  0.00    +0.000 HD
ENDBRANCH  26  27
BRANCH  26  29
ATOM     29  C   UNL     1      24.000  10.741  24.733  0.00  0.00    +0.000 C 
BRANCH  29  30
ATOM     30  O   UNL     1      23.283   9.697  24.066  0.00  0.00    +0.000 OA
ATOM     31  H   UNL     1      22.658   9.330  24.717  0.00  0.00    +0.000 HD
ENDBRANCH  29  30
ENDBRANCH  26  29
ENDBRANCH  25  26
ENDBRANCH  24  25
ENDBRANCH  23  24
ENDBRANCH   2  23
TORSDOF 9
ENDMDL
MODEL 6
REMARK VINA RESULT:      -5.4     17.018     19.100
REMARK  Name = 
REMARK  9 active torsions:
REMARK  status: ('A' for Active; 'I' for Inactive)
REMARK    1  A    between atoms: O_1  and  N_7
REMARK    2  A    between atoms: O_1  and  C_20
REMARK    3  A    between atoms: O_2  and  C_14
REMARK    4  A    between atoms: O_3  and  C_18
REMARK    5  A    between atoms: O_4  and  C_25
REMARK    6  A    between atoms: C_8  and  C_10
REMARK    7  A    between atoms: C_17  and  C_18
REMARK    8  A    between atoms: C_17  and  C_20
REMARK    9  A    between atoms: C_18  and  C_25
REMARK                            x       y       z     vdW  Elec       q    Type
REMARK                         _______ _______ _______ _____ _____    ______ ____
ROOT
ATOM      1  N   UNL     1       0.169  27.053  13.761  0.00  0.00    +0.000 NA
ATOM      2  N   UNL     1      -0.827  29.429  16.200  0.00  0.00    +0.000 NA
ATOM      3  C   UNL     1       0.201  28.258  14.274  0.00  0.00    +0.000 C 
ATOM      4  C   UNL     1      -0.592  28.324  15.566  0.00  0.00    +0.000 C 
ATOM      5  C   UNL     1      -1.026  26.952  15.787  0.00  0.00    +0.000 A 
ATOM      6  C   UNL     1      -0.555  26.263  14.670  0.00  0.00    +0.000 A 
ATOM      7  C   UNL     1      -1.751  26.332  16.790  0.00  0.00    +0.000 A 
ATOM      8  C   UNL     1      -0.805  24.909  14.531  0.00  0.00    +0.000 A 
ATOM      9  C   UNL     1      -2.005  24.965  16.652  0.00  0.00    +0.000 A 
ATOM     10  C   UNL     1      -1.536  24.258  15.531  0.00  0.00    +0.000 A 
ENDROOT
BRANCH   3  12
ATOM     11  N   UNL     1       2.268  31.052  13.235  0.00  0.00    +0.000 N 
ATOM     12  C   UNL     1       0.911  29.323  13.605  0.00  0.00    +0.000 A 
ATOM     13  C   UNL     1       0.848  29.677  12.215  0.00  0.00    +0.000 A 
ATOM     14  C   UNL     1       1.696  30.767  12.018  0.00  0.00    +0.000 A 
ATOM     15  C   UNL     1       1.824  30.180  14.195  0.00  0.00    +0.000 A 
ATOM     16  C   UNL     1       0.136  29.179  11.102  0.00  0.00    +0.000 A 
ATOM     17  C   UNL     1       1.870  31.382  10.773  0.00  0.00    +0.000 A 
ATOM     18  C   UNL     1       0.297  29.781   9.849  0.00  0.00    +0.000 A 
ATOM     19  C   UNL     1       1.152  30.868   9.689  0.00  0.00    +0.000 A 
ATOM     20  H   UNL     1       2.943  31.788  13.377  0.00  0.00    +0.000 HD
BRANCH  15  21
ATOM     21  O   UNL     1       2.288  30.217  15.439  0.00  0.00    +0.000 OA
ATOM     22  H   UNL     1       2.342  29.322  15.810  0.00  0.00    +0.000 HD
ENDBRANCH  15  21
ENDBRANCH   3  12
BRANCH   2  23
ATOM     23  O   UNL     1      -1.618  29.230  17.334  0.00  0.00    +0.000 OA
BRANCH  23  24
ATOM     24  C   UNL     1      -2.967  29.546  17.002  0.00  0.00    +0.000 C 
BRANCH  24  25
ATOM     25  C   UNL     1      -3.038  30.976  16.484  0.00  0.00    +0.000 C 
BRANCH  25  26
ATOM     26  C   UNL     1      -3.962  31.159  15.280  0.00  0.00    +0.000 C 
BRANCH  26  27
ATOM     27  O   UNL     1      -4.440  32.513  15.294  0.00  0.00    +0.000 OA
ATOM     28  H   UNL     1      -3.852  32.985  14.671  0.00  0.00    +0.000 HD
ENDBRANCH  26  27
BRANCH  26  29
ATOM     29  C   UNL     1      -3.284  30.906  13.929  0.00  0.00    +0.000 C 
BRANCH  29  30
ATOM     30  O   UNL     1      -1.911  31.296  14.040  0.00  0.00    +0.000 OA
ATOM     31  H   UNL     1      -1.874  32.246  13.827  0.00  0.00    +0.000 HD
ENDBRANCH  29  30
ENDBRANCH  26  29
ENDBRANCH  25  26
ENDBRANCH  24  25
ENDBRANCH  23  24
ENDBRANCH   2  23
TORSDOF 9
ENDMDL
MODEL 7
REMARK VINA RESULT:      -5.4     15.663     18.886
REMARK  Name = 
REMARK  9 active torsions:
REMARK  status: ('A' for Active; 'I' for Inactive)
REMARK    1  A    between atoms: O_1  and  N_7
REMARK    2  A    between atoms: O_1  and  C_20
REMARK    3  A    between atoms: O_2  and  C_14
REMARK    4  A    between atoms: O_3  and  C_18
REMARK    5  A    between atoms: O_4  and  C_25
REMARK    6  A    between atoms: C_8  and  C_10
REMARK    7  A    between atoms: C_17  and  C_18
REMARK    8  A    between atoms: C_17  and  C_20
REMARK    9  A    between atoms: C_18  and  C_25
REMARK                            x       y       z     vdW  Elec       q    Type
REMARK                         _______ _______ _______ _____ _____    ______ ____
ROOT
ATOM      1  N   UNL     1      23.303  13.249  29.788  0.00  0.00    +0.000 NA
ATOM      2  N   UNL     1      22.787  15.160  26.845  0.00  0.00    +0.000 NA
ATOM      3  C   UNL     1      23.134  13.343  28.493  0.00  0.00    +0.000 C 
ATOM      4  C   UNL     1      23.077  14.794  28.053  0.00  0.00    +0.000 C 
ATOM      5  C   UNL     1      23.325  15.547  29.275  0.00  0.00    +0.000 A 
ATOM      6  C   UNL     1      23.430  14.566  30.262  0.00  0.00    +0.000 A 
ATOM      7  C   UNL     1      23.434  16.897  29.556  0.00  0.00    +0.000 A 
ATOM      8  C   UNL     1      23.651  14.927  31.579  0.00  0.00    +0.000 A 
ATOM      9  C   UNL     1      23.658  17.263  30.886  0.00  0.00    +0.000 A 
ATOM     10  C   UNL     1      23.764  16.286  31.890  0.00  0.00    +0.000 A 
ENDROOT
BRANCH   3  12
ATOM     11  N   UNL     1      22.211  10.658  26.235  0.00  0.00    +0.000 N 
ATOM     12  C   UNL     1      23.009  12.156  27.680  0.00  0.00    +0.000 A 
ATOM     13  C   UNL     1      23.937  11.065  27.578  0.00  0.00    +0.000 A 
ATOM     14  C   UNL     1      23.404  10.141  26.679  0.00  0.00    +0.000 A 
ATOM     15  C   UNL     1      21.969  11.879  26.810  0.00  0.00    +0.000 A 
ATOM     16  C   UNL     1      25.179  10.768  28.180  0.00  0.00    +0.000 A 
ATOM     17  C   UNL     1      24.046   8.942  26.349  0.00  0.00    +0.000 A 
ATOM     18  C   UNL     1      25.836   9.574  27.863  0.00  0.00    +0.000 A 
ATOM     19  C   UNL     1      25.275   8.675  26.960  0.00  0.00    +0.000 A 
ATOM     20  H   UNL     1      21.621  10.202  25.557  0.00  0.00    +0.000 HD
BRANCH  15  21
ATOM     21  O   UNL     1      20.905  12.605  26.485  0.00  0.00    +0.000 OA
ATOM     22  H   UNL     1      21.157  13.528  26.326  0.00  0.00    +0.000 HD
ENDBRANCH  15  21
ENDBRANCH   3  12
BRANCH   2  23
ATOM     23  O   UNL     1      22.753  16.550  26.706  0.00  0.00    +0.000 OA
BRANCH  23  24
ATOM     24  C   UNL     1      23.708  16.926  25.719  0.00  0.00    +0.000 C 
BRANCH  24  25
ATOM     25  C   UNL     1      23.722  18.442  25.580  0.00  0.00    +0.000 C 
BRANCH  25  26
ATOM     26  C   UNL     1      22.385  19.042  25.142  0.00  0.00    +0.000 C 
BRANCH  26  27
ATOM     27  O   UNL     1      21.675  19.444  26.324  0.00  0.00    +0.000 OA
ATOM     28  H   UNL     1      22.340  19.386  27.039  0.00  0.00    +0.000 HD
ENDBRANCH  26  27
BRANCH  26  29
ATOM     29  C   UNL     1      22.519  20.262  24.225  0.00  0.00    +0.000 C 
BRANCH  29  30
ATOM     30  O   UNL     1      22.554  19.800  22.871  0.00  0.00    +0.000 OA
ATOM     31  H   UNL     1      21.748  20.138  22.441  0.00  0.00    +0.000 HD
ENDBRANCH  29  30
ENDBRANCH  26  29
ENDBRANCH  25  26
ENDBRANCH  24  25
ENDBRANCH  23  24
ENDBRANCH   2  23
TORSDOF 9
ENDMDL
MODEL 8
REMARK VINA RESULT:      -5.4     24.991     28.168
REMARK  Name = 
REMARK  9 active torsions:
REMARK  status: ('A' for Active; 'I' for Inactive)
REMARK    1  A    between atoms: O_1  and  N_7
REMARK    2  A    between atoms: O_1  and  C_20
REMARK    3  A    between atoms: O_2  and  C_14
REMARK    4  A    between atoms: O_3  and  C_18
REMARK    5  A    between atoms: O_4  and  C_25
REMARK    6  A    between atoms: C_8  and  C_10
REMARK    7  A    between atoms: C_17  and  C_18
REMARK    8  A    between atoms: C_17  and  C_20
REMARK    9  A    between atoms: C_18  and  C_25
REMARK                            x       y       z     vdW  Elec       q    Type
REMARK                         _______ _______ _______ _____ _____    ______ ____
ROOT
ATOM      1  N   UNL     1      22.795  28.626   6.395  0.00  0.00    +0.000 NA
ATOM      2  N   UNL     1      19.825  28.505   4.459  0.00  0.00    +0.000 NA
ATOM      3  C   UNL     1      21.537  28.931   6.200  0.00  0.00    +0.000 C 
ATOM      4  C   UNL     1      21.000  28.262   4.948  0.00  0.00    +0.000 C 
ATOM      5  C   UNL     1      22.110  27.444   4.478  0.00  0.00    +0.000 A 
ATOM      6  C   UNL     1      23.142  27.726   5.374  0.00  0.00    +0.000 A 
ATOM      7  C   UNL     1      22.268  26.572   3.415  0.00  0.00    +0.000 A 
ATOM      8  C   UNL     1      24.379  27.127   5.219  0.00  0.00    +0.000 A 
ATOM      9  C   UNL     1      23.517  25.966   3.258  0.00  0.00    +0.000 A 
ATOM     10  C   UNL     1      24.565  26.242   4.152  0.00  0.00    +0.000 A 
ENDROOT
BRANCH   3  12
ATOM     11  N   UNL     1      19.725  30.571   8.880  0.00  0.00    +0.000 N 
ATOM     12  C   UNL     1      20.844  29.816   7.107  0.00  0.00    +0.000 A 
ATOM     13  C   UNL     1      20.619  31.225   6.951  0.00  0.00    +0.000 A 
ATOM     14  C   UNL     1      19.907  31.664   8.068  0.00  0.00    +0.000 A 
ATOM     15  C   UNL     1      20.302  29.456   8.329  0.00  0.00    +0.000 A 
ATOM     16  C   UNL     1      20.941  32.171   5.954  0.00  0.00    +0.000 A 
ATOM     17  C   UNL     1      19.505  32.994   8.240  0.00  0.00    +0.000 A 
ATOM     18  C   UNL     1      20.548  33.504   6.109  0.00  0.00    +0.000 A 
ATOM     19  C   UNL     1      19.839  33.908   7.237  0.00  0.00    +0.000 A 
ATOM     20  H   UNL     1      19.255  30.608   9.772  0.00  0.00    +0.000 HD
BRANCH  15  21
ATOM     21  O   UNL     1      20.312  28.290   8.964  0.00  0.00    +0.000 OA
ATOM     22  H   UNL     1      20.430  28.422   9.918  0.00  0.00    +0.000 HD
ENDBRANCH  15  21
ENDBRANCH   3  12
BRANCH   2  23
ATOM     23  O   UNL     1      19.588  27.800   3.277  0.00  0.00    +0.000 OA
BRANCH  23  24
ATOM     24  C   UNL     1      18.206  27.922   2.951  0.00  0.00    +0.000 C 
BRANCH  24  25
ATOM     25  C   UNL     1      18.066  28.518   1.558  0.00  0.00    +0.000 C 
BRANCH  25  26
ATOM     26  C   UNL     1      18.421  30.003   1.474  0.00  0.00    +0.000 C 
BRANCH  26  27
ATOM     27  O   UNL     1      18.403  30.535   2.808  0.00  0.00    +0.000 OA
ATOM     28  H   UNL     1      18.976  29.929   3.319  0.00  0.00    +0.000 HD
ENDBRANCH  26  27
BRANCH  26  29
ATOM     29  C   UNL     1      19.799  30.282   0.866  0.00  0.00    +0.000 C 
BRANCH  29  30
ATOM     30  O   UNL     1      20.788  30.044   1.873  0.00  0.00    +0.000 OA
ATOM     31  H   UNL     1      20.312  29.711   2.655  0.00  0.00    +0.000 HD
ENDBRANCH  29  30
ENDBRANCH  26  29
ENDBRANCH  25  26
ENDBRANCH  24  25
ENDBRANCH  23  24
ENDBRANCH   2  23
TORSDOF 9
ENDMDL
MODEL 9
REMARK VINA RESULT:      -5.3     23.255     25.268
REMARK  Name = 
REMARK  9 active torsions:
REMARK  status: ('A' for Active; 'I' for Inactive)
REMARK    1  A    between atoms: O_1  and  N_7
REMARK    2  A    between atoms: O_1  and  C_20
REMARK    3  A    between atoms: O_2  and  C_14
REMARK    4  A    between atoms: O_3  and  C_18
REMARK    5  A    between atoms: O_4  and  C_25
REMARK    6  A    between atoms: C_8  and  C_10
REMARK    7  A    between atoms: C_17  and  C_18
REMARK    8  A    between atoms: C_17  and  C_20
REMARK    9  A    between atoms: C_18  and  C_25
REMARK                            x       y       z     vdW  Elec       q    Type
REMARK                         _______ _______ _______ _____ _____    ______ ____
ROOT
ATOM      1  N   UNL     1      29.450  15.388  18.273  0.00  0.00    +0.000 NA
ATOM      2  N   UNL     1      28.998  18.251  16.229  0.00  0.00    +0.000 NA
ATOM      3  C   UNL     1      29.364  16.685  18.113  0.00  0.00    +0.000 C 
ATOM      4  C   UNL     1      29.013  17.037  16.679  0.00  0.00    +0.000 C 
ATOM      5  C   UNL     1      28.817  15.746  16.034  0.00  0.00    +0.000 A 
ATOM      6  C   UNL     1      29.111  14.819  17.033  0.00  0.00    +0.000 A 
ATOM      7  C   UNL     1      28.456  15.367  14.753  0.00  0.00    +0.000 A 
ATOM      8  C   UNL     1      29.047  13.463  16.764  0.00  0.00    +0.000 A 
ATOM      9  C   UNL     1      28.389  13.998  14.479  0.00  0.00    +0.000 A 
ATOM     10  C   UNL     1      28.684  13.053  15.477  0.00  0.00    +0.000 A 
ENDROOT
BRANCH   3  12
ATOM     11  N   UNL     1      29.425  19.289  20.637  0.00  0.00    +0.000 N 
ATOM     12  C   UNL     1      29.612  17.580  19.219  0.00  0.00    +0.000 A 
ATOM     13  C   UNL     1      30.629  17.465  20.225  0.00  0.00    +0.000 A 
ATOM     14  C   UNL     1      30.494  18.553  21.087  0.00  0.00    +0.000 A 
ATOM     15  C   UNL     1      28.869  18.706  19.528  0.00  0.00    +0.000 A 
ATOM     16  C   UNL     1      31.667  16.542  20.476  0.00  0.00    +0.000 A 
ATOM     17  C   UNL     1      31.337  18.765  22.185  0.00  0.00    +0.000 A 
ATOM     18  C   UNL     1      32.520  16.736  21.569  0.00  0.00    +0.000 A 
ATOM     19  C   UNL     1      32.355  17.834  22.409  0.00  0.00    +0.000 A 
ATOM     20  H   UNL     1      29.090  20.125  21.090  0.00  0.00    +0.000 HD
BRANCH  15  21
ATOM     21  O   UNL     1      27.779  19.202  18.951  0.00  0.00    +0.000 OA
ATOM     22  H   UNL     1      27.884  19.224  17.986  0.00  0.00    +0.000 HD
ENDBRANCH  15  21
ENDBRANCH   3  12
BRANCH   2  23
ATOM     23  O   UNL     1      28.691  18.306  14.867  0.00  0.00    +0.000 OA
BRANCH  23  24
ATOM     24  C   UNL     1      29.607  19.197  14.236  0.00  0.00    +0.000 C 
BRANCH  24  25
ATOM     25  C   UNL     1      30.009  20.289  15.217  0.00  0.00    +0.000 C 
BRANCH  25  26
ATOM     26  C   UNL     1      28.960  21.387  15.392  0.00  0.00    +0.000 C 
BRANCH  26  27
ATOM     27  O   UNL     1      27.689  20.850  14.995  0.00  0.00    +0.000 OA
ATOM     28  H   UNL     1      27.376  20.358  15.780  0.00  0.00    +0.000 HD
ENDBRANCH  26  27
BRANCH  26  29
ATOM     29  C   UNL     1      28.833  21.905  16.829  0.00  0.00    +0.000 C 
BRANCH  29  30
ATOM     30  O   UNL     1      27.581  21.452  17.357  0.00  0.00    +0.000 OA
ATOM     31  H   UNL     1      26.978  22.216  17.334  0.00  0.00    +0.000 HD
ENDBRANCH  29  30
ENDBRANCH  26  29
ENDBRANCH  25  26
ENDBRANCH  24  25
ENDBRANCH  23  24
ENDBRANCH   2  23
TORSDOF 9
ENDMDL
