MODEL 1
REMARK VINA RESULT:      -5.6      0.000      0.000
REMARK  Name = 
REMARK  6 active torsions:
REMARK  status: ('A' for Active; 'I' for Inactive)
REMARK    1  A    between atoms: O_3  and  C_16
REMARK    2  A    between atoms: O_4  and  C_17
REMARK    3  A    between atoms: O_4  and  C_22
REMARK    4  A    between atoms: O_5  and  C_19
REMARK    5  A    between atoms: O_5  and  C_23
REMARK    6  A    between atoms: O_6  and  C_21
REMARK                            x       y       z     vdW  Elec       q    Type
REMARK                         _______ _______ _______ _____ _____    ______ ____
ROOT
ATOM      1  O   UNL     1      -0.156  26.415  14.580  0.00  0.00    +0.000 OA
ATOM      2  O   UNL     1      -0.763  30.271  15.174  0.00  0.00    +0.000 OA
ATOM      3  C   UNL     1       0.837  28.605  14.335  0.00  0.00    +0.000 C 
ATOM      4  C   UNL     1       0.304  27.568  15.329  0.00  0.00    +0.000 C 
ATOM      5  C   UNL     1       0.104  28.177  13.111  0.00  0.00    +0.000 A 
ATOM      6  C   UNL     1       0.599  30.016  14.832  0.00  0.00    +0.000 C 
ATOM      7  C   UNL     1      -0.811  28.083  16.214  0.00  0.00    +0.000 A 
ATOM      8  C   UNL     1      -0.404  26.903  13.320  0.00  0.00    +0.000 A 
ATOM      9  C   UNL     1      -1.297  29.395  16.082  0.00  0.00    +0.000 A 
ATOM     10  C   UNL     1      -0.055  28.812  11.891  0.00  0.00    +0.000 A 
ATOM     11  C   UNL     1      -1.373  27.228  17.180  0.00  0.00    +0.000 A 
ATOM     12  C   UNL     1      -1.076  26.229  12.320  0.00  0.00    +0.000 A 
ATOM     13  C   UNL     1      -2.369  29.824  16.877  0.00  0.00    +0.000 A 
ATOM     14  C   UNL     1      -0.749  28.145  10.871  0.00  0.00    +0.000 A 
ATOM     15  C   UNL     1      -1.261  26.853  11.079  0.00  0.00    +0.000 A 
ATOM     16  C   UNL     1      -2.400  27.672  18.008  0.00  0.00    +0.000 A 
ATOM     17  C   UNL     1      -2.882  28.963  17.853  0.00  0.00    +0.000 A 
ENDROOT
BRANCH  12  18
ATOM     18  O   UNL     1      -1.562  24.971  12.540  0.00  0.00    +0.000 OA
ATOM     19  H   UNL     1      -2.283  24.861  11.893  0.00  0.00    +0.000 HD
ENDBRANCH  12  18
BRANCH  13  20
ATOM     20  O   UNL     1      -2.953  31.069  16.846  0.00  0.00    +0.000 OA
ATOM     21  C   UNL     1      -3.988  31.210  15.874  0.00  0.00    +0.000 C 
ENDBRANCH  13  20
BRANCH  15  22
ATOM     22  O   UNL     1      -1.948  26.103  10.156  0.00  0.00    +0.000 OA
ATOM     23  C   UNL     1      -1.200  25.606   9.051  0.00  0.00    +0.000 C 
ENDBRANCH  15  22
BRANCH  17  24
ATOM     24  O   UNL     1      -3.894  29.379  18.677  0.00  0.00    +0.000 OA
ATOM     25  H   UNL     1      -3.776  30.346  18.748  0.00  0.00    +0.000 HD
ENDBRANCH  17  24
TORSDOF 4
ENDMDL
MODEL 2
REMARK VINA RESULT:      -5.5     18.419     20.437
REMARK  Name = 
REMARK  6 active torsions:
REMARK  status: ('A' for Active; 'I' for Inactive)
REMARK    1  A    between atoms: O_3  and  C_16
REMARK    2  A    between atoms: O_4  and  C_17
REMARK    3  A    between atoms: O_4  and  C_22
REMARK    4  A    between atoms: O_5  and  C_19
REMARK    5  A    between atoms: O_5  and  C_23
REMARK    6  A    between atoms: O_6  and  C_21
REMARK                            x       y       z     vdW  Elec       q    Type
REMARK                         _______ _______ _______ _____ _____    ______ ____
ROOT
ATOM      1  O   UNL     1       9.285  20.598  31.354  0.00  0.00    +0.000 OA
ATOM      2  O   UNL     1      10.867  23.818  29.707  0.00  0.00    +0.000 OA
ATOM      3  C   UNL     1      11.090  22.195  31.537  0.00  0.00    +0.000 C 
ATOM      4  C   UNL     1       9.570  22.002  31.574  0.00  0.00    +0.000 C 
ATOM      5  C   UNL     1      11.474  20.997  30.739  0.00  0.00    +0.000 A 
ATOM      6  C   UNL     1      11.459  23.553  30.978  0.00  0.00    +0.000 C 
ATOM      7  C   UNL     1       8.821  22.843  30.562  0.00  0.00    +0.000 A 
ATOM      8  C   UNL     1      10.400  20.119  30.712  0.00  0.00    +0.000 A 
ATOM      9  C   UNL     1       9.504  23.690  29.673  0.00  0.00    +0.000 A 
ATOM     10  C   UNL     1      12.677  20.664  30.141  0.00  0.00    +0.000 A 
ATOM     11  C   UNL     1       7.417  22.766  30.510  0.00  0.00    +0.000 A 
ATOM     12  C   UNL     1      10.499  18.889  30.093  0.00  0.00    +0.000 A 
ATOM     13  C   UNL     1       8.786  24.413  28.710  0.00  0.00    +0.000 A 
ATOM     14  C   UNL     1      12.786  19.424  29.496  0.00  0.00    +0.000 A 
ATOM     15  C   UNL     1      11.702  18.531  29.469  0.00  0.00    +0.000 A 
ATOM     16  C   UNL     1       6.700  23.526  29.590  0.00  0.00    +0.000 A 
ATOM     17  C   UNL     1       7.388  24.343  28.706  0.00  0.00    +0.000 A 
ENDROOT
BRANCH  12  18
ATOM     18  O   UNL     1       9.434  18.032  30.082  0.00  0.00    +0.000 OA
ATOM     19  H   UNL     1       9.008  18.146  30.952  0.00  0.00    +0.000 HD
ENDBRANCH  12  18
BRANCH  13  20
ATOM     20  O   UNL     1       9.321  25.265  27.772  0.00  0.00    +0.000 OA
ATOM     21  C   UNL     1       9.610  26.573  28.261  0.00  0.00    +0.000 C 
ENDBRANCH  13  20
BRANCH  15  22
ATOM     22  O   UNL     1      11.695  17.292  28.877  0.00  0.00    +0.000 OA
ATOM     23  C   UNL     1      12.567  16.313  29.432  0.00  0.00    +0.000 C 
ENDBRANCH  15  22
BRANCH  17  24
ATOM     24  O   UNL     1       6.664  25.082  27.809  0.00  0.00    +0.000 OA
ATOM     25  H   UNL     1       6.191  25.740  28.352  0.00  0.00    +0.000 HD
ENDBRANCH  17  24
TORSDOF 4
ENDMDL
MODEL 3
REMARK VINA RESULT:      -5.2      1.892      6.000
REMARK  Name = 
REMARK  6 active torsions:
REMARK  status: ('A' for Active; 'I' for Inactive)
REMARK    1  A    between atoms: O_3  and  C_16
REMARK    2  A    between atoms: O_4  and  C_17
REMARK    3  A    between atoms: O_4  and  C_22
REMARK    4  A    between atoms: O_5  and  C_19
REMARK    5  A    between atoms: O_5  and  C_23
REMARK    6  A    between atoms: O_6  and  C_21
REMARK                            x       y       z     vdW  Elec       q    Type
REMARK                         _______ _______ _______ _____ _____    ______ ____
ROOT
ATOM      1  O   UNL     1       0.360  28.025  15.888  0.00  0.00    +0.000 OA
ATOM      2  O   UNL     1      -1.080  26.514  12.537  0.00  0.00    +0.000 OA
ATOM      3  C   UNL     1       0.097  25.981  14.626  0.00  0.00    +0.000 C 
ATOM      4  C   UNL     1       0.730  27.376  14.645  0.00  0.00    +0.000 C 
ATOM      5  C   UNL     1      -1.021  26.201  15.585  0.00  0.00    +0.000 A 
ATOM      6  C   UNL     1      -0.265  25.561  13.217  0.00  0.00    +0.000 C 
ATOM      7  C   UNL     1       0.331  28.247  13.473  0.00  0.00    +0.000 A 
ATOM      8  C   UNL     1      -0.778  27.370  16.290  0.00  0.00    +0.000 A 
ATOM      9  C   UNL     1      -0.561  27.782  12.493  0.00  0.00    +0.000 A 
ATOM     10  C   UNL     1      -2.127  25.417  15.870  0.00  0.00    +0.000 A 
ATOM     11  C   UNL     1       0.861  29.546  13.370  0.00  0.00    +0.000 A 
ATOM     12  C   UNL     1      -1.625  27.786  17.297  0.00  0.00    +0.000 A 
ATOM     13  C   UNL     1      -0.956  28.631  11.450  0.00  0.00    +0.000 A 
ATOM     14  C   UNL     1      -3.004  25.836  16.882  0.00  0.00    +0.000 A 
ATOM     15  C   UNL     1      -2.758  27.018  17.600  0.00  0.00    +0.000 A 
ATOM     16  C   UNL     1       0.512  30.371  12.305  0.00  0.00    +0.000 A 
ATOM     17  C   UNL     1      -0.384  29.906  11.355  0.00  0.00    +0.000 A 
ENDROOT
BRANCH  12  18
ATOM     18  O   UNL     1      -1.367  28.936  17.989  0.00  0.00    +0.000 OA
ATOM     19  H   UNL     1      -0.439  29.154  17.781  0.00  0.00    +0.000 HD
ENDBRANCH  12  18
BRANCH  13  20
ATOM     20  O   UNL     1      -1.828  28.317  10.435  0.00  0.00    +0.000 OA
ATOM     21  C   UNL     1      -1.249  27.562   9.372  0.00  0.00    +0.000 C 
ENDBRANCH  13  20
BRANCH  15  22
ATOM     22  O   UNL     1      -3.539  27.520  18.612  0.00  0.00    +0.000 OA
ATOM     23  C   UNL     1      -4.801  28.062  18.237  0.00  0.00    +0.000 C 
ENDBRANCH  15  22
BRANCH  17  24
ATOM     24  O   UNL     1      -0.714  30.733  10.315  0.00  0.00    +0.000 OA
ATOM     25  H   UNL     1       0.138  30.964   9.900  0.00  0.00    +0.000 HD
ENDBRANCH  17  24
TORSDOF 4
ENDMDL
MODEL 4
REMARK VINA RESULT:      -5.1     35.329     37.155
REMARK  Name = 
REMARK  6 active torsions:
REMARK  status: ('A' for Active; 'I' for Inactive)
REMARK    1  A    between atoms: O_3  and  C_16
REMARK    2  A    between atoms: O_4  and  C_17
REMARK    3  A    between atoms: O_4  and  C_22
REMARK    4  A    between atoms: O_5  and  C_19
REMARK    5  A    between atoms: O_5  and  C_23
REMARK    6  A    between atoms: O_6  and  C_21
REMARK                            x       y       z     vdW  Elec       q    Type
REMARK                         _______ _______ _______ _____ _____    ______ ____
ROOT
ATOM      1  O   UNL     1      19.075  -0.204  14.078  0.00  0.00    +0.000 OA
ATOM      2  O   UNL     1      20.863  -2.781  16.476  0.00  0.00    +0.000 OA
ATOM      3  C   UNL     1      18.708  -2.131  15.491  0.00  0.00    +0.000 C 
ATOM      4  C   UNL     1      19.151  -0.664  15.451  0.00  0.00    +0.000 C 
ATOM      5  C   UNL     1      18.976  -2.511  14.076  0.00  0.00    +0.000 A 
ATOM      6  C   UNL     1      19.444  -2.897  16.570  0.00  0.00    +0.000 C 
ATOM      7  C   UNL     1      20.543  -0.428  15.995  0.00  0.00    +0.000 A 
ATOM      8  C   UNL     1      19.140  -1.353  13.328  0.00  0.00    +0.000 A 
ATOM      9  C   UNL     1      21.331  -1.494  16.462  0.00  0.00    +0.000 A 
ATOM     10  C   UNL     1      19.010  -3.756  13.471  0.00  0.00    +0.000 A 
ATOM     11  C   UNL     1      21.056   0.881  16.027  0.00  0.00    +0.000 A 
ATOM     12  C   UNL     1      19.337  -1.407  11.964  0.00  0.00    +0.000 A 
ATOM     13  C   UNL     1      22.638  -1.251  16.907  0.00  0.00    +0.000 A 
ATOM     14  C   UNL     1      19.224  -3.825  12.087  0.00  0.00    +0.000 A 
ATOM     15  C   UNL     1      19.387  -2.654  11.327  0.00  0.00    +0.000 A 
ATOM     16  C   UNL     1      22.334   1.130  16.520  0.00  0.00    +0.000 A 
ATOM     17  C   UNL     1      23.107   0.067  16.960  0.00  0.00    +0.000 A 
ENDROOT
BRANCH  12  18
ATOM     18  O   UNL     1      19.488  -0.257  11.240  0.00  0.00    +0.000 OA
ATOM     19  H   UNL     1      18.594   0.128  11.186  0.00  0.00    +0.000 HD
ENDBRANCH  12  18
BRANCH  13  20
ATOM     20  O   UNL     1      23.523  -2.194  17.375  0.00  0.00    +0.000 OA
ATOM     21  C   UNL     1      24.255  -2.873  16.356  0.00  0.00    +0.000 C 
ENDBRANCH  13  20
BRANCH  15  22
ATOM     22  O   UNL     1      19.594  -2.600   9.970  0.00  0.00    +0.000 OA
ATOM     23  C   UNL     1      20.812  -3.155   9.486  0.00  0.00    +0.000 C 
ENDBRANCH  15  22
BRANCH  17  24
ATOM     24  O   UNL     1      24.361   0.333  17.441  0.00  0.00    +0.000 OA
ATOM     25  H   UNL     1      24.881  -0.469  17.241  0.00  0.00    +0.000 HD
ENDBRANCH  17  24
TORSDOF 4
ENDMDL
MODEL 5
REMARK VINA RESULT:      -5.1     21.366     23.575
REMARK  Name = 
REMARK  6 active torsions:
REMARK  status: ('A' for Active; 'I' for Inactive)
REMARK    1  A    between atoms: O_3  and  C_16
REMARK    2  A    between atoms: O_4  and  C_17
REMARK    3  A    between atoms: O_4  and  C_22
REMARK    4  A    between atoms: O_5  and  C_19
REMARK    5  A    between atoms: O_5  and  C_23
REMARK    6  A    between atoms: O_6  and  C_21
REMARK                            x       y       z     vdW  Elec       q    Type
REMARK                         _______ _______ _______ _____ _____    ______ ____
ROOT
ATOM      1  O   UNL     1      11.711  19.159  29.211  0.00  0.00    +0.000 OA
ATOM      2  O   UNL     1      10.347  15.980  31.115  0.00  0.00    +0.000 OA
ATOM      3  C   UNL     1      11.665  16.742  29.186  0.00  0.00    +0.000 C 
ATOM      4  C   UNL     1      10.822  18.019  29.094  0.00  0.00    +0.000 C 
ATOM      5  C   UNL     1      12.850  17.278  29.913  0.00  0.00    +0.000 A 
ATOM      6  C   UNL     1      10.891  15.620  29.846  0.00  0.00    +0.000 C 
ATOM      7  C   UNL     1       9.730  18.110  30.138  0.00  0.00    +0.000 A 
ATOM      8  C   UNL     1      12.820  18.663  29.852  0.00  0.00    +0.000 A 
ATOM      9  C   UNL     1       9.559  17.101  31.101  0.00  0.00    +0.000 A 
ATOM     10  C   UNL     1      13.903  16.618  30.522  0.00  0.00    +0.000 A 
ATOM     11  C   UNL     1       8.878  19.229  30.146  0.00  0.00    +0.000 A 
ATOM     12  C   UNL     1      13.838  19.424  30.389  0.00  0.00    +0.000 A 
ATOM     13  C   UNL     1       8.575  17.241  32.090  0.00  0.00    +0.000 A 
ATOM     14  C   UNL     1      14.938  17.379  31.085  0.00  0.00    +0.000 A 
ATOM     15  C   UNL     1      14.912  18.783  31.021  0.00  0.00    +0.000 A 
ATOM     16  C   UNL     1       7.865  19.343  31.094  0.00  0.00    +0.000 A 
ATOM     17  C   UNL     1       7.720  18.349  32.049  0.00  0.00    +0.000 A 
ENDROOT
BRANCH  12  18
ATOM     18  O   UNL     1      13.798  20.788  30.312  0.00  0.00    +0.000 OA
ATOM     19  H   UNL     1      14.646  21.044  29.905  0.00  0.00    +0.000 HD
ENDBRANCH  12  18
BRANCH  13  20
ATOM     20  O   UNL     1       8.306  16.345  33.097  0.00  0.00    +0.000 OA
ATOM     21  C   UNL     1       7.511  15.230  32.698  0.00  0.00    +0.000 C 
ENDBRANCH  13  20
BRANCH  15  22
ATOM     22  O   UNL     1      15.868  19.628  31.529  0.00  0.00    +0.000 OA
ATOM     23  C   UNL     1      17.021  19.020  32.100  0.00  0.00    +0.000 C 
ENDBRANCH  15  22
BRANCH  17  24
ATOM     24  O   UNL     1       6.718  18.479  32.973  0.00  0.00    +0.000 OA
ATOM     25  H   UNL     1       6.793  19.398  33.295  0.00  0.00    +0.000 HD
ENDBRANCH  17  24
TORSDOF 4
ENDMDL
MODEL 6
REMARK VINA RESULT:      -5.0     33.248     35.083
REMARK  Name = 
REMARK  6 active torsions:
REMARK  status: ('A' for Active; 'I' for Inactive)
REMARK    1  A    between atoms: O_3  and  C_16
REMARK    2  A    between atoms: O_4  and  C_17
REMARK    3  A    between atoms: O_4  and  C_22
REMARK    4  A    between atoms: O_5  and  C_19
REMARK    5  A    between atoms: O_5  and  C_23
REMARK    6  A    between atoms: O_6  and  C_21
REMARK                            x       y       z     vdW  Elec       q    Type
REMARK                         _______ _______ _______ _____ _____    ______ ____
ROOT
ATOM      1  O   UNL     1      17.407   1.218  24.932  0.00  0.00    +0.000 OA
ATOM      2  O   UNL     1      16.308  -0.333  28.392  0.00  0.00    +0.000 OA
ATOM      3  C   UNL     1      17.794  -0.617  26.456  0.00  0.00    +0.000 C 
ATOM      4  C   UNL     1      16.769   0.071  25.548  0.00  0.00    +0.000 C 
ATOM      5  C   UNL     1      18.716   0.526  26.702  0.00  0.00    +0.000 A 
ATOM      6  C   UNL     1      17.125  -1.246  27.661  0.00  0.00    +0.000 C 
ATOM      7  C   UNL     1      15.510   0.507  26.265  0.00  0.00    +0.000 A 
ATOM      8  C   UNL     1      18.453   1.518  25.769  0.00  0.00    +0.000 A 
ATOM      9  C   UNL     1      15.350   0.300  27.645  0.00  0.00    +0.000 A 
ATOM     10  C   UNL     1      19.744   0.670  27.619  0.00  0.00    +0.000 A 
ATOM     11  C   UNL     1      14.485   1.136  25.534  0.00  0.00    +0.000 A 
ATOM     12  C   UNL     1      19.208   2.672  25.722  0.00  0.00    +0.000 A 
ATOM     13  C   UNL     1      14.196   0.766  28.291  0.00  0.00    +0.000 A 
ATOM     14  C   UNL     1      20.510   1.844  27.592  0.00  0.00    +0.000 A 
ATOM     15  C   UNL     1      20.248   2.849  26.644  0.00  0.00    +0.000 A 
ATOM     16  C   UNL     1      13.315   1.550  26.165  0.00  0.00    +0.000 A 
ATOM     17  C   UNL     1      13.180   1.356  27.530  0.00  0.00    +0.000 A 
ENDROOT
BRANCH  12  18
ATOM     18  O   UNL     1      18.942   3.636  24.790  0.00  0.00    +0.000 OA
ATOM     19  H   UNL     1      18.508   4.355  25.285  0.00  0.00    +0.000 HD
ENDBRANCH  12  18
BRANCH  13  20
ATOM     20  O   UNL     1      13.914   0.647  29.632  0.00  0.00    +0.000 OA
ATOM     21  C   UNL     1      14.539   1.629  30.455  0.00  0.00    +0.000 C 
ENDBRANCH  13  20
BRANCH  15  22
ATOM     22  O   UNL     1      20.934   4.032  26.519  0.00  0.00    +0.000 OA
ATOM     23  C   UNL     1      22.354   3.954  26.535  0.00  0.00    +0.000 C 
ENDBRANCH  15  22
BRANCH  17  24
ATOM     24  O   UNL     1      12.022   1.771  28.132  0.00  0.00    +0.000 OA
ATOM     25  H   UNL     1      11.492   0.958  28.241  0.00  0.00    +0.000 HD
ENDBRANCH  17  24
TORSDOF 4
ENDMDL
MODEL 7
REMARK VINA RESULT:      -5.0     15.681     18.287
REMARK  Name = 
REMARK  6 active torsions:
REMARK  status: ('A' for Active; 'I' for Inactive)
REMARK    1  A    between atoms: O_3  and  C_16
REMARK    2  A    between atoms: O_4  and  C_17
REMARK    3  A    between atoms: O_4  and  C_22
REMARK    4  A    between atoms: O_5  and  C_19
REMARK    5  A    between atoms: O_5  and  C_23
REMARK    6  A    between atoms: O_6  and  C_21
REMARK                            x       y       z     vdW  Elec       q    Type
REMARK                         _______ _______ _______ _____ _____    ______ ____
ROOT
ATOM      1  O   UNL     1       0.267  13.203  24.747  0.00  0.00    +0.000 OA
ATOM      2  O   UNL     1      -2.235  11.803  22.034  0.00  0.00    +0.000 OA
ATOM      3  C   UNL     1      -2.072  12.858  24.246  0.00  0.00    +0.000 C 
ATOM      4  C   UNL     1      -0.723  12.175  24.491  0.00  0.00    +0.000 C 
ATOM      5  C   UNL     1      -1.597  14.206  23.826  0.00  0.00    +0.000 A 
ATOM      6  C   UNL     1      -2.913  12.076  23.259  0.00  0.00    +0.000 C 
ATOM      7  C   UNL     1      -0.264  11.296  23.348  0.00  0.00    +0.000 A 
ATOM      8  C   UNL     1      -0.262  14.336  24.179  0.00  0.00    +0.000 A 
ATOM      9  C   UNL     1      -1.030  11.168  22.176  0.00  0.00    +0.000 A 
ATOM     10  C   UNL     1      -2.282  15.259  23.244  0.00  0.00    +0.000 A 
ATOM     11  C   UNL     1       0.954  10.600  23.460  0.00  0.00    +0.000 A 
ATOM     12  C   UNL     1       0.421  15.516  23.965  0.00  0.00    +0.000 A 
ATOM     13  C   UNL     1      -0.551  10.391  21.112  0.00  0.00    +0.000 A 
ATOM     14  C   UNL     1      -1.596  16.459  23.009  0.00  0.00    +0.000 A 
ATOM     15  C   UNL     1      -0.245  16.595  23.369  0.00  0.00    +0.000 A 
ATOM     16  C   UNL     1       1.403   9.785  22.426  0.00  0.00    +0.000 A 
ATOM     17  C   UNL     1       0.646   9.683  21.269  0.00  0.00    +0.000 A 
ENDROOT
BRANCH  12  18
ATOM     18  O   UNL     1       1.735  15.631  24.327  0.00  0.00    +0.000 OA
ATOM     19  H   UNL     1       1.912  14.854  24.889  0.00  0.00    +0.000 HD
ENDBRANCH  12  18
BRANCH  13  20
ATOM     20  O   UNL     1      -1.184  10.189  19.908  0.00  0.00    +0.000 OA
ATOM     21  C   UNL     1      -1.143  11.308  19.025  0.00  0.00    +0.000 C 
ENDBRANCH  13  20
BRANCH  15  22
ATOM     22  O   UNL     1       0.524  17.720  23.194  0.00  0.00    +0.000 OA
ATOM     23  C   UNL     1       0.274  18.808  24.076  0.00  0.00    +0.000 C 
ENDBRANCH  15  22
BRANCH  17  24
ATOM     24  O   UNL     1       1.106   8.876  20.262  0.00  0.00    +0.000 OA
ATOM     25  H   UNL     1       0.781   9.292  19.441  0.00  0.00    +0.000 HD
ENDBRANCH  17  24
TORSDOF 4
ENDMDL
MODEL 8
REMARK VINA RESULT:      -5.0     33.041     34.788
REMARK  Name = 
REMARK  6 active torsions:
REMARK  status: ('A' for Active; 'I' for Inactive)
REMARK    1  A    between atoms: O_3  and  C_16
REMARK    2  A    between atoms: O_4  and  C_17
REMARK    3  A    between atoms: O_4  and  C_22
REMARK    4  A    between atoms: O_5  and  C_19
REMARK    5  A    between atoms: O_5  and  C_23
REMARK    6  A    between atoms: O_6  and  C_21
REMARK                            x       y       z     vdW  Elec       q    Type
REMARK                         _______ _______ _______ _____ _____    ______ ____
ROOT
ATOM      1  O   UNL     1      28.849  11.733  14.405  0.00  0.00    +0.000 OA
ATOM      2  O   UNL     1      29.676  14.324  17.266  0.00  0.00    +0.000 OA
ATOM      3  C   UNL     1      29.070  11.990  16.798  0.00  0.00    +0.000 C 
ATOM      4  C   UNL     1      28.292  12.424  15.551  0.00  0.00    +0.000 C 
ATOM      5  C   UNL     1      30.339  11.545  16.157  0.00  0.00    +0.000 A 
ATOM      6  C   UNL     1      29.156  13.112  17.811  0.00  0.00    +0.000 C 
ATOM      7  C   UNL     1      28.310  13.918  15.307  0.00  0.00    +0.000 A 
ATOM      8  C   UNL     1      30.119  11.388  14.797  0.00  0.00    +0.000 A 
ATOM      9  C   UNL     1      29.011  14.786  16.162  0.00  0.00    +0.000 A 
ATOM     10  C   UNL     1      31.567  11.236  16.717  0.00  0.00    +0.000 A 
ATOM     11  C   UNL     1      27.616  14.443  14.201  0.00  0.00    +0.000 A 
ATOM     12  C   UNL     1      31.113  10.918  13.962  0.00  0.00    +0.000 A 
ATOM     13  C   UNL     1      29.055  16.158  15.877  0.00  0.00    +0.000 A 
ATOM     14  C   UNL     1      32.590  10.772  15.878  0.00  0.00    +0.000 A 
ATOM     15  C   UNL     1      32.369  10.609  14.500  0.00  0.00    +0.000 A 
ATOM     16  C   UNL     1      27.614  15.811  13.950  0.00  0.00    +0.000 A 
ATOM     17  C   UNL     1      28.326  16.653  14.790  0.00  0.00    +0.000 A 
ENDROOT
BRANCH  12  18
ATOM     18  O   UNL     1      30.877  10.761  12.625  0.00  0.00    +0.000 OA
ATOM     19  H   UNL     1      30.932   9.801  12.469  0.00  0.00    +0.000 HD
ENDBRANCH  12  18
BRANCH  13  20
ATOM     20  O   UNL     1      29.710  17.117  16.614  0.00  0.00    +0.000 OA
ATOM     21  C   UNL     1      29.013  17.541  17.784  0.00  0.00    +0.000 C 
ENDBRANCH  13  20
BRANCH  15  22
ATOM     22  O   UNL     1      33.290  10.156  13.587  0.00  0.00    +0.000 OA
ATOM     23  C   UNL     1      34.542  10.831  13.552  0.00  0.00    +0.000 C 
ENDBRANCH  15  22
BRANCH  17  24
ATOM     24  O   UNL     1      28.312  17.997  14.525  0.00  0.00    +0.000 OA
ATOM     25  H   UNL     1      29.251  18.262  14.531  0.00  0.00    +0.000 HD
ENDBRANCH  17  24
TORSDOF 4
ENDMDL
MODEL 9
REMARK VINA RESULT:      -4.9     16.206     18.282
REMARK  Name = 
REMARK  6 active torsions:
REMARK  status: ('A' for Active; 'I' for Inactive)
REMARK    1  A    between atoms: O_3  and  C_16
REMARK    2  A    between atoms: O_4  and  C_17
REMARK    3  A    between atoms: O_4  and  C_22
REMARK    4  A    between atoms: O_5  and  C_19
REMARK    5  A    between atoms: O_5  and  C_23
REMARK    6  A    between atoms: O_6  and  C_21
REMARK                            x       y       z     vdW  Elec       q    Type
REMARK                         _______ _______ _______ _____ _____    ______ ____
ROOT
ATOM      1  O   UNL     1       2.984  23.672  29.445  0.00  0.00    +0.000 OA
ATOM      2  O   UNL     1       5.894  22.464  31.824  0.00  0.00    +0.000 OA
ATOM      3  C   UNL     1       3.546  23.183  31.744  0.00  0.00    +0.000 C 
ATOM      4  C   UNL     1       3.844  24.080  30.539  0.00  0.00    +0.000 C 
ATOM      5  C   UNL     1       2.967  22.004  31.040  0.00  0.00    +0.000 A 
ATOM      6  C   UNL     1       4.788  22.955  32.580  0.00  0.00    +0.000 C 
ATOM      7  C   UNL     1       5.291  24.048  30.093  0.00  0.00    +0.000 A 
ATOM      8  C   UNL     1       2.641  22.377  29.744  0.00  0.00    +0.000 A 
ATOM      9  C   UNL     1       6.234  23.234  30.743  0.00  0.00    +0.000 A 
ATOM     10  C   UNL     1       2.684  20.731  31.504  0.00  0.00    +0.000 A 
ATOM     11  C   UNL     1       5.693  24.845  29.005  0.00  0.00    +0.000 A 
ATOM     12  C   UNL     1       2.024  21.494  28.881  0.00  0.00    +0.000 A 
ATOM     13  C   UNL     1       7.553  23.184  30.271  0.00  0.00    +0.000 A 
ATOM     14  C   UNL     1       2.070  19.819  30.633  0.00  0.00    +0.000 A 
ATOM     15  C   UNL     1       1.736  20.195  29.321  0.00  0.00    +0.000 A 
ATOM     16  C   UNL     1       7.015  24.836  28.571  0.00  0.00    +0.000 A 
ATOM     17  C   UNL     1       7.930  24.014  29.210  0.00  0.00    +0.000 A 
ENDROOT
BRANCH  12  18
ATOM     18  O   UNL     1       1.701  21.880  27.610  0.00  0.00    +0.000 OA
ATOM     19  H   UNL     1       1.004  21.260  27.327  0.00  0.00    +0.000 HD
ENDBRANCH  12  18
BRANCH  13  20
ATOM     20  O   UNL     1       8.572  22.425  30.797  0.00  0.00    +0.000 OA
ATOM     21  C   UNL     1       8.568  21.061  30.380  0.00  0.00    +0.000 C 
ENDBRANCH  13  20
BRANCH  15  22
ATOM     22  O   UNL     1       1.128  19.393  28.386  0.00  0.00    +0.000 OA
ATOM     23  C   UNL     1       1.406  18.000  28.461  0.00  0.00    +0.000 C 
ENDBRANCH  15  22
BRANCH  17  24
ATOM     24  O   UNL     1       9.226  24.020  28.767  0.00  0.00    +0.000 OA
ATOM     25  H   UNL     1       9.765  24.139  29.572  0.00  0.00    +0.000 HD
ENDBRANCH  17  24
TORSDOF 4
ENDMDL
