MODEL 1
REMARK VINA RESULT:      -6.0      0.000      0.000
REMARK  Name = IPA3.pdbqt.pdb
REMARK  5 active torsions:
REMARK  status: ('A' for Active; 'I' for Inactive)
REMARK    1  A    between atoms: S_1  and  S_2
REMARK    2  A    between atoms: S_1  and  C_15
REMARK    3  A    between atoms: S_2  and  C_3
REMARK    4  A    between atoms: C_10  and  O_13
REMARK    5  A    between atoms: C_22  and  O_25
REMARK                            x       y       z     vdW  Elec       q    Type
REMARK                         _______ _______ _______ _____ _____    ______ ____
ROOT
ATOM      1  S   UNL     1      27.249  11.855  22.956  0.00  0.00    +0.000 S 
ENDROOT
BRANCH   1   2
ATOM      2  C   UNL     1      27.856  11.626  21.278  0.00  0.00    +0.000 A 
ATOM      3  C   UNL     1      28.396  12.709  20.541  0.00  0.00    +0.000 A 
ATOM      4  C   UNL     1      28.887  12.471  19.236  0.00  0.00    +0.000 A 
ATOM      5  C   UNL     1      28.488  14.019  21.041  0.00  0.00    +0.000 A 
ATOM      6  C   UNL     1      28.824  11.197  18.677  0.00  0.00    +0.000 A 
ATOM      7  C   UNL     1      29.447  13.508  18.490  0.00  0.00    +0.000 A 
ATOM      8  C   UNL     1      28.278  10.141  19.395  0.00  0.00    +0.000 A 
ATOM      9  C   UNL     1      27.801  10.355  20.684  0.00  0.00    +0.000 A 
ATOM     10  C   UNL     1      29.531  14.793  19.017  0.00  0.00    +0.000 A 
ATOM     11  C   UNL     1      29.050  15.051  20.293  0.00  0.00    +0.000 A 
BRANCH   9  12
ATOM     12  O   UNL     1      27.288   9.264  21.334  0.00  0.00    +0.000 OA
ATOM     13  H   UNL     1      27.889   8.514  21.175  0.00  0.00    +0.000 HD
ENDBRANCH   9  12
ENDBRANCH   1   2
BRANCH   1  14
ATOM     14  S   UNL     1      25.222  12.052  22.641  0.00  0.00    +0.000 S 
BRANCH  14  15
ATOM     15  C   UNL     1      24.547  11.202  24.074  0.00  0.00    +0.000 A 
ATOM     16  C   UNL     1      24.055  11.923  25.188  0.00  0.00    +0.000 A 
ATOM     17  C   UNL     1      23.508  11.208  26.280  0.00  0.00    +0.000 A 
ATOM     18  C   UNL     1      24.067  13.327  25.273  0.00  0.00    +0.000 A 
ATOM     19  C   UNL     1      23.469   9.817  26.265  0.00  0.00    +0.000 A 
ATOM     20  C   UNL     1      22.994  11.885  27.385  0.00  0.00    +0.000 A 
ATOM     21  C   UNL     1      23.966   9.109  25.176  0.00  0.00    +0.000 A 
ATOM     22  C   UNL     1      24.497   9.798  24.092  0.00  0.00    +0.000 A 
ATOM     23  C   UNL     1      23.011  13.277  27.434  0.00  0.00    +0.000 A 
ATOM     24  C   UNL     1      23.551  13.999  26.377  0.00  0.00    +0.000 A 
BRANCH  22  25
ATOM     25  O   UNL     1      24.959   9.034  23.052  0.00  0.00    +0.000 OA
ATOM     26  H   UNL     1      24.640   9.439  22.224  0.00  0.00    +0.000 HD
ENDBRANCH  22  25
ENDBRANCH  14  15
ENDBRANCH   1  14
TORSDOF 5
ENDMDL
MODEL 2
REMARK VINA RESULT:      -5.7     32.060     34.055
REMARK  Name = IPA3.pdbqt.pdb
REMARK  5 active torsions:
REMARK  status: ('A' for Active; 'I' for Inactive)
REMARK    1  A    between atoms: S_1  and  S_2
REMARK    2  A    between atoms: S_1  and  C_15
REMARK    3  A    between atoms: S_2  and  C_3
REMARK    4  A    between atoms: C_10  and  O_13
REMARK    5  A    between atoms: C_22  and  O_25
REMARK                            x       y       z     vdW  Elec       q    Type
REMARK                         _______ _______ _______ _____ _____    ______ ____
ROOT
ATOM      1  S   UNL     1      -3.703  29.652  14.073  0.00  0.00    +0.000 S 
ENDROOT
BRANCH   1   2
ATOM      2  C   UNL     1      -2.191  28.967  14.769  0.00  0.00    +0.000 A 
ATOM      3  C   UNL     1      -1.580  27.822  14.204  0.00  0.00    +0.000 A 
ATOM      4  C   UNL     1      -0.376  27.339  14.771  0.00  0.00    +0.000 A 
ATOM      5  C   UNL     1      -2.095  27.134  13.092  0.00  0.00    +0.000 A 
ATOM      6  C   UNL     1       0.188  27.969  15.877  0.00  0.00    +0.000 A 
ATOM      7  C   UNL     1       0.267  26.228  14.227  0.00  0.00    +0.000 A 
ATOM      8  C   UNL     1      -0.423  29.083  16.439  0.00  0.00    +0.000 A 
ATOM      9  C   UNL     1      -1.601  29.577  15.887  0.00  0.00    +0.000 A 
ATOM     10  C   UNL     1      -0.265  25.574  13.120  0.00  0.00    +0.000 A 
ATOM     11  C   UNL     1      -1.448  26.026  12.551  0.00  0.00    +0.000 A 
BRANCH   9  12
ATOM     12  O   UNL     1      -2.139  30.683  16.489  0.00  0.00    +0.000 OA
ATOM     13  H   UNL     1      -1.789  31.470  16.032  0.00  0.00    +0.000 HD
ENDBRANCH   9  12
ENDBRANCH   1   2
BRANCH   1  14
ATOM     14  S   UNL     1      -2.984  31.284  13.041  0.00  0.00    +0.000 S 
BRANCH  14  15
ATOM     15  C   UNL     1      -1.706  30.535  12.021  0.00  0.00    +0.000 A 
ATOM     16  C   UNL     1      -0.337  30.658  12.356  0.00  0.00    +0.000 A 
ATOM     17  C   UNL     1       0.629  30.027  11.536  0.00  0.00    +0.000 A 
ATOM     18  C   UNL     1       0.129  31.369  13.477  0.00  0.00    +0.000 A 
ATOM     19  C   UNL     1       0.239  29.311  10.408  0.00  0.00    +0.000 A 
ATOM     20  C   UNL     1       1.986  30.107  11.848  0.00  0.00    +0.000 A 
ATOM     21  C   UNL     1      -1.106  29.204  10.071  0.00  0.00    +0.000 A 
ATOM     22  C   UNL     1      -2.067  29.810  10.873  0.00  0.00    +0.000 A 
ATOM     23  C   UNL     1       2.414  30.811  12.971  0.00  0.00    +0.000 A 
ATOM     24  C   UNL     1       1.484  31.445  13.786  0.00  0.00    +0.000 A 
BRANCH  22  25
ATOM     25  O   UNL     1      -3.371  29.654  10.484  0.00  0.00    +0.000 OA
ATOM     26  H   UNL     1      -3.575  28.700  10.509  0.00  0.00    +0.000 HD
ENDBRANCH  22  25
ENDBRANCH  14  15
ENDBRANCH   1  14
TORSDOF 5
ENDMDL
MODEL 3
REMARK VINA RESULT:      -5.6      8.282     12.569
REMARK  Name = IPA3.pdbqt.pdb
REMARK  5 active torsions:
REMARK  status: ('A' for Active; 'I' for Inactive)
REMARK    1  A    between atoms: S_1  and  S_2
REMARK    2  A    between atoms: S_1  and  C_15
REMARK    3  A    between atoms: S_2  and  C_3
REMARK    4  A    between atoms: C_10  and  O_13
REMARK    5  A    between atoms: C_22  and  O_25
REMARK                            x       y       z     vdW  Elec       q    Type
REMARK                         _______ _______ _______ _____ _____    ______ ____
ROOT
ATOM      1  S   UNL     1      27.632  15.570  13.050  0.00  0.00    +0.000 S 
ENDROOT
BRANCH   1   2
ATOM      2  C   UNL     1      28.280  15.622  14.727  0.00  0.00    +0.000 A 
ATOM      3  C   UNL     1      28.486  14.433  15.469  0.00  0.00    +0.000 A 
ATOM      4  C   UNL     1      29.025  14.525  16.774  0.00  0.00    +0.000 A 
ATOM      5  C   UNL     1      28.197  13.149  14.975  0.00  0.00    +0.000 A 
ATOM      6  C   UNL     1      29.332  15.766  17.327  0.00  0.00    +0.000 A 
ATOM      7  C   UNL     1      29.264  13.375  17.525  0.00  0.00    +0.000 A 
ATOM      8  C   UNL     1      29.113  16.932  16.603  0.00  0.00    +0.000 A 
ATOM      9  C   UNL     1      28.594  16.858  15.315  0.00  0.00    +0.000 A 
ATOM     10  C   UNL     1      28.974  12.117  17.004  0.00  0.00    +0.000 A 
ATOM     11  C   UNL     1      28.438  12.003  15.728  0.00  0.00    +0.000 A 
BRANCH   9  12
ATOM     12  O   UNL     1      28.415  18.047  14.660  0.00  0.00    +0.000 OA
ATOM     13  H   UNL     1      27.715  18.540  15.125  0.00  0.00    +0.000 HD
ENDBRANCH   9  12
ENDBRANCH   1   2
BRANCH   1  14
ATOM     14  S   UNL     1      29.327  15.935  11.937  0.00  0.00    +0.000 S 
BRANCH  14  15
ATOM     15  C   UNL     1      29.189  14.691  10.646  0.00  0.00    +0.000 A 
ATOM     16  C   UNL     1      29.540  13.342  10.890  0.00  0.00    +0.000 A 
ATOM     17  C   UNL     1      29.388  12.395   9.850  0.00  0.00    +0.000 A 
ATOM     18  C   UNL     1      30.027  12.876  12.125  0.00  0.00    +0.000 A 
ATOM     19  C   UNL     1      28.917  12.788   8.600  0.00  0.00    +0.000 A 
ATOM     20  C   UNL     1      29.702  11.053  10.060  0.00  0.00    +0.000 A 
ATOM     21  C   UNL     1      28.587  14.116   8.357  0.00  0.00    +0.000 A 
ATOM     22  C   UNL     1      28.722  15.056   9.373  0.00  0.00    +0.000 A 
ATOM     23  C   UNL     1      30.172  10.622  11.298  0.00  0.00    +0.000 A 
ATOM     24  C   UNL     1      30.337  11.535  12.332  0.00  0.00    +0.000 A 
BRANCH  22  25
ATOM     25  O   UNL     1      28.369  16.343   9.062  0.00  0.00    +0.000 OA
ATOM     26  H   UNL     1      27.723  16.642   9.729  0.00  0.00    +0.000 HD
ENDBRANCH  22  25
ENDBRANCH  14  15
ENDBRANCH   1  14
TORSDOF 5
ENDMDL
MODEL 4
REMARK VINA RESULT:      -5.4     24.784     26.536
REMARK  Name = IPA3.pdbqt.pdb
REMARK  5 active torsions:
REMARK  status: ('A' for Active; 'I' for Inactive)
REMARK    1  A    between atoms: S_1  and  S_2
REMARK    2  A    between atoms: S_1  and  C_15
REMARK    3  A    between atoms: S_2  and  C_3
REMARK    4  A    between atoms: C_10  and  O_13
REMARK    5  A    between atoms: C_22  and  O_25
REMARK                            x       y       z     vdW  Elec       q    Type
REMARK                         _______ _______ _______ _____ _____    ______ ____
ROOT
ATOM      1  S   UNL     1      10.790  35.612  22.397  0.00  0.00    +0.000 S 
ENDROOT
BRANCH   1   2
ATOM      2  C   UNL     1      11.858  34.188  22.141  0.00  0.00    +0.000 A 
ATOM      3  C   UNL     1      12.545  33.999  20.916  0.00  0.00    +0.000 A 
ATOM      4  C   UNL     1      13.396  32.878  20.775  0.00  0.00    +0.000 A 
ATOM      5  C   UNL     1      12.441  34.878  19.824  0.00  0.00    +0.000 A 
ATOM      6  C   UNL     1      13.543  31.965  21.816  0.00  0.00    +0.000 A 
ATOM      7  C   UNL     1      14.106  32.673  19.592  0.00  0.00    +0.000 A 
ATOM      8  C   UNL     1      12.855  32.143  23.010  0.00  0.00    +0.000 A 
ATOM      9  C   UNL     1      12.023  33.246  23.169  0.00  0.00    +0.000 A 
ATOM     10  C   UNL     1      13.988  33.566  18.531  0.00  0.00    +0.000 A 
ATOM     11  C   UNL     1      13.154  34.669  18.645  0.00  0.00    +0.000 A 
BRANCH   9  12
ATOM     12  O   UNL     1      11.387  33.361  24.377  0.00  0.00    +0.000 OA
ATOM     13  H   UNL     1      12.052  33.623  25.039  0.00  0.00    +0.000 HD
ENDBRANCH   9  12
ENDBRANCH   1   2
BRANCH   1  14
ATOM     14  S   UNL     1      12.165  37.115  22.703  0.00  0.00    +0.000 S 
BRANCH  14  15
ATOM     15  C   UNL     1      13.443  36.256  23.632  0.00  0.00    +0.000 A 
ATOM     16  C   UNL     1      14.674  35.903  23.029  0.00  0.00    +0.000 A 
ATOM     17  C   UNL     1      15.658  35.253  23.809  0.00  0.00    +0.000 A 
ATOM     18  C   UNL     1      14.987  36.175  21.685  0.00  0.00    +0.000 A 
ATOM     19  C   UNL     1      15.413  34.949  25.145  0.00  0.00    +0.000 A 
ATOM     20  C   UNL     1      16.891  34.911  23.255  0.00  0.00    +0.000 A 
ATOM     21  C   UNL     1      14.198  35.282  25.732  0.00  0.00    +0.000 A 
ATOM     22  C   UNL     1      13.225  35.930  24.981  0.00  0.00    +0.000 A 
ATOM     23  C   UNL     1      17.175  35.202  21.924  0.00  0.00    +0.000 A 
ATOM     24  C   UNL     1      16.220  35.834  21.135  0.00  0.00    +0.000 A 
BRANCH  22  25
ATOM     25  O   UNL     1      12.057  36.235  25.629  0.00  0.00    +0.000 OA
ATOM     26  H   UNL     1      12.217  37.033  26.166  0.00  0.00    +0.000 HD
ENDBRANCH  22  25
ENDBRANCH  14  15
ENDBRANCH   1  14
TORSDOF 5
ENDMDL
MODEL 5
REMARK VINA RESULT:      -5.3     32.204     34.496
REMARK  Name = IPA3.pdbqt.pdb
REMARK  5 active torsions:
REMARK  status: ('A' for Active; 'I' for Inactive)
REMARK    1  A    between atoms: S_1  and  S_2
REMARK    2  A    between atoms: S_1  and  C_15
REMARK    3  A    between atoms: S_2  and  C_3
REMARK    4  A    between atoms: C_10  and  O_13
REMARK    5  A    between atoms: C_22  and  O_25
REMARK                            x       y       z     vdW  Elec       q    Type
REMARK                         _______ _______ _______ _____ _____    ______ ____
ROOT
ATOM      1  S   UNL     1      -5.121  29.460  15.250  0.00  0.00    +0.000 S 
ENDROOT
BRANCH   1   2
ATOM      2  C   UNL     1      -4.233  28.547  16.521  0.00  0.00    +0.000 A 
ATOM      3  C   UNL     1      -3.669  27.276  16.251  0.00  0.00    +0.000 A 
ATOM      4  C   UNL     1      -2.956  26.611  17.276  0.00  0.00    +0.000 A 
ATOM      5  C   UNL     1      -3.765  26.633  15.004  0.00  0.00    +0.000 A 
ATOM      6  C   UNL     1      -2.826  27.189  18.536  0.00  0.00    +0.000 A 
ATOM      7  C   UNL     1      -2.367  25.370  17.039  0.00  0.00    +0.000 A 
ATOM      8  C   UNL     1      -3.394  28.428  18.804  0.00  0.00    +0.000 A 
ATOM      9  C   UNL     1      -4.089  29.100  17.804  0.00  0.00    +0.000 A 
ATOM     10  C   UNL     1      -2.473  24.763  15.791  0.00  0.00    +0.000 A 
ATOM     11  C   UNL     1      -3.174  25.394  14.771  0.00  0.00    +0.000 A 
BRANCH   9  12
ATOM     12  O   UNL     1      -4.612  30.321  18.139  0.00  0.00    +0.000 OA
ATOM     13  H   UNL     1      -4.659  30.856  17.326  0.00  0.00    +0.000 HD
ENDBRANCH   9  12
ENDBRANCH   1   2
BRANCH   1  14
ATOM     14  S   UNL     1      -3.654  30.723  14.544  0.00  0.00    +0.000 S 
BRANCH  14  15
ATOM     15  C   UNL     1      -2.600  29.584  13.635  0.00  0.00    +0.000 A 
ATOM     16  C   UNL     1      -1.430  29.044  14.221  0.00  0.00    +0.000 A 
ATOM     17  C   UNL     1      -0.649  28.130  13.475  0.00  0.00    +0.000 A 
ATOM     18  C   UNL     1      -0.998  29.354  15.524  0.00  0.00    +0.000 A 
ATOM     19  C   UNL     1      -1.015  27.782  12.178  0.00  0.00    +0.000 A 
ATOM     20  C   UNL     1       0.497  27.560  14.028  0.00  0.00    +0.000 A 
ATOM     21  C   UNL     1      -2.155  28.326  11.598  0.00  0.00    +0.000 A 
ATOM     22  C   UNL     1      -2.939  29.217  12.323  0.00  0.00    +0.000 A 
ATOM     23  C   UNL     1       0.893  27.881  15.324  0.00  0.00    +0.000 A 
ATOM     24  C   UNL     1       0.145  28.781  16.073  0.00  0.00    +0.000 A 
BRANCH  22  25
ATOM     25  O   UNL     1      -4.052  29.704  11.689  0.00  0.00    +0.000 OA
ATOM     26  H   UNL     1      -4.634  28.947  11.491  0.00  0.00    +0.000 HD
ENDBRANCH  22  25
ENDBRANCH  14  15
ENDBRANCH   1  14
TORSDOF 5
ENDMDL
MODEL 6
REMARK VINA RESULT:      -5.3      7.949     11.277
REMARK  Name = IPA3.pdbqt.pdb
REMARK  5 active torsions:
REMARK  status: ('A' for Active; 'I' for Inactive)
REMARK    1  A    between atoms: S_1  and  S_2
REMARK    2  A    between atoms: S_1  and  C_15
REMARK    3  A    between atoms: S_2  and  C_3
REMARK    4  A    between atoms: C_10  and  O_13
REMARK    5  A    between atoms: C_22  and  O_25
REMARK                            x       y       z     vdW  Elec       q    Type
REMARK                         _______ _______ _______ _____ _____    ______ ____
ROOT
ATOM      1  S   UNL     1      29.320  17.174  17.231  0.00  0.00    +0.000 S 
ENDROOT
BRANCH   1   2
ATOM      2  C   UNL     1      28.745  15.975  16.019  0.00  0.00    +0.000 A 
ATOM      3  C   UNL     1      28.810  14.585  16.278  0.00  0.00    +0.000 A 
ATOM      4  C   UNL     1      28.319  13.684  15.304  0.00  0.00    +0.000 A 
ATOM      5  C   UNL     1      29.328  14.039  17.465  0.00  0.00    +0.000 A 
ATOM      6  C   UNL     1      27.796  14.156  14.103  0.00  0.00    +0.000 A 
ATOM      7  C   UNL     1      28.345  12.308  15.534  0.00  0.00    +0.000 A 
ATOM      8  C   UNL     1      27.748  15.520  13.845  0.00  0.00    +0.000 A 
ATOM      9  C   UNL     1      28.217  16.420  14.796  0.00  0.00    +0.000 A 
ATOM     10  C   UNL     1      28.856  11.799  16.724  0.00  0.00    +0.000 A 
ATOM     11  C   UNL     1      29.350  12.664  17.692  0.00  0.00    +0.000 A 
BRANCH   9  12
ATOM     12  O   UNL     1      28.129  17.748  14.475  0.00  0.00    +0.000 OA
ATOM     13  H   UNL     1      27.275  17.889  14.027  0.00  0.00    +0.000 HD
ENDBRANCH   9  12
ENDBRANCH   1   2
BRANCH   1  14
ATOM     14  S   UNL     1      30.930  18.012  16.256  0.00  0.00    +0.000 S 
BRANCH  14  15
ATOM     15  C   UNL     1      30.996  19.647  17.000  0.00  0.00    +0.000 A 
ATOM     16  C   UNL     1      30.313  20.743  16.421  0.00  0.00    +0.000 A 
ATOM     17  C   UNL     1      30.373  22.004  17.060  0.00  0.00    +0.000 A 
ATOM     18  C   UNL     1      29.558  20.651  15.238  0.00  0.00    +0.000 A 
ATOM     19  C   UNL     1      31.107  22.168  18.231  0.00  0.00    +0.000 A 
ATOM     20  C   UNL     1      29.695  23.101  16.531  0.00  0.00    +0.000 A 
ATOM     21  C   UNL     1      31.790  21.094  18.791  0.00  0.00    +0.000 A 
ATOM     22  C   UNL     1      31.732  19.847  18.180  0.00  0.00    +0.000 A 
ATOM     23  C   UNL     1      28.947  22.974  15.363  0.00  0.00    +0.000 A 
ATOM     24  C   UNL     1      28.880  21.748  14.713  0.00  0.00    +0.000 A 
BRANCH  22  25
ATOM     25  O   UNL     1      32.422  18.835  18.794  0.00  0.00    +0.000 OA
ATOM     26  H   UNL     1      33.371  18.976  18.619  0.00  0.00    +0.000 HD
ENDBRANCH  22  25
ENDBRANCH  14  15
ENDBRANCH   1  14
TORSDOF 5
ENDMDL
MODEL 7
REMARK VINA RESULT:      -5.3     31.641     33.770
REMARK  Name = IPA3.pdbqt.pdb
REMARK  5 active torsions:
REMARK  status: ('A' for Active; 'I' for Inactive)
REMARK    1  A    between atoms: S_1  and  S_2
REMARK    2  A    between atoms: S_1  and  C_15
REMARK    3  A    between atoms: S_2  and  C_3
REMARK    4  A    between atoms: C_10  and  O_13
REMARK    5  A    between atoms: C_22  and  O_25
REMARK                            x       y       z     vdW  Elec       q    Type
REMARK                         _______ _______ _______ _____ _____    ______ ____
ROOT
ATOM      1  S   UNL     1      -1.820  27.199  12.183  0.00  0.00    +0.000 S 
ENDROOT
BRANCH   1   2
ATOM      2  C   UNL     1      -1.942  26.156  13.643  0.00  0.00    +0.000 A 
ATOM      3  C   UNL     1      -3.052  26.248  14.517  0.00  0.00    +0.000 A 
ATOM      4  C   UNL     1      -3.115  25.385  15.637  0.00  0.00    +0.000 A 
ATOM      5  C   UNL     1      -4.116  27.147  14.330  0.00  0.00    +0.000 A 
ATOM      6  C   UNL     1      -2.093  24.472  15.885  0.00  0.00    +0.000 A 
ATOM      7  C   UNL     1      -4.205  25.430  16.506  0.00  0.00    +0.000 A 
ATOM      8  C   UNL     1      -0.997  24.395  15.035  0.00  0.00    +0.000 A 
ATOM      9  C   UNL     1      -0.925  25.229  13.924  0.00  0.00    +0.000 A 
ATOM     10  C   UNL     1      -5.247  26.327  16.288  0.00  0.00    +0.000 A 
ATOM     11  C   UNL     1      -5.203  27.188  15.200  0.00  0.00    +0.000 A 
BRANCH   9  12
ATOM     12  O   UNL     1       0.180  25.089  13.126  0.00  0.00    +0.000 OA
ATOM     13  H   UNL     1       0.476  24.163  13.191  0.00  0.00    +0.000 HD
ENDBRANCH   9  12
ENDBRANCH   1   2
BRANCH   1  14
ATOM     14  S   UNL     1      -0.357  28.536  12.748  0.00  0.00    +0.000 S 
BRANCH  14  15
ATOM     15  C   UNL     1      -0.753  28.797  14.482  0.00  0.00    +0.000 A 
ATOM     16  C   UNL     1      -1.841  29.614  14.869  0.00  0.00    +0.000 A 
ATOM     17  C   UNL     1      -2.129  29.766  16.246  0.00  0.00    +0.000 A 
ATOM     18  C   UNL     1      -2.674  30.285  13.955  0.00  0.00    +0.000 A 
ATOM     19  C   UNL     1      -1.343  29.135  17.206  0.00  0.00    +0.000 A 
ATOM     20  C   UNL     1      -3.208  30.545  16.664  0.00  0.00    +0.000 A 
ATOM     21  C   UNL     1      -0.265  28.345  16.825  0.00  0.00    +0.000 A 
ATOM     22  C   UNL     1       0.025  28.178  15.476  0.00  0.00    +0.000 A 
ATOM     23  C   UNL     1      -4.019  31.188  15.733  0.00  0.00    +0.000 A 
ATOM     24  C   UNL     1      -3.751  31.060  14.376  0.00  0.00    +0.000 A 
BRANCH  22  25
ATOM     25  O   UNL     1       1.096  27.378  15.177  0.00  0.00    +0.000 OA
ATOM     26  H   UNL     1       1.061  27.182  14.222  0.00  0.00    +0.000 HD
ENDBRANCH  22  25
ENDBRANCH  14  15
ENDBRANCH   1  14
TORSDOF 5
ENDMDL
MODEL 8
REMARK VINA RESULT:      -5.3     25.919     27.210
REMARK  Name = IPA3.pdbqt.pdb
REMARK  5 active torsions:
REMARK  status: ('A' for Active; 'I' for Inactive)
REMARK    1  A    between atoms: S_1  and  S_2
REMARK    2  A    between atoms: S_1  and  C_15
REMARK    3  A    between atoms: S_2  and  C_3
REMARK    4  A    between atoms: C_10  and  O_13
REMARK    5  A    between atoms: C_22  and  O_25
REMARK                            x       y       z     vdW  Elec       q    Type
REMARK                         _______ _______ _______ _____ _____    ______ ____
ROOT
ATOM      1  S   UNL     1       1.100  14.666  24.549  0.00  0.00    +0.000 S 
ENDROOT
BRANCH   1   2
ATOM      2  C   UNL     1       0.616  16.339  25.002  0.00  0.00    +0.000 A 
ATOM      3  C   UNL     1       0.415  16.701  26.356  0.00  0.00    +0.000 A 
ATOM      4  C   UNL     1       0.062  18.037  26.662  0.00  0.00    +0.000 A 
ATOM      5  C   UNL     1       0.559  15.805  27.430  0.00  0.00    +0.000 A 
ATOM      6  C   UNL     1      -0.101  18.976  25.647  0.00  0.00    +0.000 A 
ATOM      7  C   UNL     1      -0.121  18.436  27.986  0.00  0.00    +0.000 A 
ATOM      8  C   UNL     1       0.081  18.614  24.318  0.00  0.00    +0.000 A 
ATOM      9  C   UNL     1       0.438  17.307  24.001  0.00  0.00    +0.000 A 
ATOM     10  C   UNL     1       0.038  17.527  29.027  0.00  0.00    +0.000 A 
ATOM     11  C   UNL     1       0.377  16.209  28.750  0.00  0.00    +0.000 A 
BRANCH   9  12
ATOM     12  O   UNL     1       0.609  17.027  22.671  0.00  0.00    +0.000 OA
ATOM     13  H   UNL     1       1.411  17.492  22.371  0.00  0.00    +0.000 HD
ENDBRANCH   9  12
ENDBRANCH   1   2
BRANCH   1  14
ATOM     14  S   UNL     1      -0.732  13.750  24.325  0.00  0.00    +0.000 S 
BRANCH  14  15
ATOM     15  C   UNL     1      -0.635  13.150  22.633  0.00  0.00    +0.000 A 
ATOM     16  C   UNL     1      -0.163  11.847  22.344  0.00  0.00    +0.000 A 
ATOM     17  C   UNL     1      -0.132  11.412  20.999  0.00  0.00    +0.000 A 
ATOM     18  C   UNL     1       0.272  10.941  23.329  0.00  0.00    +0.000 A 
ATOM     19  C   UNL     1      -0.542  12.258  19.973  0.00  0.00    +0.000 A 
ATOM     20  C   UNL     1       0.306  10.127  20.678  0.00  0.00    +0.000 A 
ATOM     21  C   UNL     1      -0.991  13.543  20.256  0.00  0.00    +0.000 A 
ATOM     22  C   UNL     1      -1.037  13.981  21.575  0.00  0.00    +0.000 A 
ATOM     23  C   UNL     1       0.720   9.251  21.678  0.00  0.00    +0.000 A 
ATOM     24  C   UNL     1       0.706   9.659  23.006  0.00  0.00    +0.000 A 
BRANCH  22  25
ATOM     25  O   UNL     1      -1.499  15.255  21.777  0.00  0.00    +0.000 OA
ATOM     26  H   UNL     1      -2.407  15.188  22.127  0.00  0.00    +0.000 HD
ENDBRANCH  22  25
ENDBRANCH  14  15
ENDBRANCH   1  14
TORSDOF 5
ENDMDL
MODEL 9
REMARK VINA RESULT:      -5.1     27.076     27.708
REMARK  Name = IPA3.pdbqt.pdb
REMARK  5 active torsions:
REMARK  status: ('A' for Active; 'I' for Inactive)
REMARK    1  A    between atoms: S_1  and  S_2
REMARK    2  A    between atoms: S_1  and  C_15
REMARK    3  A    between atoms: S_2  and  C_3
REMARK    4  A    between atoms: C_10  and  O_13
REMARK    5  A    between atoms: C_22  and  O_25
REMARK                            x       y       z     vdW  Elec       q    Type
REMARK                         _______ _______ _______ _____ _____    ______ ____
ROOT
ATOM      1  S   UNL     1       6.689  12.814   2.066  0.00  0.00    +0.000 S 
ENDROOT
BRANCH   1   2
ATOM      2  C   UNL     1       7.987  11.810   2.804  0.00  0.00    +0.000 A 
ATOM      3  C   UNL     1       9.354  12.101   2.579  0.00  0.00    +0.000 A 
ATOM      4  C   UNL     1      10.337  11.299   3.205  0.00  0.00    +0.000 A 
ATOM      5  C   UNL     1       9.801  13.162   1.771  0.00  0.00    +0.000 A 
ATOM      6  C   UNL     1       9.966  10.229   4.016  0.00  0.00    +0.000 A 
ATOM      7  C   UNL     1      11.693  11.570   3.026  0.00  0.00    +0.000 A 
ATOM      8  C   UNL     1       8.624   9.935   4.221  0.00  0.00    +0.000 A 
ATOM      9  C   UNL     1       7.645  10.721   3.621  0.00  0.00    +0.000 A 
ATOM     10  C   UNL     1      12.103  12.633   2.227  0.00  0.00    +0.000 A 
ATOM     11  C   UNL     1      11.156  13.430   1.597  0.00  0.00    +0.000 A 
BRANCH   9  12
ATOM     12  O   UNL     1       6.344  10.377   3.878  0.00  0.00    +0.000 OA
ATOM     13  H   UNL     1       6.345   9.487   4.274  0.00  0.00    +0.000 HD
ENDBRANCH   9  12
ENDBRANCH   1   2
BRANCH   1  14
ATOM     14  S   UNL     1       6.858  14.566   3.138  0.00  0.00    +0.000 S 
BRANCH  14  15
ATOM     15  C   UNL     1       5.312  14.581   4.056  0.00  0.00    +0.000 A 
ATOM     16  C   UNL     1       4.231  15.401   3.654  0.00  0.00    +0.000 A 
ATOM     17  C   UNL     1       3.025  15.357   4.393  0.00  0.00    +0.000 A 
ATOM     18  C   UNL     1       4.278  16.261   2.542  0.00  0.00    +0.000 A 
ATOM     19  C   UNL     1       2.910  14.532   5.509  0.00  0.00    +0.000 A 
ATOM     20  C   UNL     1       1.931  16.134   4.014  0.00  0.00    +0.000 A 
ATOM     21  C   UNL     1       3.978  13.739   5.911  0.00  0.00    +0.000 A 
ATOM     22  C   UNL     1       5.166  13.764   5.189  0.00  0.00    +0.000 A 
ATOM     23  C   UNL     1       2.007  16.968   2.901  0.00  0.00    +0.000 A 
ATOM     24  C   UNL     1       3.183  17.034   2.165  0.00  0.00    +0.000 A 
BRANCH  22  25
ATOM     25  O   UNL     1       6.170  12.948   5.640  0.00  0.00    +0.000 OA
ATOM     26  H   UNL     1       6.838  12.884   4.932  0.00  0.00    +0.000 HD
ENDBRANCH  22  25
ENDBRANCH  14  15
ENDBRANCH   1  14
TORSDOF 5
ENDMDL
