MODEL 1
REMARK VINA RESULT:      -7.2      0.000      0.000
REMARK  Name = 
REMARK  8 active torsions:
REMARK  status: ('A' for Active; 'I' for Inactive)
REMARK    1  A    between atoms: O_1  and  C_21
REMARK    2  A    between atoms: O_1  and  C_38
REMARK    3  A    between atoms: O_4  and  C_26
REMARK    4  A    between atoms: N_7  and  C_11
REMARK    5  A    between atoms: C_26  and  C_33
REMARK    6  A    between atoms: C_29  and  C_37
REMARK    7  A    between atoms: C_33  and  C_42
REMARK    8  A    between atoms: C_37  and  C_43
REMARK                            x       y       z     vdW  Elec       q    Type
REMARK                         _______ _______ _______ _____ _____    ______ ____
ROOT
ATOM      1  O   UNL     1      20.916  22.238  29.224  0.00  0.00    +0.000 OA
ATOM      2  O   UNL     1      23.888  20.788  26.615  0.00  0.00    +0.000 OA
ATOM      3  O   UNL     1      18.859  21.716  29.963  0.00  0.00    +0.000 OA
ATOM      4  N   UNL     1      23.223  18.614  26.930  0.00  0.00    +0.000 N 
ATOM      5  N   UNL     1      22.236  15.204  27.444  0.00  0.00    +0.000 NA
ATOM      6  C   UNL     1      22.436  17.681  27.575  0.00  0.00    +0.000 A 
ATOM      7  C   UNL     1      23.769  16.522  26.096  0.00  0.00    +0.000 A 
ATOM      8  C   UNL     1      24.114  17.976  25.958  0.00  0.00    +0.000 C 
ATOM      9  C   UNL     1      21.411  19.461  28.836  0.00  0.00    +0.000 A 
ATOM     10  C   UNL     1      20.449  19.893  29.913  0.00  0.00    +0.000 C 
ATOM     11  C   UNL     1      22.777  16.361  27.056  0.00  0.00    +0.000 A 
ATOM     12  C   UNL     1      22.176  20.377  28.210  0.00  0.00    +0.000 A 
ATOM     13  C   UNL     1      24.273  15.402  25.449  0.00  0.00    +0.000 A 
ATOM     14  C   UNL     1      21.548  18.047  28.505  0.00  0.00    +0.000 A 
ATOM     15  C   UNL     1      23.176  19.961  27.175  0.00  0.00    +0.000 A 
ATOM     16  C   UNL     1      23.739  14.139  25.836  0.00  0.00    +0.000 A 
ATOM     17  C   UNL     1      22.101  21.833  28.508  0.00  0.00    +0.000 C 
ATOM     18  C   UNL     1      22.717  14.107  26.840  0.00  0.00    +0.000 A 
ATOM     19  C   UNL     1      20.002  21.354  29.679  0.00  0.00    +0.000 C 
ATOM     20  C   UNL     1      23.615  11.708  25.714  0.00  0.00    +0.000 A 
ATOM     21  C   UNL     1      24.168  12.912  25.282  0.00  0.00    +0.000 A 
ATOM     22  C   UNL     1      22.180  12.884  27.222  0.00  0.00    +0.000 A 
ATOM     23  C   UNL     1      22.611  11.680  26.666  0.00  0.00    +0.000 A 
ENDROOT
BRANCH  10  24
ATOM     24  O   UNL     1      19.288  19.052  29.859  0.00  0.00    +0.000 OA
ATOM     25  H   UNL     1      18.537  19.604  30.154  0.00  0.00    +0.000 HD
ENDBRANCH  10  24
BRANCH  10  26
ATOM     26  C   UNL     1      21.101  19.759  31.306  0.00  0.00    +0.000 C 
ATOM     27  C   UNL     1      20.268  18.982  32.322  0.00  0.00    +0.000 C 
ENDBRANCH  10  26
BRANCH  13  28
ATOM     28  C   UNL     1      25.360  15.560  24.413  0.00  0.00    +0.000 C 
ATOM     29  C   UNL     1      26.747  15.586  25.037  0.00  0.00    +0.000 C 
ENDBRANCH  13  28
BRANCH  20  30
ATOM     30  O   UNL     1      24.029  10.517  25.115  0.00  0.00    +0.000 OA
BRANCH  30  38
ATOM     31  O   UNL     1      25.836   9.915  26.434  0.00  0.00    +0.000 OA
ATOM     32  N   UNL     1      26.130  10.287  24.180  0.00  0.00    +0.000 N 
ATOM     33  C   UNL     1      27.908  11.378  22.128  0.00  0.00    +0.000 C 
ATOM     34  C   UNL     1      26.390  11.686  22.179  0.00  0.00    +0.000 C 
ATOM     35  C   UNL     1      28.384  11.037  23.564  0.00  0.00    +0.000 C 
ATOM     36  C   UNL     1      25.590  10.582  22.864  0.00  0.00    +0.000 C 
ATOM     37  C   UNL     1      27.539   9.947  24.215  0.00  0.00    +0.000 C 
ATOM     38  C   UNL     1      25.369  10.212  25.338  0.00  0.00    +0.000 C 
BRANCH  33  39
ATOM     39  N   UNL     1      28.691  12.508  21.536  0.00  0.00    +0.000 NA
ATOM     40  C   UNL     1      28.542  12.576  20.067  0.00  0.00    +0.000 C 
ATOM     41  C   UNL     1      28.338  13.810  22.138  0.00  0.00    +0.000 C 
ATOM     42  C   UNL     1      29.360  13.707  19.438  0.00  0.00    +0.000 C 
ATOM     43  C   UNL     1      29.150  14.972  21.562  0.00  0.00    +0.000 C 
ATOM     44  C   UNL     1      29.013  15.052  20.052  0.00  0.00    +0.000 C 
ENDBRANCH  33  39
ENDBRANCH  30  38
ENDBRANCH  20  30
TORSDOF 6
ENDMDL
MODEL 2
REMARK VINA RESULT:      -7.1     12.663     17.821
REMARK  Name = 
REMARK  8 active torsions:
REMARK  status: ('A' for Active; 'I' for Inactive)
REMARK    1  A    between atoms: O_1  and  C_21
REMARK    2  A    between atoms: O_1  and  C_38
REMARK    3  A    between atoms: O_4  and  C_26
REMARK    4  A    between atoms: N_7  and  C_11
REMARK    5  A    between atoms: C_26  and  C_33
REMARK    6  A    between atoms: C_29  and  C_37
REMARK    7  A    between atoms: C_33  and  C_42
REMARK    8  A    between atoms: C_37  and  C_43
REMARK                            x       y       z     vdW  Elec       q    Type
REMARK                         _______ _______ _______ _____ _____    ______ ____
ROOT
ATOM      1  O   UNL     1       8.183   9.519  30.873  0.00  0.00    +0.000 OA
ATOM      2  O   UNL     1       6.798  13.481  30.502  0.00  0.00    +0.000 OA
ATOM      3  O   UNL     1       9.988   8.267  30.399  0.00  0.00    +0.000 OA
ATOM      4  N   UNL     1       8.929  14.325  30.612  0.00  0.00    +0.000 N 
ATOM      5  N   UNL     1      12.245  15.675  30.831  0.00  0.00    +0.000 NA
ATOM      6  C   UNL     1      10.283  14.143  30.803  0.00  0.00    +0.000 A 
ATOM      7  C   UNL     1       9.958  16.394  30.432  0.00  0.00    +0.000 A 
ATOM      8  C   UNL     1       8.612  15.734  30.364  0.00  0.00    +0.000 C 
ATOM      9  C   UNL     1       9.894  11.784  31.102  0.00  0.00    +0.000 A 
ATOM     10  C   UNL     1      10.440  10.414  31.418  0.00  0.00    +0.000 C 
ATOM     11  C   UNL     1      10.937  15.442  30.694  0.00  0.00    +0.000 A 
ATOM     12  C   UNL     1       8.571  11.954  30.916  0.00  0.00    +0.000 A 
ATOM     13  C   UNL     1      10.328  17.724  30.287  0.00  0.00    +0.000 A 
ATOM     14  C   UNL     1      10.793  12.931  31.045  0.00  0.00    +0.000 A 
ATOM     15  C   UNL     1       8.003  13.315  30.653  0.00  0.00    +0.000 A 
ATOM     16  C   UNL     1      11.711  18.029  30.439  0.00  0.00    +0.000 A 
ATOM     17  C   UNL     1       7.594  10.832  30.976  0.00  0.00    +0.000 C 
ATOM     18  C   UNL     1      12.623  16.956  30.707  0.00  0.00    +0.000 A 
ATOM     19  C   UNL     1       9.518   9.321  30.832  0.00  0.00    +0.000 C 
ATOM     20  C   UNL     1      13.596  19.572  30.511  0.00  0.00    +0.000 A 
ATOM     21  C   UNL     1      12.233  19.337  30.340  0.00  0.00    +0.000 A 
ATOM     22  C   UNL     1      13.976  17.235  30.849  0.00  0.00    +0.000 A 
ATOM     23  C   UNL     1      14.479  18.532  30.747  0.00  0.00    +0.000 A 
ENDROOT
BRANCH  10  24
ATOM     24  O   UNL     1      11.735  10.283  30.816  0.00  0.00    +0.000 OA
ATOM     25  H   UNL     1      12.061  11.194  30.670  0.00  0.00    +0.000 HD
ENDBRANCH  10  24
BRANCH  10  26
ATOM     26  C   UNL     1      10.576  10.225  32.944  0.00  0.00    +0.000 C 
ATOM     27  C   UNL     1      12.007  10.015  33.431  0.00  0.00    +0.000 C 
ENDBRANCH  10  26
BRANCH  13  28
ATOM     28  C   UNL     1       9.274  18.769  30.016  0.00  0.00    +0.000 C 
ATOM     29  C   UNL     1       8.625  19.275  31.295  0.00  0.00    +0.000 C 
ENDBRANCH  13  28
BRANCH  20  30
ATOM     30  O   UNL     1      14.086  20.870  30.364  0.00  0.00    +0.000 OA
BRANCH  30  38
ATOM     31  O   UNL     1      14.381  21.470  32.582  0.00  0.00    +0.000 OA
ATOM     32  N   UNL     1      13.043  22.750  31.213  0.00  0.00    +0.000 N 
ATOM     33  C   UNL     1      10.596  24.344  31.041  0.00  0.00    +0.000 C 
ATOM     34  C   UNL     1      10.979  23.273  29.989  0.00  0.00    +0.000 C 
ATOM     35  C   UNL     1      11.264  23.967  32.387  0.00  0.00    +0.000 C 
ATOM     36  C   UNL     1      12.486  23.047  29.904  0.00  0.00    +0.000 C 
ATOM     37  C   UNL     1      12.764  23.727  32.247  0.00  0.00    +0.000 C 
ATOM     38  C   UNL     1      13.883  21.678  31.479  0.00  0.00    +0.000 C 
BRANCH  33  39
ATOM     39  N   UNL     1       9.112  24.491  31.178  0.00  0.00    +0.000 NA
ATOM     40  C   UNL     1       8.398  24.093  29.946  0.00  0.00    +0.000 C 
ATOM     41  C   UNL     1       8.580  23.738  32.333  0.00  0.00    +0.000 C 
ATOM     42  C   UNL     1       6.882  24.265  30.056  0.00  0.00    +0.000 C 
ATOM     43  C   UNL     1       7.068  23.900  32.503  0.00  0.00    +0.000 C 
ATOM     44  C   UNL     1       6.320  23.502  31.243  0.00  0.00    +0.000 C 
ENDBRANCH  33  39
ENDBRANCH  30  38
ENDBRANCH  20  30
TORSDOF 6
ENDMDL
MODEL 3
REMARK VINA RESULT:      -6.5     17.706     20.982
REMARK  Name = 
REMARK  8 active torsions:
REMARK  status: ('A' for Active; 'I' for Inactive)
REMARK    1  A    between atoms: O_1  and  C_21
REMARK    2  A    between atoms: O_1  and  C_38
REMARK    3  A    between atoms: O_4  and  C_26
REMARK    4  A    between atoms: N_7  and  C_11
REMARK    5  A    between atoms: C_26  and  C_33
REMARK    6  A    between atoms: C_29  and  C_37
REMARK    7  A    between atoms: C_33  and  C_42
REMARK    8  A    between atoms: C_37  and  C_43
REMARK                            x       y       z     vdW  Elec       q    Type
REMARK                         _______ _______ _______ _____ _____    ______ ____
ROOT
ATOM      1  O   UNL     1      13.897  36.005  23.439  0.00  0.00    +0.000 OA
ATOM      2  O   UNL     1      10.932  35.837  26.428  0.00  0.00    +0.000 OA
ATOM      3  O   UNL     1      15.793  34.969  22.825  0.00  0.00    +0.000 OA
ATOM      4  N   UNL     1      11.237  33.582  26.721  0.00  0.00    +0.000 N 
ATOM      5  N   UNL     1      11.659  30.047  27.165  0.00  0.00    +0.000 NA
ATOM      6  C   UNL     1      11.826  32.391  26.345  0.00  0.00    +0.000 A 
ATOM      7  C   UNL     1      10.442  31.918  28.125  0.00  0.00    +0.000 A 
ATOM      8  C   UNL     1      10.331  33.391  27.856  0.00  0.00    +0.000 C 
ATOM      9  C   UNL     1      13.016  33.562  24.608  0.00  0.00    +0.000 A 
ATOM     10  C   UNL     1      13.954  33.518  23.427  0.00  0.00    +0.000 C 
ATOM     11  C   UNL     1      11.328  31.340  27.224  0.00  0.00    +0.000 A 
ATOM     12  C   UNL     1      12.445  34.728  24.969  0.00  0.00    +0.000 A 
ATOM     13  C   UNL     1       9.822  31.118  29.075  0.00  0.00    +0.000 A 
ATOM     14  C   UNL     1      12.691  32.336  25.328  0.00  0.00    +0.000 A 
ATOM     15  C   UNL     1      11.470  34.783  26.105  0.00  0.00    +0.000 A 
ATOM     16  C   UNL     1      10.129  29.727  29.046  0.00  0.00    +0.000 A 
ATOM     17  C   UNL     1      12.718  36.014  24.271  0.00  0.00    +0.000 C 
ATOM     18  C   UNL     1      11.061  29.253  28.066  0.00  0.00    +0.000 A 
ATOM     19  C   UNL     1      14.632  34.893  23.229  0.00  0.00    +0.000 C 
ATOM     20  C   UNL     1       9.893  27.437  29.846  0.00  0.00    +0.000 A 
ATOM     21  C   UNL     1       9.561  28.788  29.934  0.00  0.00    +0.000 A 
ATOM     22  C   UNL     1      11.378  27.901  28.030  0.00  0.00    +0.000 A 
ATOM     23  C   UNL     1      10.811  26.984  28.914  0.00  0.00    +0.000 A 
ENDROOT
BRANCH  10  24
ATOM     24  O   UNL     1      14.975  32.544  23.687  0.00  0.00    +0.000 OA
ATOM     25  H   UNL     1      15.790  33.048  23.883  0.00  0.00    +0.000 HD
ENDBRANCH  10  24
BRANCH  10  26
ATOM     26  C   UNL     1      13.192  33.116  22.146  0.00  0.00    +0.000 C 
ATOM     27  C   UNL     1      13.905  32.078  21.285  0.00  0.00    +0.000 C 
ENDBRANCH  10  26
BRANCH  13  28
ATOM     28  C   UNL     1       8.847  31.731  30.051  0.00  0.00    +0.000 C 
ATOM     29  C   UNL     1       7.429  31.764  29.502  0.00  0.00    +0.000 C 
ENDBRANCH  13  28
BRANCH  20  30
ATOM     30  O   UNL     1       9.347  26.541  30.766  0.00  0.00    +0.000 OA
BRANCH  30  38
ATOM     31  O   UNL     1       7.074  26.584  30.324  0.00  0.00    +0.000 OA
ATOM     32  N   UNL     1       8.274  24.647  29.993  0.00  0.00    +0.000 N 
ATOM     33  C   UNL     1       8.245  21.728  30.198  0.00  0.00    +0.000 C 
ATOM     34  C   UNL     1       9.419  22.597  30.713  0.00  0.00    +0.000 C 
ATOM     35  C   UNL     1       6.956  22.589  30.219  0.00  0.00    +0.000 C 
ATOM     36  C   UNL     1       9.535  23.926  29.971  0.00  0.00    +0.000 C 
ATOM     37  C   UNL     1       7.128  23.916  29.487  0.00  0.00    +0.000 C 
ATOM     38  C   UNL     1       8.142  25.979  30.356  0.00  0.00    +0.000 C 
BRANCH  33  39
ATOM     39  N   UNL     1       8.086  20.469  30.993  0.00  0.00    +0.000 NA
ATOM     40  C   UNL     1       6.670  20.192  31.317  0.00  0.00    +0.000 C 
ATOM     41  C   UNL     1       8.684  19.301  30.315  0.00  0.00    +0.000 C 
ATOM     42  C   UNL     1       6.490  18.925  32.156  0.00  0.00    +0.000 C 
ATOM     43  C   UNL     1       8.554  18.010  31.128  0.00  0.00    +0.000 C 
ATOM     44  C   UNL     1       7.106  17.715  31.476  0.00  0.00    +0.000 C 
ENDBRANCH  33  39
ENDBRANCH  30  38
ENDBRANCH  20  30
TORSDOF 6
ENDMDL
MODEL 4
REMARK VINA RESULT:      -6.4      6.333     13.316
REMARK  Name = 
REMARK  8 active torsions:
REMARK  status: ('A' for Active; 'I' for Inactive)
REMARK    1  A    between atoms: O_1  and  C_21
REMARK    2  A    between atoms: O_1  and  C_38
REMARK    3  A    between atoms: O_4  and  C_26
REMARK    4  A    between atoms: N_7  and  C_11
REMARK    5  A    between atoms: C_26  and  C_33
REMARK    6  A    between atoms: C_29  and  C_37
REMARK    7  A    between atoms: C_33  and  C_42
REMARK    8  A    between atoms: C_37  and  C_43
REMARK                            x       y       z     vdW  Elec       q    Type
REMARK                         _______ _______ _______ _____ _____    ______ ____
ROOT
ATOM      1  O   UNL     1      23.755  13.430  26.461  0.00  0.00    +0.000 OA
ATOM      2  O   UNL     1      21.886  16.255  28.968  0.00  0.00    +0.000 OA
ATOM      3  O   UNL     1      24.386  13.169  24.321  0.00  0.00    +0.000 OA
ATOM      4  N   UNL     1      22.650  18.009  27.700  0.00  0.00    +0.000 N 
ATOM      5  N   UNL     1      23.871  20.772  25.765  0.00  0.00    +0.000 NA
ATOM      6  C   UNL     1      23.419  18.494  26.661  0.00  0.00    +0.000 A 
ATOM      7  C   UNL     1      22.406  20.314  27.648  0.00  0.00    +0.000 A 
ATOM      8  C   UNL     1      21.956  19.094  28.399  0.00  0.00    +0.000 C 
ATOM      9  C   UNL     1      24.102  16.240  26.153  0.00  0.00    +0.000 A 
ATOM     10  C   UNL     1      24.940  15.299  25.324  0.00  0.00    +0.000 C 
ATOM     11  C   UNL     1      23.271  19.945  26.625  0.00  0.00    +0.000 A 
ATOM     12  C   UNL     1      23.353  15.760  27.165  0.00  0.00    +0.000 A 
ATOM     13  C   UNL     1      22.103  21.656  27.829  0.00  0.00    +0.000 A 
ATOM     14  C   UNL     1      24.138  17.674  25.889  0.00  0.00    +0.000 A 
ATOM     15  C   UNL     1      22.555  16.683  28.033  0.00  0.00    +0.000 A 
ATOM     16  C   UNL     1      22.729  22.583  26.946  0.00  0.00    +0.000 A 
ATOM     17  C   UNL     1      23.281  14.312  27.501  0.00  0.00    +0.000 C 
ATOM     18  C   UNL     1      23.603  22.076  25.930  0.00  0.00    +0.000 A 
ATOM     19  C   UNL     1      24.315  13.886  25.320  0.00  0.00    +0.000 C 
ATOM     20  C   UNL     1      23.187  24.835  26.136  0.00  0.00    +0.000 A 
ATOM     21  C   UNL     1      22.535  23.980  27.021  0.00  0.00    +0.000 A 
ATOM     22  C   UNL     1      24.214  22.965  25.055  0.00  0.00    +0.000 A 
ATOM     23  C   UNL     1      24.012  24.343  25.139  0.00  0.00    +0.000 A 
ENDROOT
BRANCH  10  24
ATOM     24  O   UNL     1      24.974  15.782  23.973  0.00  0.00    +0.000 OA
ATOM     25  H   UNL     1      25.916  15.785  23.709  0.00  0.00    +0.000 HD
ENDBRANCH  10  24
BRANCH  10  26
ATOM     26  C   UNL     1      26.382  15.237  25.871  0.00  0.00    +0.000 C 
ATOM     27  C   UNL     1      27.345  16.234  25.232  0.00  0.00    +0.000 C 
ENDBRANCH  10  26
BRANCH  13  28
ATOM     28  C   UNL     1      21.176  22.072  28.945  0.00  0.00    +0.000 C 
ATOM     29  C   UNL     1      21.907  22.232  30.269  0.00  0.00    +0.000 C 
ENDBRANCH  13  28
BRANCH  20  30
ATOM     30  O   UNL     1      22.939  26.207  26.209  0.00  0.00    +0.000 OA
BRANCH  30  38
ATOM     31  O   UNL     1      24.641  26.558  27.741  0.00  0.00    +0.000 OA
ATOM     32  N   UNL     1      24.187  28.151  26.141  0.00  0.00    +0.000 N 
ATOM     33  C   UNL     1      24.021  31.016  25.570  0.00  0.00    +0.000 C 
ATOM     34  C   UNL     1      22.917  30.010  25.160  0.00  0.00    +0.000 C 
ATOM     35  C   UNL     1      24.771  30.442  26.799  0.00  0.00    +0.000 C 
ATOM     36  C   UNL     1      23.454  28.594  24.967  0.00  0.00    +0.000 C 
ATOM     37  C   UNL     1      25.268  29.018  26.567  0.00  0.00    +0.000 C 
ATOM     38  C   UNL     1      23.979  26.936  26.778  0.00  0.00    +0.000 C 
BRANCH  33  39
ATOM     39  N   UNL     1      23.467  32.379  25.844  0.00  0.00    +0.000 NA
ATOM     40  C   UNL     1      24.071  32.993  27.046  0.00  0.00    +0.000 C 
ATOM     41  C   UNL     1      23.616  33.286  24.687  0.00  0.00    +0.000 C 
ATOM     42  C   UNL     1      23.494  34.376  27.361  0.00  0.00    +0.000 C 
ATOM     43  C   UNL     1      23.029  34.677  24.942  0.00  0.00    +0.000 C 
ATOM     44  C   UNL     1      23.634  35.319  26.178  0.00  0.00    +0.000 C 
ENDBRANCH  33  39
ENDBRANCH  30  38
ENDBRANCH  20  30
TORSDOF 6
ENDMDL
MODEL 5
REMARK VINA RESULT:      -5.9     28.082     28.931
REMARK  Name = 
REMARK  8 active torsions:
REMARK  status: ('A' for Active; 'I' for Inactive)
REMARK    1  A    between atoms: O_1  and  C_21
REMARK    2  A    between atoms: O_1  and  C_38
REMARK    3  A    between atoms: O_4  and  C_26
REMARK    4  A    between atoms: N_7  and  C_11
REMARK    5  A    between atoms: C_26  and  C_33
REMARK    6  A    between atoms: C_29  and  C_37
REMARK    7  A    between atoms: C_33  and  C_42
REMARK    8  A    between atoms: C_37  and  C_43
REMARK                            x       y       z     vdW  Elec       q    Type
REMARK                         _______ _______ _______ _____ _____    ______ ____
ROOT
ATOM      1  O   UNL     1      -3.285  18.648  10.367  0.00  0.00    +0.000 OA
ATOM      2  O   UNL     1      -1.933  14.664  10.584  0.00  0.00    +0.000 OA
ATOM      3  O   UNL     1      -2.508  20.718   9.968  0.00  0.00    +0.000 OA
ATOM      4  N   UNL     1      -0.253  15.064   9.072  0.00  0.00    +0.000 N 
ATOM      5  N   UNL     1       2.351  15.648   6.675  0.00  0.00    +0.000 NA
ATOM      6  C   UNL     1       0.381  15.900   8.176  0.00  0.00    +0.000 A 
ATOM      7  C   UNL     1       1.533  13.904   8.156  0.00  0.00    +0.000 A 
ATOM      8  C   UNL     1       0.407  13.757   9.138  0.00  0.00    +0.000 C 
ATOM      9  C   UNL     1      -1.224  17.621   8.691  0.00  0.00    +0.000 A 
ATOM     10  C   UNL     1      -1.764  19.005   8.430  0.00  0.00    +0.000 C 
ATOM     11  C   UNL     1       1.505  15.175   7.594  0.00  0.00    +0.000 A 
ATOM     12  C   UNL     1      -1.848  16.810   9.568  0.00  0.00    +0.000 A 
ATOM     13  C   UNL     1       2.517  13.009   7.760  0.00  0.00    +0.000 A 
ATOM     14  C   UNL     1      -0.056  17.144   7.959  0.00  0.00    +0.000 A 
ATOM     15  C   UNL     1      -1.359  15.414   9.801  0.00  0.00    +0.000 A 
ATOM     16  C   UNL     1       3.437  13.459   6.770  0.00  0.00    +0.000 A 
ATOM     17  C   UNL     1      -3.053  17.224  10.337  0.00  0.00    +0.000 C 
ATOM     18  C   UNL     1       3.303  14.795   6.268  0.00  0.00    +0.000 A 
ATOM     19  C   UNL     1      -2.531  19.523   9.668  0.00  0.00    +0.000 C 
ATOM     20  C   UNL     1       5.338  13.151   5.276  0.00  0.00    +0.000 A 
ATOM     21  C   UNL     1       4.478  12.655   6.254  0.00  0.00    +0.000 A 
ATOM     22  C   UNL     1       4.197  15.252   5.309  0.00  0.00    +0.000 A 
ATOM     23  C   UNL     1       5.222  14.449   4.809  0.00  0.00    +0.000 A 
ENDROOT
BRANCH  10  24
ATOM     24  O   UNL     1      -0.662  19.889   8.179  0.00  0.00    +0.000 OA
ATOM     25  H   UNL     1      -0.665  20.061   7.216  0.00  0.00    +0.000 HD
ENDBRANCH  10  24
BRANCH  10  26
ATOM     26  C   UNL     1      -2.694  19.000   7.198  0.00  0.00    +0.000 C 
ATOM     27  C   UNL     1      -3.175  17.615   6.775  0.00  0.00    +0.000 C 
ENDBRANCH  10  26
BRANCH  13  28
ATOM     28  C   UNL     1       2.551  11.621   8.353  0.00  0.00    +0.000 C 
ATOM     29  C   UNL     1       3.470  11.536   9.563  0.00  0.00    +0.000 C 
ENDBRANCH  13  28
BRANCH  20  30
ATOM     30  O   UNL     1       6.382  12.346   4.819  0.00  0.00    +0.000 OA
BRANCH  30  38
ATOM     31  O   UNL     1       4.883  11.315   3.386  0.00  0.00    +0.000 OA
ATOM     32  N   UNL     1       7.146  10.992   3.109  0.00  0.00    +0.000 N 
ATOM     33  C   UNL     1       9.239   9.072   2.405  0.00  0.00    +0.000 C 
ATOM     34  C   UNL     1       9.326   9.996   3.646  0.00  0.00    +0.000 C 
ATOM     35  C   UNL     1       7.743   8.852   2.065  0.00  0.00    +0.000 C 
ATOM     36  C   UNL     1       8.521  11.282   3.477  0.00  0.00    +0.000 C 
ATOM     37  C   UNL     1       6.976  10.164   1.931  0.00  0.00    +0.000 C 
ATOM     38  C   UNL     1       6.037  11.535   3.741  0.00  0.00    +0.000 C 
BRANCH  33  39
ATOM     39  N   UNL     1       9.957   7.776   2.618  0.00  0.00    +0.000 NA
ATOM     40  C   UNL     1      11.384   7.979   2.946  0.00  0.00    +0.000 C 
ATOM     41  C   UNL     1       9.315   6.945   3.658  0.00  0.00    +0.000 C 
ATOM     42  C   UNL     1      12.144   6.664   3.137  0.00  0.00    +0.000 C 
ATOM     43  C   UNL     1      10.023   5.604   3.869  0.00  0.00    +0.000 C 
ATOM     44  C   UNL     1      11.492   5.795   4.200  0.00  0.00    +0.000 C 
ENDBRANCH  33  39
ENDBRANCH  30  38
ENDBRANCH  20  30
TORSDOF 6
ENDMDL
MODEL 6
REMARK VINA RESULT:      -5.7     20.169     24.882
REMARK  Name = 
REMARK  8 active torsions:
REMARK  status: ('A' for Active; 'I' for Inactive)
REMARK    1  A    between atoms: O_1  and  C_21
REMARK    2  A    between atoms: O_1  and  C_38
REMARK    3  A    between atoms: O_4  and  C_26
REMARK    4  A    between atoms: N_7  and  C_11
REMARK    5  A    between atoms: C_26  and  C_33
REMARK    6  A    between atoms: C_29  and  C_37
REMARK    7  A    between atoms: C_33  and  C_42
REMARK    8  A    between atoms: C_37  and  C_43
REMARK                            x       y       z     vdW  Elec       q    Type
REMARK                         _______ _______ _______ _____ _____    ______ ____
ROOT
ATOM      1  O   UNL     1      14.026  36.039  19.366  0.00  0.00    +0.000 OA
ATOM      2  O   UNL     1      10.762  36.850  21.902  0.00  0.00    +0.000 OA
ATOM      3  O   UNL     1      16.114  35.212  19.446  0.00  0.00    +0.000 OA
ATOM      4  N   UNL     1      11.346  35.156  23.335  0.00  0.00    +0.000 N 
ATOM      5  N   UNL     1      12.209  32.483  25.566  0.00  0.00    +0.000 NA
ATOM      6  C   UNL     1      12.142  34.074  23.654  0.00  0.00    +0.000 A 
ATOM      7  C   UNL     1      10.625  34.315  25.371  0.00  0.00    +0.000 A 
ATOM      8  C   UNL     1      10.340  35.399  24.372  0.00  0.00    +0.000 C 
ATOM      9  C   UNL     1      13.363  34.406  21.603  0.00  0.00    +0.000 A 
ATOM     10  C   UNL     1      14.440  33.948  20.651  0.00  0.00    +0.000 C 
ATOM     11  C   UNL     1      11.692  33.539  24.934  0.00  0.00    +0.000 A 
ATOM     12  C   UNL     1      12.590  35.463  21.286  0.00  0.00    +0.000 A 
ATOM     13  C   UNL     1      10.011  34.005  26.576  0.00  0.00    +0.000 A 
ATOM     14  C   UNL     1      13.128  33.676  22.844  0.00  0.00    +0.000 A 
ATOM     15  C   UNL     1      11.481  35.901  22.193  0.00  0.00    +0.000 A 
ATOM     16  C   UNL     1      10.515  32.876  27.285  0.00  0.00    +0.000 A 
ATOM     17  C   UNL     1      12.763  36.245  20.031  0.00  0.00    +0.000 C 
ATOM     18  C   UNL     1      11.621  32.156  26.727  0.00  0.00    +0.000 A 
ATOM     19  C   UNL     1      14.934  35.133  19.790  0.00  0.00    +0.000 C 
ATOM     20  C   UNL     1      10.509  31.307  29.150  0.00  0.00    +0.000 A 
ATOM     21  C   UNL     1       9.978  32.427  28.512  0.00  0.00    +0.000 A 
ATOM     22  C   UNL     1      12.130  31.059  27.410  0.00  0.00    +0.000 A 
ATOM     23  C   UNL     1      11.593  30.627  28.622  0.00  0.00    +0.000 A 
ENDROOT
BRANCH  10  24
ATOM     24  O   UNL     1      15.548  33.451  21.414  0.00  0.00    +0.000 OA
ATOM     25  H   UNL     1      15.462  32.476  21.416  0.00  0.00    +0.000 HD
ENDBRANCH  10  24
BRANCH  10  26
ATOM     26  C   UNL     1      13.911  32.820  19.740  0.00  0.00    +0.000 C 
ATOM     27  C   UNL     1      14.298  31.413  20.187  0.00  0.00    +0.000 C 
ENDBRANCH  10  26
BRANCH  13  28
ATOM     28  C   UNL     1       8.843  34.831  27.058  0.00  0.00    +0.000 C 
ATOM     29  C   UNL     1       7.509  34.150  26.790  0.00  0.00    +0.000 C 
ENDBRANCH  13  28
BRANCH  20  30
ATOM     30  O   UNL     1       9.984  30.915  30.382  0.00  0.00    +0.000 OA
BRANCH  30  38
ATOM     31  O   UNL     1       8.272  29.437  29.884  0.00  0.00    +0.000 OA
ATOM     32  N   UNL     1       7.788  31.485  30.819  0.00  0.00    +0.000 N 
ATOM     33  C   UNL     1       5.920  33.737  30.857  0.00  0.00    +0.000 C 
ATOM     34  C   UNL     1       7.457  33.918  30.780  0.00  0.00    +0.000 C 
ATOM     35  C   UNL     1       5.562  32.353  30.258  0.00  0.00    +0.000 C 
ATOM     36  C   UNL     1       8.218  32.747  31.397  0.00  0.00    +0.000 C 
ATOM     37  C   UNL     1       6.364  31.219  30.888  0.00  0.00    +0.000 C 
ATOM     38  C   UNL     1       8.651  30.518  30.326  0.00  0.00    +0.000 C 
BRANCH  33  39
ATOM     39  N   UNL     1       5.188  34.847  30.170  0.00  0.00    +0.000 NA
ATOM     40  C   UNL     1       6.097  35.938  29.755  0.00  0.00    +0.000 C 
ATOM     41  C   UNL     1       4.413  34.370  29.005  0.00  0.00    +0.000 C 
ATOM     42  C   UNL     1       5.363  37.098  29.078  0.00  0.00    +0.000 C 
ATOM     43  C   UNL     1       3.638  35.489  28.307  0.00  0.00    +0.000 C 
ATOM     44  C   UNL     1       4.555  36.622  27.882  0.00  0.00    +0.000 C 
ENDBRANCH  33  39
ENDBRANCH  30  38
ENDBRANCH  20  30
TORSDOF 6
ENDMDL
MODEL 7
REMARK VINA RESULT:      -5.7     16.329     21.745
REMARK  Name = 
REMARK  8 active torsions:
REMARK  status: ('A' for Active; 'I' for Inactive)
REMARK    1  A    between atoms: O_1  and  C_21
REMARK    2  A    between atoms: O_1  and  C_38
REMARK    3  A    between atoms: O_4  and  C_26
REMARK    4  A    between atoms: N_7  and  C_11
REMARK    5  A    between atoms: C_26  and  C_33
REMARK    6  A    between atoms: C_29  and  C_37
REMARK    7  A    between atoms: C_33  and  C_42
REMARK    8  A    between atoms: C_37  and  C_43
REMARK                            x       y       z     vdW  Elec       q    Type
REMARK                         _______ _______ _______ _____ _____    ______ ____
ROOT
ATOM      1  O   UNL     1      31.096   6.846  11.801  0.00  0.00    +0.000 OA
ATOM      2  O   UNL     1      28.173   6.538   8.783  0.00  0.00    +0.000 OA
ATOM      3  O   UNL     1      32.826   8.146  12.407  0.00  0.00    +0.000 OA
ATOM      4  N   UNL     1      28.171   8.807   8.437  0.00  0.00    +0.000 N 
ATOM      5  N   UNL     1      28.112  12.354   7.910  0.00  0.00    +0.000 NA
ATOM      6  C   UNL     1      28.588  10.075   8.789  0.00  0.00    +0.000 A 
ATOM      7  C   UNL     1      27.173  10.313   6.985  0.00  0.00    +0.000 A 
ATOM      8  C   UNL     1      27.261   8.845   7.289  0.00  0.00    +0.000 C 
ATOM      9  C   UNL     1      29.905   9.118  10.565  0.00  0.00    +0.000 A 
ATOM     10  C   UNL     1      30.814   9.318  11.752  0.00  0.00    +0.000 C 
ATOM     11  C   UNL     1      27.961  11.028   7.879  0.00  0.00    +0.000 A 
ATOM     12  C   UNL     1      29.502   7.877  10.227  0.00  0.00    +0.000 A 
ATOM     13  C   UNL     1      26.462  10.998   6.011  0.00  0.00    +0.000 A 
ATOM     14  C   UNL     1      29.424  10.271   9.812  0.00  0.00    +0.000 A 
ATOM     15  C   UNL     1      28.558   7.663   9.084  0.00  0.00    +0.000 A 
ATOM     16  C   UNL     1      26.576  12.419   6.008  0.00  0.00    +0.000 A 
ATOM     17  C   UNL     1      29.940   6.657  10.960  0.00  0.00    +0.000 C 
ATOM     18  C   UNL     1      27.422  13.038   6.984  0.00  0.00    +0.000 A 
ATOM     19  C   UNL     1      31.670   8.053  11.990  0.00  0.00    +0.000 C 
ATOM     20  C   UNL     1      26.039  14.636   5.150  0.00  0.00    +0.000 A 
ATOM     21  C   UNL     1      25.896  13.251   5.092  0.00  0.00    +0.000 A 
ATOM     22  C   UNL     1      27.552  14.421   6.990  0.00  0.00    +0.000 A 
ATOM     23  C   UNL     1      26.876  15.232   6.078  0.00  0.00    +0.000 A 
ENDROOT
BRANCH  10  24
ATOM     24  O   UNL     1      31.695  10.416  11.478  0.00  0.00    +0.000 OA
ATOM     25  H   UNL     1      32.314  10.103  10.787  0.00  0.00    +0.000 HD
ENDBRANCH  10  24
BRANCH  10  26
ATOM     26  C   UNL     1      29.988   9.641  13.016  0.00  0.00    +0.000 C 
ATOM     27  C   UNL     1      30.487  10.848  13.805  0.00  0.00    +0.000 C 
ENDBRANCH  10  26
BRANCH  13  28
ATOM     28  C   UNL     1      25.592  10.236   5.041  0.00  0.00    +0.000 C 
ATOM     29  C   UNL     1      26.357   9.808   3.797  0.00  0.00    +0.000 C 
ENDBRANCH  13  28
BRANCH  20  30
ATOM     30  O   UNL     1      25.388  15.427   4.203  0.00  0.00    +0.000 OA
BRANCH  30  38
ATOM     31  O   UNL     1      23.417  16.059   5.242  0.00  0.00    +0.000 OA
ATOM     32  N   UNL     1      23.352  14.712   3.375  0.00  0.00    +0.000 N 
ATOM     33  C   UNL     1      22.019  12.455   2.075  0.00  0.00    +0.000 C 
ATOM     34  C   UNL     1      23.560  12.584   2.168  0.00  0.00    +0.000 C 
ATOM     35  C   UNL     1      21.393  13.239   3.257  0.00  0.00    +0.000 C 
ATOM     36  C   UNL     1      24.022  14.034   2.278  0.00  0.00    +0.000 C 
ATOM     37  C   UNL     1      21.903  14.674   3.341  0.00  0.00    +0.000 C 
ATOM     38  C   UNL     1      24.004  15.454   4.349  0.00  0.00    +0.000 C 
BRANCH  33  39
ATOM     39  N   UNL     1      21.575  11.025   2.058  0.00  0.00    +0.000 NA
ATOM     40  C   UNL     1      22.601  10.132   1.479  0.00  0.00    +0.000 C 
ATOM     41  C   UNL     1      21.190  10.544   3.401  0.00  0.00    +0.000 C 
ATOM     42  C   UNL     1      22.153   8.669   1.425  0.00  0.00    +0.000 C 
ATOM     43  C   UNL     1      20.707   9.091   3.396  0.00  0.00    +0.000 C 
ATOM     44  C   UNL     1      21.747   8.161   2.797  0.00  0.00    +0.000 C 
ENDBRANCH  33  39
ENDBRANCH  30  38
ENDBRANCH  20  30
TORSDOF 6
ENDMDL
MODEL 8
REMARK VINA RESULT:      -5.7     24.533     26.548
REMARK  Name = 
REMARK  8 active torsions:
REMARK  status: ('A' for Active; 'I' for Inactive)
REMARK    1  A    between atoms: O_1  and  C_21
REMARK    2  A    between atoms: O_1  and  C_38
REMARK    3  A    between atoms: O_4  and  C_26
REMARK    4  A    between atoms: N_7  and  C_11
REMARK    5  A    between atoms: C_26  and  C_33
REMARK    6  A    between atoms: C_29  and  C_37
REMARK    7  A    between atoms: C_33  and  C_42
REMARK    8  A    between atoms: C_37  and  C_43
REMARK                            x       y       z     vdW  Elec       q    Type
REMARK                         _______ _______ _______ _____ _____    ______ ____
ROOT
ATOM      1  O   UNL     1      10.898  21.353  -0.075  0.00  0.00    +0.000 OA
ATOM      2  O   UNL     1      14.097  19.297   1.739  0.00  0.00    +0.000 OA
ATOM      3  O   UNL     1       9.117  20.966  -1.390  0.00  0.00    +0.000 OA
ATOM      4  N   UNL     1      12.881  17.355   1.875  0.00  0.00    +0.000 N 
ATOM      5  N   UNL     1      10.987  14.321   2.146  0.00  0.00    +0.000 NA
ATOM      6  C   UNL     1      11.692  16.670   1.723  0.00  0.00    +0.000 A 
ATOM      7  C   UNL     1      13.233  15.161   2.536  0.00  0.00    +0.000 A 
ATOM      8  C   UNL     1      13.937  16.479   2.391  0.00  0.00    +0.000 C 
ATOM      9  C   UNL     1      10.663  18.694   0.916  0.00  0.00    +0.000 A 
ATOM     10  C   UNL     1       9.426  19.413   0.440  0.00  0.00    +0.000 C 
ATOM     11  C   UNL     1      11.907  15.288   2.139  0.00  0.00    +0.000 A 
ATOM     12  C   UNL     1      11.820  19.369   1.063  0.00  0.00    +0.000 A 
ATOM     13  C   UNL     1      13.691  13.931   2.985  0.00  0.00    +0.000 A 
ATOM     14  C   UNL     1      10.595  17.279   1.264  0.00  0.00    +0.000 A 
ATOM     15  C   UNL     1      13.045  18.684   1.585  0.00  0.00    +0.000 A 
ATOM     16  C   UNL     1      12.744  12.866   3.027  0.00  0.00    +0.000 A 
ATOM     17  C   UNL     1      11.958  20.816   0.743  0.00  0.00    +0.000 C 
ATOM     18  C   UNL     1      11.405  13.125   2.589  0.00  0.00    +0.000 A 
ATOM     19  C   UNL     1       9.816  20.629  -0.432  0.00  0.00    +0.000 C 
ATOM     20  C   UNL     1      12.083  10.571   3.507  0.00  0.00    +0.000 A 
ATOM     21  C   UNL     1      13.058  11.566   3.479  0.00  0.00    +0.000 A 
ATOM     22  C   UNL     1      10.472  12.096   2.614  0.00  0.00    +0.000 A 
ATOM     23  C   UNL     1      10.795  10.815   3.062  0.00  0.00    +0.000 A 
ENDROOT
BRANCH  10  24
ATOM     24  O   UNL     1       8.649  18.513  -0.362  0.00  0.00    +0.000 OA
ATOM     25  H   UNL     1       8.866  17.612  -0.048  0.00  0.00    +0.000 HD
ENDBRANCH  10  24
BRANCH  10  26
ATOM     26  C   UNL     1       8.574  19.878   1.640  0.00  0.00    +0.000 C 
ATOM     27  C   UNL     1       7.077  19.963   1.359  0.00  0.00    +0.000 C 
ENDBRANCH  10  26
BRANCH  13  28
ATOM     28  C   UNL     1      15.125  13.782   3.432  0.00  0.00    +0.000 C 
ATOM     29  C   UNL     1      16.048  13.406   2.283  0.00  0.00    +0.000 C 
ENDBRANCH  13  28
BRANCH  20  30
ATOM     30  O   UNL     1      12.435   9.285   3.919  0.00  0.00    +0.000 OA
BRANCH  30  38
ATOM     31  O   UNL     1      12.339   8.080   1.943  0.00  0.00    +0.000 OA
ATOM     32  N   UNL     1      14.322   8.228   3.104  0.00  0.00    +0.000 N 
ATOM     33  C   UNL     1      16.746   6.811   3.925  0.00  0.00    +0.000 C 
ATOM     34  C   UNL     1      15.886   7.646   4.906  0.00  0.00    +0.000 C 
ATOM     35  C   UNL     1      15.835   6.325   2.769  0.00  0.00    +0.000 C 
ATOM     36  C   UNL     1      15.109   8.757   4.205  0.00  0.00    +0.000 C 
ATOM     37  C   UNL     1      15.062   7.467   2.117  0.00  0.00    +0.000 C 
ATOM     38  C   UNL     1      12.976   8.498   2.906  0.00  0.00    +0.000 C 
BRANCH  33  39
ATOM     39  N   UNL     1      17.432   5.669   4.610  0.00  0.00    +0.000 NA
ATOM     40  C   UNL     1      17.689   4.543   3.688  0.00  0.00    +0.000 C 
ATOM     41  C   UNL     1      18.692   6.084   5.262  0.00  0.00    +0.000 C 
ATOM     42  C   UNL     1      18.362   3.353   4.377  0.00  0.00    +0.000 C 
ATOM     43  C   UNL     1      19.391   4.933   5.990  0.00  0.00    +0.000 C 
ATOM     44  C   UNL     1      19.656   3.763   5.058  0.00  0.00    +0.000 C 
ENDBRANCH  33  39
ENDBRANCH  30  38
ENDBRANCH  20  30
TORSDOF 6
ENDMDL
MODEL 9
REMARK VINA RESULT:      -5.7     19.505     23.365
REMARK  Name = 
REMARK  8 active torsions:
REMARK  status: ('A' for Active; 'I' for Inactive)
REMARK    1  A    between atoms: O_1  and  C_21
REMARK    2  A    between atoms: O_1  and  C_38
REMARK    3  A    between atoms: O_4  and  C_26
REMARK    4  A    between atoms: N_7  and  C_11
REMARK    5  A    between atoms: C_26  and  C_33
REMARK    6  A    between atoms: C_29  and  C_37
REMARK    7  A    between atoms: C_33  and  C_42
REMARK    8  A    between atoms: C_37  and  C_43
REMARK                            x       y       z     vdW  Elec       q    Type
REMARK                         _______ _______ _______ _____ _____    ______ ____
ROOT
ATOM      1  O   UNL     1      18.098  28.053   1.655  0.00  0.00    +0.000 OA
ATOM      2  O   UNL     1      21.335  25.502   0.782  0.00  0.00    +0.000 OA
ATOM      3  O   UNL     1      17.025  28.945   3.416  0.00  0.00    +0.000 OA
ATOM      4  N   UNL     1      22.439  26.109   2.701  0.00  0.00    +0.000 N 
ATOM      5  N   UNL     1      24.209  27.077   5.666  0.00  0.00    +0.000 NA
ATOM      6  C   UNL     1      22.540  26.898   3.828  0.00  0.00    +0.000 A 
ATOM      7  C   UNL     1      24.379  25.510   3.818  0.00  0.00    +0.000 A 
ATOM      8  C   UNL     1      23.568  25.180   2.598  0.00  0.00    +0.000 C 
ATOM      9  C   UNL     1      20.475  27.981   3.221  0.00  0.00    +0.000 A 
ATOM     10  C   UNL     1      19.441  29.042   3.501  0.00  0.00    +0.000 C 
ATOM     11  C   UNL     1      23.761  26.527   4.535  0.00  0.00    +0.000 A 
ATOM     12  C   UNL     1      20.370  27.214   2.118  0.00  0.00    +0.000 A 
ATOM     13  C   UNL     1      25.574  24.980   4.285  0.00  0.00    +0.000 A 
ATOM     14  C   UNL     1      21.614  27.817   4.117  0.00  0.00    +0.000 A 
ATOM     15  C   UNL     1      21.414  26.191   1.794  0.00  0.00    +0.000 A 
ATOM     16  C   UNL     1      26.103  25.542   5.483  0.00  0.00    +0.000 A 
ATOM     17  C   UNL     1      19.244  27.336   1.152  0.00  0.00    +0.000 C 
ATOM     18  C   UNL     1      25.370  26.589   6.129  0.00  0.00    +0.000 A 
ATOM     19  C   UNL     1      18.087  28.654   2.864  0.00  0.00    +0.000 C 
ATOM     20  C   UNL     1      27.790  25.721   7.233  0.00  0.00    +0.000 A 
ATOM     21  C   UNL     1      27.319  25.121   6.066  0.00  0.00    +0.000 A 
ATOM     22  C   UNL     1      25.867  27.142   7.303  0.00  0.00    +0.000 A 
ATOM     23  C   UNL     1      27.068  26.716   7.870  0.00  0.00    +0.000 A 
ENDROOT
BRANCH  10  24
ATOM     24  O   UNL     1      19.259  29.145   4.920  0.00  0.00    +0.000 OA
ATOM     25  H   UNL     1      18.312  28.969   5.088  0.00  0.00    +0.000 HD
ENDBRANCH  10  24
BRANCH  10  26
ATOM     26  C   UNL     1      19.907  30.409   2.956  0.00  0.00    +0.000 C 
ATOM     27  C   UNL     1      20.137  31.472   4.026  0.00  0.00    +0.000 C 
ENDBRANCH  10  26
BRANCH  13  28
ATOM     28  C   UNL     1      26.262  23.883   3.510  0.00  0.00    +0.000 C 
ATOM     29  C   UNL     1      25.800  22.499   3.939  0.00  0.00    +0.000 C 
ENDBRANCH  13  28
BRANCH  20  30
ATOM     30  O   UNL     1      28.972  25.252   7.808  0.00  0.00    +0.000 OA
BRANCH  30  38
ATOM     31  O   UNL     1      28.012  23.246   8.457  0.00  0.00    +0.000 OA
ATOM     32  N   UNL     1      29.580  24.261   9.805  0.00  0.00    +0.000 N 
ATOM     33  C   UNL     1      30.374  24.846  12.560  0.00  0.00    +0.000 C 
ATOM     34  C   UNL     1      30.358  25.918  11.441  0.00  0.00    +0.000 C 
ATOM     35  C   UNL     1      29.347  23.744  12.193  0.00  0.00    +0.000 C 
ATOM     36  C   UNL     1      30.545  25.319  10.050  0.00  0.00    +0.000 C 
ATOM     37  C   UNL     1      29.560  23.194  10.787  0.00  0.00    +0.000 C 
ATOM     38  C   UNL     1      28.789  24.173   8.669  0.00  0.00    +0.000 C 
BRANCH  33  39
ATOM     39  N   UNL     1      30.099  25.436  13.908  0.00  0.00    +0.000 NA
ATOM     40  C   UNL     1      29.676  26.850  13.820  0.00  0.00    +0.000 C 
ATOM     41  C   UNL     1      29.096  24.658  14.665  0.00  0.00    +0.000 C 
ATOM     42  C   UNL     1      29.420  27.481  15.191  0.00  0.00    +0.000 C 
ATOM     43  C   UNL     1      28.824  25.233  16.057  0.00  0.00    +0.000 C 
ATOM     44  C   UNL     1      28.396  26.688  15.985  0.00  0.00    +0.000 C 
ENDBRANCH  33  39
ENDBRANCH  30  38
ENDBRANCH  20  30
TORSDOF 6
ENDMDL
