MODEL 1
REMARK VINA RESULT:      -7.7      0.000      0.000
REMARK  Name = 
REMARK  8 active torsions:
REMARK  status: ('A' for Active; 'I' for Inactive)
REMARK    1  A    between atoms: O_1  and  C_21
REMARK    2  A    between atoms: O_1  and  C_38
REMARK    3  A    between atoms: O_4  and  C_26
REMARK    4  A    between atoms: N_7  and  C_11
REMARK    5  A    between atoms: C_26  and  C_33
REMARK    6  A    between atoms: C_29  and  C_37
REMARK    7  A    between atoms: C_33  and  C_42
REMARK    8  A    between atoms: C_37  and  C_43
REMARK                            x       y       z     vdW  Elec       q    Type
REMARK                         _______ _______ _______ _____ _____    ______ ____
ROOT
ATOM      1  O   UNL     1       6.638  26.303  30.555  0.00  0.00    +0.000 OA
ATOM      2  O   UNL     1       4.994  22.711  32.017  0.00  0.00    +0.000 OA
ATOM      3  O   UNL     1       8.632  27.226  30.082  0.00  0.00    +0.000 OA
ATOM      4  N   UNL     1       6.741  21.475  31.186  0.00  0.00    +0.000 N 
ATOM      5  N   UNL     1       9.434  19.515  29.857  0.00  0.00    +0.000 NA
ATOM      6  C   UNL     1       7.901  21.385  30.445  0.00  0.00    +0.000 A 
ATOM      7  C   UNL     1       7.449  19.269  31.236  0.00  0.00    +0.000 A 
ATOM      8  C   UNL     1       6.362  20.173  31.741  0.00  0.00    +0.000 C 
ATOM      9  C   UNL     1       7.759  23.747  29.990  0.00  0.00    +0.000 A 
ATOM     10  C   UNL     1       8.309  24.963  29.288  0.00  0.00    +0.000 C 
ATOM     11  C   UNL     1       8.351  19.998  30.471  0.00  0.00    +0.000 A 
ATOM     12  C   UNL     1       6.625  23.843  30.712  0.00  0.00    +0.000 A 
ATOM     13  C   UNL     1       7.654  17.908  31.412  0.00  0.00    +0.000 A 
ATOM     14  C   UNL     1       8.428  22.459  29.848  0.00  0.00    +0.000 A 
ATOM     15  C   UNL     1       6.035  22.635  31.373  0.00  0.00    +0.000 A 
ATOM     16  C   UNL     1       8.788  17.338  30.765  0.00  0.00    +0.000 A 
ATOM     17  C   UNL     1       5.882  25.120  30.887  0.00  0.00    +0.000 C 
ATOM     18  C   UNL     1       9.644  18.197  30.003  0.00  0.00    +0.000 A 
ATOM     19  C   UNL     1       7.881  26.250  30.030  0.00  0.00    +0.000 C 
ATOM     20  C   UNL     1      10.232  15.467  30.168  0.00  0.00    +0.000 A 
ATOM     21  C   UNL     1       9.114  15.965  30.835  0.00  0.00    +0.000 A 
ATOM     22  C   UNL     1      10.760  17.660  29.373  0.00  0.00    +0.000 A 
ATOM     23  C   UNL     1      11.072  16.302  29.452  0.00  0.00    +0.000 A 
ENDROOT
BRANCH  10  24
ATOM     24  O   UNL     1       9.741  24.892  29.296  0.00  0.00    +0.000 OA
ATOM     25  H   UNL     1      10.045  25.585  29.916  0.00  0.00    +0.000 HD
ENDBRANCH  10  24
BRANCH  10  26
ATOM     26  C   UNL     1       7.818  25.011  27.825  0.00  0.00    +0.000 C 
ATOM     27  C   UNL     1       8.735  25.775  26.874  0.00  0.00    +0.000 C 
ENDBRANCH  10  26
BRANCH  13  28
ATOM     28  C   UNL     1       6.675  17.101  32.230  0.00  0.00    +0.000 C 
ATOM     29  C   UNL     1       7.037  17.086  33.707  0.00  0.00    +0.000 C 
ENDBRANCH  13  28
BRANCH  20  30
ATOM     30  O   UNL     1      10.550  14.114  30.293  0.00  0.00    +0.000 OA
BRANCH  30  38
ATOM     31  O   UNL     1      11.296  14.023  32.484  0.00  0.00    +0.000 OA
ATOM     32  N   UNL     1       9.531  12.703  31.813  0.00  0.00    +0.000 N 
ATOM     33  C   UNL     1       8.236  10.093  32.077  0.00  0.00    +0.000 C 
ATOM     34  C   UNL     1       8.507  10.765  30.707  0.00  0.00    +0.000 C 
ATOM     35  C   UNL     1       9.276  10.626  33.095  0.00  0.00    +0.000 C 
ATOM     36  C   UNL     1       8.573  12.287  30.803  0.00  0.00    +0.000 C 
ATOM     37  C   UNL     1       9.324  12.149  33.137  0.00  0.00    +0.000 C 
ATOM     38  C   UNL     1      10.525  13.649  31.605  0.00  0.00    +0.000 C 
BRANCH  33  39
ATOM     39  N   UNL     1       8.263   8.599  31.985  0.00  0.00    +0.000 NA
ATOM     40  C   UNL     1       8.910   8.131  30.740  0.00  0.00    +0.000 C 
ATOM     41  C   UNL     1       8.918   7.978  33.155  0.00  0.00    +0.000 C 
ATOM     42  C   UNL     1       8.920   6.606  30.612  0.00  0.00    +0.000 C 
ATOM     43  C   UNL     1       8.929   6.449  33.088  0.00  0.00    +0.000 C 
ATOM     44  C   UNL     1       9.584   5.951  31.812  0.00  0.00    +0.000 C 
ENDBRANCH  33  39
ENDBRANCH  30  38
ENDBRANCH  20  30
TORSDOF 6
ENDMDL
MODEL 2
REMARK VINA RESULT:      -7.3     20.426     24.384
REMARK  Name = 
REMARK  8 active torsions:
REMARK  status: ('A' for Active; 'I' for Inactive)
REMARK    1  A    between atoms: O_1  and  C_21
REMARK    2  A    between atoms: O_1  and  C_38
REMARK    3  A    between atoms: O_4  and  C_26
REMARK    4  A    between atoms: N_7  and  C_11
REMARK    5  A    between atoms: C_26  and  C_33
REMARK    6  A    between atoms: C_29  and  C_37
REMARK    7  A    between atoms: C_33  and  C_42
REMARK    8  A    between atoms: C_37  and  C_43
REMARK                            x       y       z     vdW  Elec       q    Type
REMARK                         _______ _______ _______ _____ _____    ______ ____
ROOT
ATOM      1  O   UNL     1      -0.656  28.148  12.485  0.00  0.00    +0.000 OA
ATOM      2  O   UNL     1       1.038  31.414  10.431  0.00  0.00    +0.000 OA
ATOM      3  O   UNL     1      -0.100  26.577  13.991  0.00  0.00    +0.000 OA
ATOM      4  N   UNL     1       2.511  31.832  12.140  0.00  0.00    +0.000 N 
ATOM      5  N   UNL     1       4.792  32.539  14.818  0.00  0.00    +0.000 NA
ATOM      6  C   UNL     1       2.976  31.575  13.414  0.00  0.00    +0.000 A 
ATOM      7  C   UNL     1       4.281  33.269  12.557  0.00  0.00    +0.000 A 
ATOM      8  C   UNL     1       3.281  32.902  11.500  0.00  0.00    +0.000 C 
ATOM      9  C   UNL     1       1.296  29.864  13.650  0.00  0.00    +0.000 A 
ATOM     10  C   UNL     1       0.619  28.827  14.511  0.00  0.00    +0.000 C 
ATOM     11  C   UNL     1       4.089  32.478  13.683  0.00  0.00    +0.000 A 
ATOM     12  C   UNL     1       0.837  30.110  12.407  0.00  0.00    +0.000 A 
ATOM     13  C   UNL     1       5.290  34.223  12.563  0.00  0.00    +0.000 A 
ATOM     14  C   UNL     1       2.416  30.633  14.180  0.00  0.00    +0.000 A 
ATOM     15  C   UNL     1       1.462  31.172  11.556  0.00  0.00    +0.000 A 
ATOM     16  C   UNL     1       6.061  34.339  13.756  0.00  0.00    +0.000 A 
ATOM     17  C   UNL     1      -0.311  29.375  11.809  0.00  0.00    +0.000 C 
ATOM     18  C   UNL     1       5.764  33.463  14.850  0.00  0.00    +0.000 A 
ATOM     19  C   UNL     1      -0.055  27.753  13.627  0.00  0.00    +0.000 C 
ATOM     20  C   UNL     1       7.813  35.349  15.114  0.00  0.00    +0.000 A 
ATOM     21  C   UNL     1       7.104  35.277  13.917  0.00  0.00    +0.000 A 
ATOM     22  C   UNL     1       6.512  33.557  16.016  0.00  0.00    +0.000 A 
ATOM     23  C   UNL     1       7.542  34.486  16.163  0.00  0.00    +0.000 A 
ENDROOT
BRANCH  10  24
ATOM     24  O   UNL     1       1.610  28.186  15.325  0.00  0.00    +0.000 OA
ATOM     25  H   UNL     1       2.469  28.343  14.884  0.00  0.00    +0.000 HD
ENDBRANCH  10  24
BRANCH  10  26
ATOM     26  C   UNL     1      -0.431  29.489  15.429  0.00  0.00    +0.000 C 
ATOM     27  C   UNL     1      -0.544  28.863  16.816  0.00  0.00    +0.000 C 
ENDBRANCH  10  26
BRANCH  13  28
ATOM     28  C   UNL     1       5.501  35.098  11.351  0.00  0.00    +0.000 C 
ATOM     29  C   UNL     1       6.595  34.563  10.440  0.00  0.00    +0.000 C 
ENDBRANCH  13  28
BRANCH  20  30
ATOM     30  O   UNL     1       8.867  36.257  15.227  0.00  0.00    +0.000 OA
BRANCH  30  38
ATOM     31  O   UNL     1      10.283  35.114  13.793  0.00  0.00    +0.000 OA
ATOM     32  N   UNL     1      11.103  36.004  15.752  0.00  0.00    +0.000 N 
ATOM     33  C   UNL     1      12.951  35.618  17.988  0.00  0.00    +0.000 C 
ATOM     34  C   UNL     1      11.477  36.057  18.178  0.00  0.00    +0.000 C 
ATOM     35  C   UNL     1      13.055  34.825  16.660  0.00  0.00    +0.000 C 
ATOM     36  C   UNL     1      10.921  36.790  16.961  0.00  0.00    +0.000 C 
ATOM     37  C   UNL     1      12.465  35.587  15.478  0.00  0.00    +0.000 C 
ATOM     38  C   UNL     1      10.098  35.740  14.833  0.00  0.00    +0.000 C 
BRANCH  33  39
ATOM     39  N   UNL     1      13.455  34.823  19.152  0.00  0.00    +0.000 NA
ATOM     40  C   UNL     1      12.420  34.644  20.192  0.00  0.00    +0.000 C 
ATOM     41  C   UNL     1      13.987  33.507  18.741  0.00  0.00    +0.000 C 
ATOM     42  C   UNL     1      12.926  33.859  21.405  0.00  0.00    +0.000 C 
ATOM     43  C   UNL     1      14.531  32.692  19.917  0.00  0.00    +0.000 C 
ATOM     44  C   UNL     1      13.483  32.506  20.999  0.00  0.00    +0.000 C 
ENDBRANCH  33  39
ENDBRANCH  30  38
ENDBRANCH  20  30
TORSDOF 6
ENDMDL
MODEL 3
REMARK VINA RESULT:      -7.0      6.820     11.532
REMARK  Name = 
REMARK  8 active torsions:
REMARK  status: ('A' for Active; 'I' for Inactive)
REMARK    1  A    between atoms: O_1  and  C_21
REMARK    2  A    between atoms: O_1  and  C_38
REMARK    3  A    between atoms: O_4  and  C_26
REMARK    4  A    between atoms: N_7  and  C_11
REMARK    5  A    between atoms: C_26  and  C_33
REMARK    6  A    between atoms: C_29  and  C_37
REMARK    7  A    between atoms: C_33  and  C_42
REMARK    8  A    between atoms: C_37  and  C_43
REMARK                            x       y       z     vdW  Elec       q    Type
REMARK                         _______ _______ _______ _____ _____    ______ ____
ROOT
ATOM      1  O   UNL     1      22.938  17.490  32.861  0.00  0.00    +0.000 OA
ATOM      2  O   UNL     1      19.712  20.180  33.195  0.00  0.00    +0.000 OA
ATOM      3  O   UNL     1      23.340  15.286  32.700  0.00  0.00    +0.000 OA
ATOM      4  N   UNL     1      18.305  18.764  32.062  0.00  0.00    +0.000 N 
ATOM      5  N   UNL     1      16.098  16.593  30.252  0.00  0.00    +0.000 NA
ATOM      6  C   UNL     1      18.093  17.607  31.341  0.00  0.00    +0.000 A 
ATOM      7  C   UNL     1      16.064  18.691  31.477  0.00  0.00    +0.000 A 
ATOM      8  C   UNL     1      17.067  19.534  32.210  0.00  0.00    +0.000 C 
ATOM      9  C   UNL     1      20.426  17.058  31.590  0.00  0.00    +0.000 A 
ATOM     10  C   UNL     1      21.577  16.135  31.278  0.00  0.00    +0.000 C 
ATOM     11  C   UNL     1      16.684  17.556  30.967  0.00  0.00    +0.000 A 
ATOM     12  C   UNL     1      20.640  18.187  32.295  0.00  0.00    +0.000 A 
ATOM     13  C   UNL     1      14.708  18.881  31.251  0.00  0.00    +0.000 A 
ATOM     14  C   UNL     1      19.090  16.755  31.088  0.00  0.00    +0.000 A 
ATOM     15  C   UNL     1      19.521  19.143  32.570  0.00  0.00    +0.000 A 
ATOM     16  C   UNL     1      14.036  17.889  30.481  0.00  0.00    +0.000 A 
ATOM     17  C   UNL     1      21.978  18.567  32.825  0.00  0.00    +0.000 C 
ATOM     18  C   UNL     1      14.789  16.763  30.012  0.00  0.00    +0.000 A 
ATOM     19  C   UNL     1      22.676  16.265  32.357  0.00  0.00    +0.000 C 
ATOM     20  C   UNL     1      12.069  16.959  29.383  0.00  0.00    +0.000 A 
ATOM     21  C   UNL     1      12.665  17.957  30.152  0.00  0.00    +0.000 A 
ATOM     22  C   UNL     1      14.148  15.782  29.267  0.00  0.00    +0.000 A 
ATOM     23  C   UNL     1      12.791  15.859  28.951  0.00  0.00    +0.000 A 
ENDROOT
BRANCH  10  24
ATOM     24  O   UNL     1      21.097  14.783  31.283  0.00  0.00    +0.000 OA
ATOM     25  H   UNL     1      20.132  14.837  31.434  0.00  0.00    +0.000 HD
ENDBRANCH  10  24
BRANCH  10  26
ATOM     26  C   UNL     1      22.164  16.454  29.887  0.00  0.00    +0.000 C 
ATOM     27  C   UNL     1      22.847  15.273  29.203  0.00  0.00    +0.000 C 
ENDBRANCH  10  26
BRANCH  13  28
ATOM     28  C   UNL     1      14.024  20.116  31.788  0.00  0.00    +0.000 C 
ATOM     29  C   UNL     1      13.489  19.909  33.197  0.00  0.00    +0.000 C 
ENDBRANCH  13  28
BRANCH  20  30
ATOM     30  O   UNL     1      10.702  17.033  29.113  0.00  0.00    +0.000 OA
BRANCH  30  38
ATOM     31  O   UNL     1       9.821  15.143  30.121  0.00  0.00    +0.000 OA
ATOM     32  N   UNL     1       9.214  17.235  30.869  0.00  0.00    +0.000 N 
ATOM     33  C   UNL     1       7.031  18.886  31.906  0.00  0.00    +0.000 C 
ATOM     34  C   UNL     1       7.974  19.353  30.769  0.00  0.00    +0.000 C 
ATOM     35  C   UNL     1       6.987  17.336  31.897  0.00  0.00    +0.000 C 
ATOM     36  C   UNL     1       9.344  18.682  30.829  0.00  0.00    +0.000 C 
ATOM     37  C   UNL     1       8.379  16.713  31.933  0.00  0.00    +0.000 C 
ATOM     38  C   UNL     1       9.908  16.366  30.041  0.00  0.00    +0.000 C 
BRANCH  33  39
ATOM     39  N   UNL     1       5.664  19.482  31.783  0.00  0.00    +0.000 NA
ATOM     40  C   UNL     1       5.674  20.736  31.001  0.00  0.00    +0.000 C 
ATOM     41  C   UNL     1       4.691  18.534  31.201  0.00  0.00    +0.000 C 
ATOM     42  C   UNL     1       4.289  21.379  30.890  0.00  0.00    +0.000 C 
ATOM     43  C   UNL     1       3.281  19.120  31.093  0.00  0.00    +0.000 C 
ATOM     44  C   UNL     1       3.275  20.414  30.299  0.00  0.00    +0.000 C 
ENDBRANCH  33  39
ENDBRANCH  30  38
ENDBRANCH  20  30
TORSDOF 6
ENDMDL
MODEL 4
REMARK VINA RESULT:      -7.0     24.777     28.645
REMARK  Name = 
REMARK  8 active torsions:
REMARK  status: ('A' for Active; 'I' for Inactive)
REMARK    1  A    between atoms: O_1  and  C_21
REMARK    2  A    between atoms: O_1  and  C_38
REMARK    3  A    between atoms: O_4  and  C_26
REMARK    4  A    between atoms: N_7  and  C_11
REMARK    5  A    between atoms: C_26  and  C_33
REMARK    6  A    between atoms: C_29  and  C_37
REMARK    7  A    between atoms: C_33  and  C_42
REMARK    8  A    between atoms: C_37  and  C_43
REMARK                            x       y       z     vdW  Elec       q    Type
REMARK                         _______ _______ _______ _____ _____    ______ ____
ROOT
ATOM      1  O   UNL     1      28.640  11.330  16.814  0.00  0.00    +0.000 OA
ATOM      2  O   UNL     1      29.877  14.128  19.711  0.00  0.00    +0.000 OA
ATOM      3  O   UNL     1      27.345  11.195  14.983  0.00  0.00    +0.000 OA
ATOM      4  N   UNL     1      29.668  15.873  18.236  0.00  0.00    +0.000 N 
ATOM      5  N   UNL     1      29.398  18.613  15.937  0.00  0.00    +0.000 NA
ATOM      6  C   UNL     1      29.428  16.345  16.961  0.00  0.00    +0.000 A 
ATOM      7  C   UNL     1      29.861  18.182  18.283  0.00  0.00    +0.000 A 
ATOM      8  C   UNL     1      29.956  16.970  19.164  0.00  0.00    +0.000 C 
ATOM      9  C   UNL     1      29.085  14.079  16.218  0.00  0.00    +0.000 A 
ATOM     10  C   UNL     1      28.812  13.116  15.090  0.00  0.00    +0.000 C 
ATOM     11  C   UNL     1      29.550  17.799  16.984  0.00  0.00    +0.000 A 
ATOM     12  C   UNL     1      29.319  13.611  17.460  0.00  0.00    +0.000 A 
ATOM     13  C   UNL     1      30.035  19.529  18.568  0.00  0.00    +0.000 A 
ATOM     14  C   UNL     1      29.144  15.512  15.955  0.00  0.00    +0.000 A 
ATOM     15  C   UNL     1      29.645  14.548  18.582  0.00  0.00    +0.000 A 
ATOM     16  C   UNL     1      29.899  20.441  17.482  0.00  0.00    +0.000 A 
ATOM     17  C   UNL     1      29.292  12.161  17.797  0.00  0.00    +0.000 C 
ATOM     18  C   UNL     1      29.575  19.919  16.187  0.00  0.00    +0.000 A 
ATOM     19  C   UNL     1      28.187  11.812  15.637  0.00  0.00    +0.000 C 
ATOM     20  C   UNL     1      29.934  22.676  16.509  0.00  0.00    +0.000 A 
ATOM     21  C   UNL     1      30.069  21.837  17.614  0.00  0.00    +0.000 A 
ATOM     22  C   UNL     1      29.430  20.796  15.119  0.00  0.00    +0.000 A 
ATOM     23  C   UNL     1      29.598  22.173  15.263  0.00  0.00    +0.000 A 
ENDROOT
BRANCH  10  24
ATOM     24  O   UNL     1      27.876  13.720  14.186  0.00  0.00    +0.000 OA
ATOM     25  H   UNL     1      28.188  14.636  14.042  0.00  0.00    +0.000 HD
ENDBRANCH  10  24
BRANCH  10  26
ATOM     26  C   UNL     1      30.114  12.796  14.325  0.00  0.00    +0.000 C 
ATOM     27  C   UNL     1      30.170  13.361  12.908  0.00  0.00    +0.000 C 
ENDBRANCH  10  26
BRANCH  13  28
ATOM     28  C   UNL     1      30.387  19.960  19.971  0.00  0.00    +0.000 C 
ATOM     29  C   UNL     1      31.889  19.972  20.209  0.00  0.00    +0.000 C 
ENDBRANCH  13  28
BRANCH  20  30
ATOM     30  O   UNL     1      30.065  24.054  16.681  0.00  0.00    +0.000 OA
BRANCH  30  38
ATOM     31  O   UNL     1      27.869  24.787  16.751  0.00  0.00    +0.000 OA
ATOM     32  N   UNL     1      29.271  25.512  15.074  0.00  0.00    +0.000 N 
ATOM     33  C   UNL     1      29.482  26.208  12.240  0.00  0.00    +0.000 C 
ATOM     34  C   UNL     1      30.501  25.290  12.960  0.00  0.00    +0.000 C 
ATOM     35  C   UNL     1      28.128  26.114  12.987  0.00  0.00    +0.000 C 
ATOM     36  C   UNL     1      30.586  25.569  14.458  0.00  0.00    +0.000 C 
ATOM     37  C   UNL     1      28.267  26.376  14.483  0.00  0.00    +0.000 C 
ATOM     38  C   UNL     1      28.975  24.785  16.218  0.00  0.00    +0.000 C 
BRANCH  33  39
ATOM     39  N   UNL     1      29.342  25.864  10.789  0.00  0.00    +0.000 NA
ATOM     40  C   UNL     1      29.972  24.566  10.464  0.00  0.00    +0.000 C 
ATOM     41  C   UNL     1      27.932  25.862  10.349  0.00  0.00    +0.000 C 
ATOM     42  C   UNL     1      29.867  24.211   8.979  0.00  0.00    +0.000 C 
ATOM     43  C   UNL     1      27.774  25.538   8.861  0.00  0.00    +0.000 C 
ATOM     44  C   UNL     1      28.423  24.211   8.508  0.00  0.00    +0.000 C 
ENDBRANCH  33  39
ENDBRANCH  30  38
ENDBRANCH  20  30
TORSDOF 6
ENDMDL
MODEL 5
REMARK VINA RESULT:      -6.9     21.058     25.048
REMARK  Name = 
REMARK  8 active torsions:
REMARK  status: ('A' for Active; 'I' for Inactive)
REMARK    1  A    between atoms: O_1  and  C_21
REMARK    2  A    between atoms: O_1  and  C_38
REMARK    3  A    between atoms: O_4  and  C_26
REMARK    4  A    between atoms: N_7  and  C_11
REMARK    5  A    between atoms: C_26  and  C_33
REMARK    6  A    between atoms: C_29  and  C_37
REMARK    7  A    between atoms: C_33  and  C_42
REMARK    8  A    between atoms: C_37  and  C_43
REMARK                            x       y       z     vdW  Elec       q    Type
REMARK                         _______ _______ _______ _____ _____    ______ ____
ROOT
ATOM      1  O   UNL     1      -1.456  26.437  13.404  0.00  0.00    +0.000 OA
ATOM      2  O   UNL     1      -0.342  29.246  10.468  0.00  0.00    +0.000 OA
ATOM      3  O   UNL     1      -0.602  25.370  15.187  0.00  0.00    +0.000 OA
ATOM      4  N   UNL     1       1.169  30.245  11.877  0.00  0.00    +0.000 N 
ATOM      5  N   UNL     1       3.503  31.856  14.073  0.00  0.00    +0.000 NA
ATOM      6  C   UNL     1       1.744  30.372  13.125  0.00  0.00    +0.000 A 
ATOM      7  C   UNL     1       2.757  31.930  11.762  0.00  0.00    +0.000 A 
ATOM      8  C   UNL     1       1.748  31.198  10.925  0.00  0.00    +0.000 C 
ATOM      9  C   UNL     1       0.323  28.599  13.927  0.00  0.00    +0.000 A 
ATOM     10  C   UNL     1      -0.155  27.745  15.075  0.00  0.00    +0.000 C 
ATOM     11  C   UNL     1       2.743  31.432  13.060  0.00  0.00    +0.000 A 
ATOM     12  C   UNL     1      -0.243  28.470  12.711  0.00  0.00    +0.000 A 
ATOM     13  C   UNL     1       3.629  32.960  11.440  0.00  0.00    +0.000 A 
ATOM     14  C   UNL     1       1.364  29.597  14.146  0.00  0.00    +0.000 A 
ATOM     15  C   UNL     1       0.181  29.345  11.572  0.00  0.00    +0.000 A 
ATOM     16  C   UNL     1       4.452  33.460  12.491  0.00  0.00    +0.000 A 
ATOM     17  C   UNL     1      -1.320  27.484  12.420  0.00  0.00    +0.000 C 
ATOM     18  C   UNL     1       4.344  32.861  13.788  0.00  0.00    +0.000 A 
ATOM     19  C   UNL     1      -0.736  26.413  14.546  0.00  0.00    +0.000 C 
ATOM     20  C   UNL     1       6.140  34.970  13.391  0.00  0.00    +0.000 A 
ATOM     21  C   UNL     1       5.371  34.518  12.320  0.00  0.00    +0.000 A 
ATOM     22  C   UNL     1       5.146  33.330  14.820  0.00  0.00    +0.000 A 
ATOM     23  C   UNL     1       6.052  34.375  14.638  0.00  0.00    +0.000 A 
ENDROOT
BRANCH  10  24
ATOM     24  O   UNL     1       0.963  27.445  15.922  0.00  0.00    +0.000 OA
ATOM     25  H   UNL     1       1.723  27.940  15.557  0.00  0.00    +0.000 HD
ENDBRANCH  10  24
BRANCH  10  26
ATOM     26  C   UNL     1      -1.222  28.495  15.899  0.00  0.00    +0.000 C 
ATOM     27  C   UNL     1      -1.199  28.188  17.394  0.00  0.00    +0.000 C 
ENDBRANCH  10  26
BRANCH  13  28
ATOM     28  C   UNL     1       3.645  33.519  10.038  0.00  0.00    +0.000 C 
ATOM     29  C   UNL     1       2.617  34.624   9.849  0.00  0.00    +0.000 C 
ENDBRANCH  13  28
BRANCH  20  30
ATOM     30  O   UNL     1       7.070  35.988  13.179  0.00  0.00    +0.000 OA
BRANCH  30  38
ATOM     31  O   UNL     1       8.542  34.842  11.807  0.00  0.00    +0.000 OA
ATOM     32  N   UNL     1       9.325  35.932  13.679  0.00  0.00    +0.000 N 
ATOM     33  C   UNL     1      11.226  35.843  15.902  0.00  0.00    +0.000 C 
ATOM     34  C   UNL     1       9.727  36.192  16.088  0.00  0.00    +0.000 C 
ATOM     35  C   UNL     1      11.367  34.963  14.635  0.00  0.00    +0.000 C 
ATOM     36  C   UNL     1       9.104  36.791  14.830  0.00  0.00    +0.000 C 
ATOM     37  C   UNL     1      10.709  35.591  13.411  0.00  0.00    +0.000 C 
ATOM     38  C   UNL     1       8.329  35.531  12.801  0.00  0.00    +0.000 C 
BRANCH  33  39
ATOM     39  N   UNL     1      11.801  35.175  17.112  0.00  0.00    +0.000 NA
ATOM     40  C   UNL     1      13.189  34.717  16.886  0.00  0.00    +0.000 C 
ATOM     41  C   UNL     1      11.746  36.040  18.308  0.00  0.00    +0.000 C 
ATOM     42  C   UNL     1      13.784  34.003  18.101  0.00  0.00    +0.000 C 
ATOM     43  C   UNL     1      12.306  35.360  19.560  0.00  0.00    +0.000 C 
ATOM     44  C   UNL     1      13.729  34.877  19.342  0.00  0.00    +0.000 C 
ENDBRANCH  33  39
ENDBRANCH  30  38
ENDBRANCH  20  30
TORSDOF 6
ENDMDL
MODEL 6
REMARK VINA RESULT:      -6.8     20.990     23.421
REMARK  Name = 
REMARK  8 active torsions:
REMARK  status: ('A' for Active; 'I' for Inactive)
REMARK    1  A    between atoms: O_1  and  C_21
REMARK    2  A    between atoms: O_1  and  C_38
REMARK    3  A    between atoms: O_4  and  C_26
REMARK    4  A    between atoms: N_7  and  C_11
REMARK    5  A    between atoms: C_26  and  C_33
REMARK    6  A    between atoms: C_29  and  C_37
REMARK    7  A    between atoms: C_33  and  C_42
REMARK    8  A    between atoms: C_37  and  C_43
REMARK                            x       y       z     vdW  Elec       q    Type
REMARK                         _______ _______ _______ _____ _____    ______ ____
ROOT
ATOM      1  O   UNL     1       5.520  34.976  12.110  0.00  0.00    +0.000 OA
ATOM      2  O   UNL     1       3.922  32.692  15.269  0.00  0.00    +0.000 OA
ATOM      3  O   UNL     1       6.034  34.791   9.930  0.00  0.00    +0.000 OA
ATOM      4  N   UNL     1       2.672  31.418  13.827  0.00  0.00    +0.000 N 
ATOM      5  N   UNL     1       0.669  29.444  11.600  0.00  0.00    +0.000 NA
ATOM      6  C   UNL     1       2.206  31.153  12.555  0.00  0.00    +0.000 A 
ATOM      7  C   UNL     1       1.272  29.575  13.950  0.00  0.00    +0.000 A 
ATOM      8  C   UNL     1       2.134  30.462  14.799  0.00  0.00    +0.000 C 
ATOM      9  C   UNL     1       3.484  33.022  11.729  0.00  0.00    +0.000 A 
ATOM     10  C   UNL     1       3.875  33.911  10.576  0.00  0.00    +0.000 C 
ATOM     11  C   UNL     1       1.322  29.995  12.626  0.00  0.00    +0.000 A 
ATOM     12  C   UNL     1       3.942  33.286  12.969  0.00  0.00    +0.000 A 
ATOM     13  C   UNL     1       0.486  28.480  14.284  0.00  0.00    +0.000 A 
ATOM     14  C   UNL     1       2.572  31.904  11.512  0.00  0.00    +0.000 A 
ATOM     15  C   UNL     1       3.523  32.446  14.136  0.00  0.00    +0.000 A 
ATOM     16  C   UNL     1      -0.244  27.864  13.227  0.00  0.00    +0.000 A 
ATOM     17  C   UNL     1       4.862  34.418  13.266  0.00  0.00    +0.000 C 
ATOM     18  C   UNL     1      -0.106  28.392  11.902  0.00  0.00    +0.000 A 
ATOM     19  C   UNL     1       5.244  34.575  10.851  0.00  0.00    +0.000 C 
ATOM     20  C   UNL     1      -1.796  26.206  12.344  0.00  0.00    +0.000 A 
ATOM     21  C   UNL     1      -1.099  26.756  13.418  0.00  0.00    +0.000 A 
ATOM     22  C   UNL     1      -0.804  27.796  10.859  0.00  0.00    +0.000 A 
ATOM     23  C   UNL     1      -1.644  26.701  11.060  0.00  0.00    +0.000 A 
ENDROOT
BRANCH  10  24
ATOM     24  O   UNL     1       3.991  33.108   9.393  0.00  0.00    +0.000 OA
ATOM     25  H   UNL     1       4.937  32.871   9.316  0.00  0.00    +0.000 HD
ENDBRANCH  10  24
BRANCH  10  26
ATOM     26  C   UNL     1       2.801  34.996  10.342  0.00  0.00    +0.000 C 
ATOM     27  C   UNL     1       1.947  34.782   9.096  0.00  0.00    +0.000 C 
ENDBRANCH  10  26
BRANCH  13  28
ATOM     28  C   UNL     1       0.412  28.021  15.720  0.00  0.00    +0.000 C 
ATOM     29  C   UNL     1      -0.716  28.701  16.482  0.00  0.00    +0.000 C 
ENDBRANCH  13  28
BRANCH  20  30
ATOM     30  O   UNL     1      -2.599  25.085  12.558  0.00  0.00    +0.000 OA
BRANCH  30  38
ATOM     31  O   UNL     1      -4.733  25.870  12.115  0.00  0.00    +0.000 OA
ATOM     32  N   UNL     1      -4.203  25.105  14.221  0.00  0.00    +0.000 N 
ATOM     33  C   UNL     1      -4.585  25.496  17.096  0.00  0.00    +0.000 C 
ATOM     34  C   UNL     1      -3.193  25.274  16.453  0.00  0.00    +0.000 C 
ATOM     35  C   UNL     1      -5.522  26.117  16.027  0.00  0.00    +0.000 C 
ATOM     36  C   UNL     1      -3.268  24.488  15.147  0.00  0.00    +0.000 C 
ATOM     37  C   UNL     1      -5.544  25.310  14.733  0.00  0.00    +0.000 C 
ATOM     38  C   UNL     1      -3.914  25.392  12.895  0.00  0.00    +0.000 C 
BRANCH  33  39
ATOM     39  N   UNL     1      -4.508  26.345  18.327  0.00  0.00    +0.000 NA
ATOM     40  C   UNL     1      -3.948  27.684  18.044  0.00  0.00    +0.000 C 
ATOM     41  C   UNL     1      -5.818  26.479  18.997  0.00  0.00    +0.000 C 
ATOM     42  C   UNL     1      -3.831  28.556  19.296  0.00  0.00    +0.000 C 
ATOM     43  C   UNL     1      -5.750  27.322  20.273  0.00  0.00    +0.000 C 
ATOM     44  C   UNL     1      -5.169  28.699  20.001  0.00  0.00    +0.000 C 
ENDBRANCH  33  39
ENDBRANCH  30  38
ENDBRANCH  20  30
TORSDOF 6
ENDMDL
MODEL 7
REMARK VINA RESULT:      -6.8     21.096     24.955
REMARK  Name = 
REMARK  8 active torsions:
REMARK  status: ('A' for Active; 'I' for Inactive)
REMARK    1  A    between atoms: O_1  and  C_21
REMARK    2  A    between atoms: O_1  and  C_38
REMARK    3  A    between atoms: O_4  and  C_26
REMARK    4  A    between atoms: N_7  and  C_11
REMARK    5  A    between atoms: C_26  and  C_33
REMARK    6  A    between atoms: C_29  and  C_37
REMARK    7  A    between atoms: C_33  and  C_42
REMARK    8  A    between atoms: C_37  and  C_43
REMARK                            x       y       z     vdW  Elec       q    Type
REMARK                         _______ _______ _______ _____ _____    ______ ____
ROOT
ATOM      1  O   UNL     1      -0.763  27.028  12.539  0.00  0.00    +0.000 OA
ATOM      2  O   UNL     1       0.298  30.640  10.647  0.00  0.00    +0.000 OA
ATOM      3  O   UNL     1       0.085  25.506  13.959  0.00  0.00    +0.000 OA
ATOM      4  N   UNL     1       1.700  31.226  12.367  0.00  0.00    +0.000 N 
ATOM      5  N   UNL     1       3.861  32.190  15.063  0.00  0.00    +0.000 NA
ATOM      6  C   UNL     1       2.222  30.992  13.623  0.00  0.00    +0.000 A 
ATOM      7  C   UNL     1       3.195  32.931  12.846  0.00  0.00    +0.000 A 
ATOM      8  C   UNL     1       2.259  32.446  11.778  0.00  0.00    +0.000 C 
ATOM      9  C   UNL     1       0.874  29.001  13.780  0.00  0.00    +0.000 A 
ATOM     10  C   UNL     1       0.403  27.820  14.590  0.00  0.00    +0.000 C 
ATOM     11  C   UNL     1       3.163  32.063  13.932  0.00  0.00    +0.000 A 
ATOM     12  C   UNL     1       0.360  29.224  12.554  0.00  0.00    +0.000 A 
ATOM     13  C   UNL     1       4.020  34.047  12.895  0.00  0.00    +0.000 A 
ATOM     14  C   UNL     1       1.849  29.929  14.342  0.00  0.00    +0.000 A 
ATOM     15  C   UNL     1       0.775  30.421  11.755  0.00  0.00    +0.000 A 
ATOM     16  C   UNL     1       4.776  34.238  14.088  0.00  0.00    +0.000 A 
ATOM     17  C   UNL     1      -0.649  28.329  11.925  0.00  0.00    +0.000 C 
ATOM     18  C   UNL     1       4.655  33.269  15.137  0.00  0.00    +0.000 A 
ATOM     19  C   UNL     1      -0.084  26.689  13.656  0.00  0.00    +0.000 C 
ATOM     20  C   UNL     1       6.343  35.473  15.487  0.00  0.00    +0.000 A 
ATOM     21  C   UNL     1       5.640  35.336  14.291  0.00  0.00    +0.000 A 
ATOM     22  C   UNL     1       5.392  33.436  16.302  0.00  0.00    +0.000 A 
ATOM     23  C   UNL     1       6.244  34.524  16.490  0.00  0.00    +0.000 A 
ENDROOT
BRANCH  10  24
ATOM     24  O   UNL     1       1.504  27.324  15.364  0.00  0.00    +0.000 OA
ATOM     25  H   UNL     1       1.720  28.025  16.011  0.00  0.00    +0.000 HD
ENDBRANCH  10  24
BRANCH  10  26
ATOM     26  C   UNL     1      -0.733  28.239  15.547  0.00  0.00    +0.000 C 
ATOM     27  C   UNL     1      -0.278  28.561  16.968  0.00  0.00    +0.000 C 
ENDBRANCH  10  26
BRANCH  13  28
ATOM     28  C   UNL     1       4.055  35.005  11.730  0.00  0.00    +0.000 C 
ATOM     29  C   UNL     1       5.057  34.579  10.667  0.00  0.00    +0.000 C 
ENDBRANCH  13  28
BRANCH  20  30
ATOM     30  O   UNL     1       7.222  36.546  15.639  0.00  0.00    +0.000 OA
BRANCH  30  38
ATOM     31  O   UNL     1       8.558  36.467  17.530  0.00  0.00    +0.000 OA
ATOM     32  N   UNL     1       6.545  37.584  17.589  0.00  0.00    +0.000 N 
ATOM     33  C   UNL     1       4.188  38.221  19.202  0.00  0.00    +0.000 C 
ATOM     34  C   UNL     1       4.098  37.739  17.732  0.00  0.00    +0.000 C 
ATOM     35  C   UNL     1       5.507  37.683  19.812  0.00  0.00    +0.000 C 
ATOM     36  C   UNL     1       5.349  38.076  16.926  0.00  0.00    +0.000 C 
ATOM     37  C   UNL     1       6.725  38.024  18.959  0.00  0.00    +0.000 C 
ATOM     38  C   UNL     1       7.532  36.835  16.965  0.00  0.00    +0.000 C 
BRANCH  33  39
ATOM     39  N   UNL     1       2.994  37.804  20.004  0.00  0.00    +0.000 NA
ATOM     40  C   UNL     1       2.347  36.595  19.450  0.00  0.00    +0.000 C 
ATOM     41  C   UNL     1       3.325  37.589  21.428  0.00  0.00    +0.000 C 
ATOM     42  C   UNL     1       1.106  36.171  20.238  0.00  0.00    +0.000 C 
ATOM     43  C   UNL     1       2.109  37.188  22.267  0.00  0.00    +0.000 C 
ATOM     44  C   UNL     1       1.428  35.952  21.707  0.00  0.00    +0.000 C 
ENDBRANCH  33  39
ENDBRANCH  30  38
ENDBRANCH  20  30
TORSDOF 6
ENDMDL
MODEL 8
REMARK VINA RESULT:      -6.7     23.621     27.131
REMARK  Name = 
REMARK  8 active torsions:
REMARK  status: ('A' for Active; 'I' for Inactive)
REMARK    1  A    between atoms: O_1  and  C_21
REMARK    2  A    between atoms: O_1  and  C_38
REMARK    3  A    between atoms: O_4  and  C_26
REMARK    4  A    between atoms: N_7  and  C_11
REMARK    5  A    between atoms: C_26  and  C_33
REMARK    6  A    between atoms: C_29  and  C_37
REMARK    7  A    between atoms: C_33  and  C_42
REMARK    8  A    between atoms: C_37  and  C_43
REMARK                            x       y       z     vdW  Elec       q    Type
REMARK                         _______ _______ _______ _____ _____    ______ ____
ROOT
ATOM      1  O   UNL     1      28.705  11.311  16.855  0.00  0.00    +0.000 OA
ATOM      2  O   UNL     1      29.651  14.275  19.696  0.00  0.00    +0.000 OA
ATOM      3  O   UNL     1      27.485  11.032  14.989  0.00  0.00    +0.000 OA
ATOM      4  N   UNL     1      29.376  15.956  18.158  0.00  0.00    +0.000 N 
ATOM      5  N   UNL     1      29.002  18.599  15.761  0.00  0.00    +0.000 NA
ATOM      6  C   UNL     1      29.149  16.371  16.861  0.00  0.00    +0.000 A 
ATOM      7  C   UNL     1      29.412  18.273  18.134  0.00  0.00    +0.000 A 
ATOM      8  C   UNL     1      29.557  17.098  19.057  0.00  0.00    +0.000 C 
ATOM      9  C   UNL     1      28.985  14.064  16.183  0.00  0.00    +0.000 A 
ATOM     10  C   UNL     1      28.815  13.050  15.079  0.00  0.00    +0.000 C 
ATOM     11  C   UNL     1      29.172  17.829  16.839  0.00  0.00    +0.000 A 
ATOM     12  C   UNL     1      29.206  13.652  17.447  0.00  0.00    +0.000 A 
ATOM     13  C   UNL     1      29.485  19.637  18.380  0.00  0.00    +0.000 A 
ATOM     14  C   UNL     1      28.956  15.490  15.875  0.00  0.00    +0.000 A 
ATOM     15  C   UNL     1      29.430  14.643  18.547  0.00  0.00    +0.000 A 
ATOM     16  C   UNL     1      29.326  20.504  17.260  0.00  0.00    +0.000 A 
ATOM     17  C   UNL     1      29.264  12.215  17.831  0.00  0.00    +0.000 C 
ATOM     18  C   UNL     1      29.082  19.921  15.974  0.00  0.00    +0.000 A 
ATOM     19  C   UNL     1      28.261  11.725  15.649  0.00  0.00    +0.000 C 
ATOM     20  C   UNL     1      29.245  22.704  16.215  0.00  0.00    +0.000 A 
ATOM     21  C   UNL     1      29.397  21.911  17.351  0.00  0.00    +0.000 A 
ATOM     22  C   UNL     1      28.915  20.752  14.873  0.00  0.00    +0.000 A 
ATOM     23  C   UNL     1      28.986  22.141  14.977  0.00  0.00    +0.000 A 
ENDROOT
BRANCH  10  24
ATOM     24  O   UNL     1      27.873  13.561  14.126  0.00  0.00    +0.000 OA
ATOM     25  H   UNL     1      28.370  14.186  13.560  0.00  0.00    +0.000 HD
ENDBRANCH  10  24
BRANCH  10  26
ATOM     26  C   UNL     1      30.161  12.796  14.368  0.00  0.00    +0.000 C 
ATOM     27  C   UNL     1      30.075  12.761  12.844  0.00  0.00    +0.000 C 
ENDBRANCH  10  26
BRANCH  13  28
ATOM     28  C   UNL     1      29.758  20.134  19.779  0.00  0.00    +0.000 C 
ATOM     29  C   UNL     1      31.247  20.261  20.062  0.00  0.00    +0.000 C 
ENDBRANCH  13  28
BRANCH  20  30
ATOM     30  O   UNL     1      29.277  24.093  16.346  0.00  0.00    +0.000 OA
BRANCH  30  38
ATOM     31  O   UNL     1      31.541  24.581  16.317  0.00  0.00    +0.000 OA
ATOM     32  N   UNL     1      30.285  25.057  18.188  0.00  0.00    +0.000 N 
ATOM     33  C   UNL     1      30.245  25.116  21.113  0.00  0.00    +0.000 C 
ATOM     34  C   UNL     1      29.104  24.499  20.266  0.00  0.00    +0.000 C 
ATOM     35  C   UNL     1      31.555  25.047  20.288  0.00  0.00    +0.000 C 
ATOM     36  C   UNL     1      29.006  25.115  18.874  0.00  0.00    +0.000 C 
ATOM     37  C   UNL     1      31.402  25.653  18.897  0.00  0.00    +0.000 C 
ATOM     38  C   UNL     1      30.459  24.579  16.897  0.00  0.00    +0.000 C 
BRANCH  33  39
ATOM     39  N   UNL     1      30.388  24.441  22.442  0.00  0.00    +0.000 NA
ATOM     40  C   UNL     1      29.079  24.062  23.015  0.00  0.00    +0.000 C 
ATOM     41  C   UNL     1      31.269  23.257  22.376  0.00  0.00    +0.000 C 
ATOM     42  C   UNL     1      29.201  23.398  24.389  0.00  0.00    +0.000 C 
ATOM     43  C   UNL     1      31.447  22.571  23.732  0.00  0.00    +0.000 C 
ATOM     44  C   UNL     1      30.111  22.182  24.339  0.00  0.00    +0.000 C 
ENDBRANCH  33  39
ENDBRANCH  30  38
ENDBRANCH  20  30
TORSDOF 6
ENDMDL
MODEL 9
REMARK VINA RESULT:      -6.6     11.440     13.568
REMARK  Name = 
REMARK  8 active torsions:
REMARK  status: ('A' for Active; 'I' for Inactive)
REMARK    1  A    between atoms: O_1  and  C_21
REMARK    2  A    between atoms: O_1  and  C_38
REMARK    3  A    between atoms: O_4  and  C_26
REMARK    4  A    between atoms: N_7  and  C_11
REMARK    5  A    between atoms: C_26  and  C_33
REMARK    6  A    between atoms: C_29  and  C_37
REMARK    7  A    between atoms: C_33  and  C_42
REMARK    8  A    between atoms: C_37  and  C_43
REMARK                            x       y       z     vdW  Elec       q    Type
REMARK                         _______ _______ _______ _____ _____    ______ ____
ROOT
ATOM      1  O   UNL     1       0.252  18.225  23.579  0.00  0.00    +0.000 OA
ATOM      2  O   UNL     1       1.367  14.974  26.015  0.00  0.00    +0.000 OA
ATOM      3  O   UNL     1       0.042  18.767  21.408  0.00  0.00    +0.000 OA
ATOM      4  N   UNL     1       0.685  13.451  24.440  0.00  0.00    +0.000 N 
ATOM      5  N   UNL     1      -0.420  11.049  22.016  0.00  0.00    +0.000 NA
ATOM      6  C   UNL     1       0.073  13.161  23.237  0.00  0.00    +0.000 A 
ATOM      7  C   UNL     1       0.718  11.150  24.160  0.00  0.00    +0.000 A 
ATOM      8  C   UNL     1       1.138  12.231  25.114  0.00  0.00    +0.000 C 
ATOM      9  C   UNL     1      -0.294  15.517  22.888  0.00  0.00    +0.000 A 
ATOM     10  C   UNL     1      -0.878  16.623  22.046  0.00  0.00    +0.000 C 
ATOM     11  C   UNL     1       0.090  11.713  23.056  0.00  0.00    +0.000 A 
ATOM     12  C   UNL     1       0.302  15.807  24.062  0.00  0.00    +0.000 A 
ATOM     13  C   UNL     1       0.858   9.771  24.231  0.00  0.00    +0.000 A 
ATOM     14  C   UNL     1      -0.415  14.129  22.456  0.00  0.00    +0.000 A 
ATOM     15  C   UNL     1       0.841  14.718  24.937  0.00  0.00    +0.000 A 
ATOM     16  C   UNL     1       0.317   9.013  23.152  0.00  0.00    +0.000 A 
ATOM     17  C   UNL     1       0.447  17.198  24.573  0.00  0.00    +0.000 C 
ATOM     18  C   UNL     1      -0.308   9.713  22.070  0.00  0.00    +0.000 A 
ATOM     19  C   UNL     1      -0.134  17.951  22.314  0.00  0.00    +0.000 C 
ATOM     20  C   UNL     1      -0.194   6.917  22.018  0.00  0.00    +0.000 A 
ATOM     21  C   UNL     1       0.364   7.602  23.095  0.00  0.00    +0.000 A 
ATOM     22  C   UNL     1      -0.832   8.989  21.006  0.00  0.00    +0.000 A 
ATOM     23  C   UNL     1      -0.777   7.596  20.961  0.00  0.00    +0.000 A 
ENDROOT
BRANCH  10  24
ATOM     24  O   UNL     1      -0.714  16.284  20.662  0.00  0.00    +0.000 OA
ATOM     25  H   UNL     1       0.235  16.078  20.542  0.00  0.00    +0.000 HD
ENDBRANCH  10  24
BRANCH  10  26
ATOM     26  C   UNL     1      -2.383  16.793  22.345  0.00  0.00    +0.000 C 
ATOM     27  C   UNL     1      -3.305  16.408  21.191  0.00  0.00    +0.000 C 
ENDBRANCH  10  26
BRANCH  13  28
ATOM     28  C   UNL     1       1.527   9.145  25.430  0.00  0.00    +0.000 C 
ATOM     29  C   UNL     1       3.028   8.995  25.237  0.00  0.00    +0.000 C 
ENDBRANCH  13  28
BRANCH  20  30
ATOM     30  O   UNL     1      -0.093   5.527  21.970  0.00  0.00    +0.000 OA
BRANCH  30  38
ATOM     31  O   UNL     1      -0.928   5.302  24.119  0.00  0.00    +0.000 OA
ATOM     32  N   UNL     1       0.636   3.807  23.330  0.00  0.00    +0.000 N 
ATOM     33  C   UNL     1       2.980   2.191  24.004  0.00  0.00    +0.000 C 
ATOM     34  C   UNL     1       2.903   3.077  22.735  0.00  0.00    +0.000 C 
ATOM     35  C   UNL     1       2.032   2.789  25.074  0.00  0.00    +0.000 C 
ATOM     36  C   UNL     1       1.471   3.295  22.257  0.00  0.00    +0.000 C 
ATOM     37  C   UNL     1       0.619   3.011  24.543  0.00  0.00    +0.000 C 
ATOM     38  C   UNL     1      -0.194   4.912  23.215  0.00  0.00    +0.000 C 
BRANCH  33  39
ATOM     39  N   UNL     1       4.382   2.060  24.514  0.00  0.00    +0.000 NA
ATOM     40  C   UNL     1       5.035   0.825  24.030  0.00  0.00    +0.000 C 
ATOM     41  C   UNL     1       5.212   3.234  24.175  0.00  0.00    +0.000 C 
ATOM     42  C   UNL     1       6.459   0.656  24.566  0.00  0.00    +0.000 C 
ATOM     43  C   UNL     1       6.641   3.126  24.713  0.00  0.00    +0.000 C 
ATOM     44  C   UNL     1       7.325   1.859  24.231  0.00  0.00    +0.000 C 
ENDBRANCH  33  39
ENDBRANCH  30  38
ENDBRANCH  20  30
TORSDOF 6
ENDMDL
