MODEL 1
REMARK VINA RESULT:      -4.8      0.000      0.000
REMARK  Name = 
REMARK  4 active torsions:
REMARK  status: ('A' for Active; 'I' for Inactive)
REMARK    1  A    between atoms: C_1  and  C_6
REMARK    2  A    between atoms: C_1  and  C_7
REMARK    3  A    between atoms: C_9  and  C_14
REMARK    4  A    between atoms: C_11  and  C_15
REMARK                            x       y       z     vdW  Elec       q    Type
REMARK                         _______ _______ _______ _____ _____    ______ ____
ROOT
ATOM      1  C   UNL     1      -0.152  29.059  15.764  0.00  0.00    +0.000 C 
ATOM      2  C   UNL     1       0.591  28.366  14.626  0.00  0.00    +0.000 C 
ATOM      3  C   UNL     1       0.994  29.756  15.049  0.00  0.00    +0.000 C 
ATOM      4  C   UNL     1      -0.092  28.091  13.363  0.00  0.00    +0.000 C 
ATOM      5  C   UNL     1       0.837  30.924  14.127  0.00  0.00    +0.000 C 
ATOM      6  C   UNL     1      -1.568  29.555  15.584  0.00  0.00    +0.000 C 
ATOM      7  C   UNL     1       0.118  28.559  17.163  0.00  0.00    +0.000 C 
ATOM      8  C   UNL     1      -0.049  28.730  12.178  0.00  0.00    +0.000 C 
ATOM      9  C   UNL     1      -1.024  26.896  13.303  0.00  0.00    +0.000 C 
ATOM     10  C   UNL     1       1.579  30.667  12.815  0.00  0.00    +0.000 C 
ATOM     11  C   UNL     1       0.720  29.959  11.748  0.00  0.00    +0.000 C 
ATOM     12  C   UNL     1      -0.975  28.077  11.185  0.00  0.00    +0.000 C 
ATOM     13  C   UNL     1      -1.863  27.203  12.062  0.00  0.00    +0.000 C 
ATOM     14  C   UNL     1      -0.265  25.578  13.174  0.00  0.00    +0.000 C 
ATOM     15  C   UNL     1       1.610  29.647  10.537  0.00  0.00    +0.000 C 
ENDROOT
TORSDOF 0
ENDMDL
MODEL 2
REMARK VINA RESULT:      -4.8      2.308      4.954
REMARK  Name = 
REMARK  4 active torsions:
REMARK  status: ('A' for Active; 'I' for Inactive)
REMARK    1  A    between atoms: C_1  and  C_6
REMARK    2  A    between atoms: C_1  and  C_7
REMARK    3  A    between atoms: C_9  and  C_14
REMARK    4  A    between atoms: C_11  and  C_15
REMARK                            x       y       z     vdW  Elec       q    Type
REMARK                         _______ _______ _______ _____ _____    ______ ____
ROOT
ATOM      1  C   UNL     1       0.175  28.239  14.371  0.00  0.00    +0.000 C 
ATOM      2  C   UNL     1      -0.456  27.571  15.588  0.00  0.00    +0.000 C 
ATOM      3  C   UNL     1       0.362  26.753  14.622  0.00  0.00    +0.000 C 
ATOM      4  C   UNL     1      -1.909  27.454  15.690  0.00  0.00    +0.000 C 
ATOM      5  C   UNL     1      -0.262  25.666  13.804  0.00  0.00    +0.000 C 
ATOM      6  C   UNL     1      -0.672  28.709  13.211  0.00  0.00    +0.000 C 
ATOM      7  C   UNL     1       1.368  29.131  14.620  0.00  0.00    +0.000 C 
ATOM      8  C   UNL     1      -2.729  26.410  15.462  0.00  0.00    +0.000 C 
ATOM      9  C   UNL     1      -2.694  28.677  16.123  0.00  0.00    +0.000 C 
ATOM     10  C   UNL     1      -0.955  24.650  14.711  0.00  0.00    +0.000 C 
ATOM     11  C   UNL     1      -2.426  24.998  15.016  0.00  0.00    +0.000 C 
ATOM     12  C   UNL     1      -4.168  26.806  15.669  0.00  0.00    +0.000 C 
ATOM     13  C   UNL     1      -4.112  28.329  15.669  0.00  0.00    +0.000 C 
ATOM     14  C   UNL     1      -2.612  28.913  17.629  0.00  0.00    +0.000 C 
ATOM     15  C   UNL     1      -2.966  23.979  16.030  0.00  0.00    +0.000 C 
ENDROOT
TORSDOF 0
ENDMDL
MODEL 3
REMARK VINA RESULT:      -4.7      2.572      4.912
REMARK  Name = 
REMARK  4 active torsions:
REMARK  status: ('A' for Active; 'I' for Inactive)
REMARK    1  A    between atoms: C_1  and  C_6
REMARK    2  A    between atoms: C_1  and  C_7
REMARK    3  A    between atoms: C_9  and  C_14
REMARK    4  A    between atoms: C_11  and  C_15
REMARK                            x       y       z     vdW  Elec       q    Type
REMARK                         _______ _______ _______ _____ _____    ______ ____
ROOT
ATOM      1  C   UNL     1      -2.969  24.736  15.747  0.00  0.00    +0.000 C 
ATOM      2  C   UNL     1      -2.908  26.042  14.961  0.00  0.00    +0.000 C 
ATOM      3  C   UNL     1      -2.238  24.806  14.416  0.00  0.00    +0.000 C 
ATOM      4  C   UNL     1      -2.158  27.181  15.487  0.00  0.00    +0.000 C 
ATOM      5  C   UNL     1      -0.752  24.736  14.257  0.00  0.00    +0.000 C 
ATOM      6  C   UNL     1      -2.189  24.559  17.029  0.00  0.00    +0.000 C 
ATOM      7  C   UNL     1      -4.291  24.007  15.763  0.00  0.00    +0.000 C 
ATOM      8  C   UNL     1      -0.937  27.654  15.174  0.00  0.00    +0.000 C 
ATOM      9  C   UNL     1      -2.806  28.020  16.571  0.00  0.00    +0.000 C 
ATOM     10  C   UNL     1      -0.257  25.886  13.380  0.00  0.00    +0.000 C 
ATOM     11  C   UNL     1       0.084  27.164  14.172  0.00  0.00    +0.000 C 
ATOM     12  C   UNL     1      -0.588  28.841  16.035  0.00  0.00    +0.000 C 
ATOM     13  C   UNL     1      -1.608  28.762  17.164  0.00  0.00    +0.000 C 
ATOM     14  C   UNL     1      -3.857  28.976  16.012  0.00  0.00    +0.000 C 
ATOM     15  C   UNL     1       0.441  28.274  13.173  0.00  0.00    +0.000 C 
ENDROOT
TORSDOF 0
ENDMDL
MODEL 4
REMARK VINA RESULT:      -4.7      2.727      5.097
REMARK  Name = 
REMARK  4 active torsions:
REMARK  status: ('A' for Active; 'I' for Inactive)
REMARK    1  A    between atoms: C_1  and  C_6
REMARK    2  A    between atoms: C_1  and  C_7
REMARK    3  A    between atoms: C_9  and  C_14
REMARK    4  A    between atoms: C_11  and  C_15
REMARK                            x       y       z     vdW  Elec       q    Type
REMARK                         _______ _______ _______ _____ _____    ______ ____
ROOT
ATOM      1  C   UNL     1      -3.613  27.305  17.504  0.00  0.00    +0.000 C 
ATOM      2  C   UNL     1      -3.135  27.484  16.066  0.00  0.00    +0.000 C 
ATOM      3  C   UNL     1      -3.603  26.131  16.539  0.00  0.00    +0.000 C 
ATOM      4  C   UNL     1      -1.731  27.783  15.791  0.00  0.00    +0.000 C 
ATOM      5  C   UNL     1      -2.663  24.970  16.621  0.00  0.00    +0.000 C 
ATOM      6  C   UNL     1      -2.641  27.342  18.660  0.00  0.00    +0.000 C 
ATOM      7  C   UNL     1      -4.961  27.890  17.855  0.00  0.00    +0.000 C 
ATOM      8  C   UNL     1      -0.725  26.991  15.375  0.00  0.00    +0.000 C 
ATOM      9  C   UNL     1      -1.256  29.210  15.984  0.00  0.00    +0.000 C 
ATOM     10  C   UNL     1      -2.007  24.722  15.263  0.00  0.00    +0.000 C 
ATOM     11  C   UNL     1      -0.701  25.514  15.054  0.00  0.00    +0.000 C 
ATOM     12  C   UNL     1       0.562  27.769  15.277  0.00  0.00    +0.000 C 
ATOM     13  C   UNL     1       0.261  29.037  16.066  0.00  0.00    +0.000 C 
ATOM     14  C   UNL     1      -1.671  30.119  14.829  0.00  0.00    +0.000 C 
ATOM     15  C   UNL     1      -0.215  25.278  13.617  0.00  0.00    +0.000 C 
ENDROOT
TORSDOF 0
ENDMDL
MODEL 5
REMARK VINA RESULT:      -4.7      2.341      4.757
REMARK  Name = 
REMARK  4 active torsions:
REMARK  status: ('A' for Active; 'I' for Inactive)
REMARK    1  A    between atoms: C_1  and  C_6
REMARK    2  A    between atoms: C_1  and  C_7
REMARK    3  A    between atoms: C_9  and  C_14
REMARK    4  A    between atoms: C_11  and  C_15
REMARK                            x       y       z     vdW  Elec       q    Type
REMARK                         _______ _______ _______ _____ _____    ______ ____
ROOT
ATOM      1  C   UNL     1       0.186  28.417  14.633  0.00  0.00    +0.000 C 
ATOM      2  C   UNL     1      -1.243  27.884  14.607  0.00  0.00    +0.000 C 
ATOM      3  C   UNL     1      -0.858  28.953  15.597  0.00  0.00    +0.000 C 
ATOM      4  C   UNL     1      -1.519  26.504  15.001  0.00  0.00    +0.000 C 
ATOM      5  C   UNL     1      -0.874  28.688  17.070  0.00  0.00    +0.000 C 
ATOM      6  C   UNL     1       1.326  27.569  15.149  0.00  0.00    +0.000 C 
ATOM      7  C   UNL     1       0.601  29.324  13.499  0.00  0.00    +0.000 C 
ATOM      8  C   UNL     1      -2.007  25.994  16.148  0.00  0.00    +0.000 C 
ATOM      9  C   UNL     1      -1.234  25.405  13.995  0.00  0.00    +0.000 C 
ATOM     10  C   UNL     1      -2.257  28.207  17.508  0.00  0.00    +0.000 C 
ATOM     11  C   UNL     1      -2.432  26.677  17.428  0.00  0.00    +0.000 C 
ATOM     12  C   UNL     1      -2.071  24.490  16.080  0.00  0.00    +0.000 C 
ATOM     13  C   UNL     1      -1.190  24.160  14.882  0.00  0.00    +0.000 C 
ATOM     14  C   UNL     1      -2.315  25.310  12.921  0.00  0.00    +0.000 C 
ATOM     15  C   UNL     1      -3.890  26.337  17.768  0.00  0.00    +0.000 C 
ENDROOT
TORSDOF 0
ENDMDL
MODEL 6
REMARK VINA RESULT:      -4.6     32.546     33.679
REMARK  Name = 
REMARK  4 active torsions:
REMARK  status: ('A' for Active; 'I' for Inactive)
REMARK    1  A    between atoms: C_1  and  C_6
REMARK    2  A    between atoms: C_1  and  C_7
REMARK    3  A    between atoms: C_9  and  C_14
REMARK    4  A    between atoms: C_11  and  C_15
REMARK                            x       y       z     vdW  Elec       q    Type
REMARK                         _______ _______ _______ _____ _____    ______ ____
ROOT
ATOM      1  C   UNL     1      29.663  11.187  18.613  0.00  0.00    +0.000 C 
ATOM      2  C   UNL     1      28.786  12.428  18.483  0.00  0.00    +0.000 C 
ATOM      3  C   UNL     1      28.711  11.343  17.439  0.00  0.00    +0.000 C 
ATOM      4  C   UNL     1      29.392  13.732  18.226  0.00  0.00    +0.000 C 
ATOM      5  C   UNL     1      29.134  11.595  16.026  0.00  0.00    +0.000 C 
ATOM      6  C   UNL     1      31.156  11.259  18.389  0.00  0.00    +0.000 C 
ATOM      7  C   UNL     1      29.281  10.185  19.676  0.00  0.00    +0.000 C 
ATOM      8  C   UNL     1      29.501  14.446  17.089  0.00  0.00    +0.000 C 
ATOM      9  C   UNL     1      30.026  14.466  19.392  0.00  0.00    +0.000 C 
ATOM     10  C   UNL     1      28.359  12.776  15.443  0.00  0.00    +0.000 C 
ATOM     11  C   UNL     1      29.036  14.140  15.683  0.00  0.00    +0.000 C 
ATOM     12  C   UNL     1      30.257  15.727  17.333  0.00  0.00    +0.000 C 
ATOM     13  C   UNL     1      30.917  15.487  18.685  0.00  0.00    +0.000 C 
ATOM     14  C   UNL     1      28.985  15.132  20.289  0.00  0.00    +0.000 C 
ATOM     15  C   UNL     1      28.103  15.244  15.167  0.00  0.00    +0.000 C 
ENDROOT
TORSDOF 0
ENDMDL
MODEL 7
REMARK VINA RESULT:      -4.6     16.418     19.132
REMARK  Name = 
REMARK  4 active torsions:
REMARK  status: ('A' for Active; 'I' for Inactive)
REMARK    1  A    between atoms: C_1  and  C_6
REMARK    2  A    between atoms: C_1  and  C_7
REMARK    3  A    between atoms: C_9  and  C_14
REMARK    4  A    between atoms: C_11  and  C_15
REMARK                            x       y       z     vdW  Elec       q    Type
REMARK                         _______ _______ _______ _____ _____    ______ ____
ROOT
ATOM      1  C   UNL     1       6.665  24.430  29.841  0.00  0.00    +0.000 C 
ATOM      2  C   UNL     1       7.852  24.135  28.929  0.00  0.00    +0.000 C 
ATOM      3  C   UNL     1       7.515  23.188  30.053  0.00  0.00    +0.000 C 
ATOM      4  C   UNL     1       9.029  25.002  28.952  0.00  0.00    +0.000 C 
ATOM      5  C   UNL     1       8.452  22.982  31.201  0.00  0.00    +0.000 C 
ATOM      6  C   UNL     1       6.714  25.558  30.845  0.00  0.00    +0.000 C 
ATOM      7  C   UNL     1       5.287  24.225  29.260  0.00  0.00    +0.000 C 
ATOM      8  C   UNL     1      10.231  24.843  29.539  0.00  0.00    +0.000 C 
ATOM      9  C   UNL     1       8.957  26.321  28.208  0.00  0.00    +0.000 C 
ATOM     10  C   UNL     1       9.824  22.540  30.694  0.00  0.00    +0.000 C 
ATOM     11  C   UNL     1      10.775  23.713  30.382  0.00  0.00    +0.000 C 
ATOM     12  C   UNL     1      11.103  26.049  29.303  0.00  0.00    +0.000 C 
ATOM     13  C   UNL     1      10.113  27.105  28.827  0.00  0.00    +0.000 C 
ATOM     14  C   UNL     1       9.122  26.143  26.700  0.00  0.00    +0.000 C 
ATOM     15  C   UNL     1      12.061  23.144  29.765  0.00  0.00    +0.000 C 
ENDROOT
TORSDOF 0
ENDMDL
MODEL 8
REMARK VINA RESULT:      -4.5     15.831     18.704
REMARK  Name = 
REMARK  4 active torsions:
REMARK  status: ('A' for Active; 'I' for Inactive)
REMARK    1  A    between atoms: C_1  and  C_6
REMARK    2  A    between atoms: C_1  and  C_7
REMARK    3  A    between atoms: C_9  and  C_14
REMARK    4  A    between atoms: C_11  and  C_15
REMARK                            x       y       z     vdW  Elec       q    Type
REMARK                         _______ _______ _______ _____ _____    ______ ____
ROOT
ATOM      1  C   UNL     1       7.527  24.806  31.010  0.00  0.00    +0.000 C 
ATOM      2  C   UNL     1       7.644  26.087  30.189  0.00  0.00    +0.000 C 
ATOM      3  C   UNL     1       6.962  24.878  29.601  0.00  0.00    +0.000 C 
ATOM      4  C   UNL     1       8.954  26.554  29.738  0.00  0.00    +0.000 C 
ATOM      5  C   UNL     1       7.534  24.164  28.417  0.00  0.00    +0.000 C 
ATOM      6  C   UNL     1       8.738  23.949  31.295  0.00  0.00    +0.000 C 
ATOM      7  C   UNL     1       6.533  24.809  32.146  0.00  0.00    +0.000 C 
ATOM      8  C   UNL     1       9.558  26.462  28.538  0.00  0.00    +0.000 C 
ATOM      9  C   UNL     1       9.836  27.274  30.739  0.00  0.00    +0.000 C 
ATOM     10  C   UNL     1       7.719  25.135  27.250  0.00  0.00    +0.000 C 
ATOM     11  C   UNL     1       9.091  25.838  27.243  0.00  0.00    +0.000 C 
ATOM     12  C   UNL     1      10.938  27.067  28.588  0.00  0.00    +0.000 C 
ATOM     13  C   UNL     1      11.214  27.178  30.083  0.00  0.00    +0.000 C 
ATOM     14  C   UNL     1       9.401  28.721  30.957  0.00  0.00    +0.000 C 
ATOM     15  C   UNL     1       9.101  26.871  26.107  0.00  0.00    +0.000 C 
ENDROOT
TORSDOF 0
ENDMDL
MODEL 9
REMARK VINA RESULT:      -4.5     13.292     16.654
REMARK  Name = 
REMARK  4 active torsions:
REMARK  status: ('A' for Active; 'I' for Inactive)
REMARK    1  A    between atoms: C_1  and  C_6
REMARK    2  A    between atoms: C_1  and  C_7
REMARK    3  A    between atoms: C_9  and  C_14
REMARK    4  A    between atoms: C_11  and  C_15
REMARK                            x       y       z     vdW  Elec       q    Type
REMARK                         _______ _______ _______ _____ _____    ______ ____
ROOT
ATOM      1  C   UNL     1       3.123  14.238   6.104  0.00  0.00    +0.000 C 
ATOM      2  C   UNL     1       3.128  14.346   7.626  0.00  0.00    +0.000 C 
ATOM      3  C   UNL     1       3.662  13.104   6.960  0.00  0.00    +0.000 C 
ATOM      4  C   UNL     1       1.867  14.367   8.365  0.00  0.00    +0.000 C 
ATOM      5  C   UNL     1       2.990  11.778   7.137  0.00  0.00    +0.000 C 
ATOM      6  C   UNL     1       1.833  14.060   5.338  0.00  0.00    +0.000 C 
ATOM      7  C   UNL     1       4.136  15.071   5.356  0.00  0.00    +0.000 C 
ATOM      8  C   UNL     1       1.230  13.399   9.051  0.00  0.00    +0.000 C 
ATOM      9  C   UNL     1       1.089  15.668   8.409  0.00  0.00    +0.000 C 
ATOM     10  C   UNL     1       2.886  11.431   8.622  0.00  0.00    +0.000 C 
ATOM     11  C   UNL     1       1.599  11.953   9.290  0.00  0.00    +0.000 C 
ATOM     12  C   UNL     1      -0.075  13.910   9.607  0.00  0.00    +0.000 C 
ATOM     13  C   UNL     1      -0.305  15.197   8.825  0.00  0.00    +0.000 C 
ATOM     14  C   UNL     1       1.683  16.662   9.404  0.00  0.00    +0.000 C 
ATOM     15  C   UNL     1       1.676  11.652  10.794  0.00  0.00    +0.000 C 
ENDROOT
TORSDOF 0
ENDMDL
