MODEL 1
REMARK VINA RESULT:      -6.6      0.000      0.000
REMARK  Name = JAK3_Inhibitor.pdbqt.pdb
REMARK  1 active torsions:
REMARK  status: ('A' for Active; 'I' for Inactive)
REMARK    1  A    between atoms: C_7  and  C_20
REMARK                            x       y       z     vdW  Elec       q    Type
REMARK                         _______ _______ _______ _____ _____    ______ ____
ROOT
ATOM      1  O   UNL     1      21.821  17.721  29.594  0.00  0.00    +0.000 OA
ATOM      2  N   UNL     1      22.238  15.419  29.711  0.00  0.00    +0.000 N 
ATOM      3  C   UNL     1      22.729  14.967  27.516  0.00  0.00    +0.000 A 
ATOM      4  C   UNL     1      22.596  14.427  28.797  0.00  0.00    +0.000 A 
ATOM      5  C   UNL     1      22.434  16.383  27.653  0.00  0.00    +0.000 C 
ATOM      6  C   UNL     1      23.077  14.173  26.442  0.00  0.00    +0.000 A 
ATOM      7  C   UNL     1      23.300  12.801  26.653  0.00  0.00    +0.000 A 
ATOM      8  C   UNL     1      22.117  16.655  29.088  0.00  0.00    +0.000 C 
ATOM      9  C   UNL     1      22.803  13.090  29.055  0.00  0.00    +0.000 A 
ATOM     10  C   UNL     1      22.431  17.287  26.726  0.00  0.00    +0.000 C 
ATOM     11  C   UNL     1      23.156  12.290  27.965  0.00  0.00    +0.000 A 
ATOM     12  H   UNL     1      22.083  15.282  30.700  0.00  0.00    +0.000 HD
ATOM     13  N   UNL     1      22.114  19.623  26.019  0.00  0.00    +0.000 N 
ATOM     14  C   UNL     1      22.416  18.314  25.748  0.00  0.00    +0.000 C 
ATOM     15  C   UNL     1      22.685  18.212  24.403  0.00  0.00    +0.000 C 
ATOM     16  C   UNL     1      22.187  20.356  24.864  0.00  0.00    +0.000 C 
ATOM     17  C   UNL     1      22.540  19.503  23.844  0.00  0.00    +0.000 C 
ATOM     18  H   UNL     1      21.875  19.989  26.931  0.00  0.00    +0.000 HD
ENDROOT
BRANCH   7  20
ATOM     19  N   UNL     1      24.403  11.661  23.230  0.00  0.00    +0.000 NA
ATOM     20  C   UNL     1      23.672  11.919  25.541  0.00  0.00    +0.000 A 
ATOM     21  C   UNL     1      23.673  10.528  25.663  0.00  0.00    +0.000 A 
ATOM     22  C   UNL     1      24.048  12.413  24.296  0.00  0.00    +0.000 A 
ATOM     23  C   UNL     1      24.030   9.709  24.598  0.00  0.00    +0.000 A 
ATOM     24  C   UNL     1      24.385  10.324  23.410  0.00  0.00    +0.000 A 
ENDBRANCH   7  20
TORSDOF 1
ENDMDL
MODEL 2
REMARK VINA RESULT:      -6.6      1.701      6.627
REMARK  Name = JAK3_Inhibitor.pdbqt.pdb
REMARK  1 active torsions:
REMARK  status: ('A' for Active; 'I' for Inactive)
REMARK    1  A    between atoms: C_7  and  C_20
REMARK                            x       y       z     vdW  Elec       q    Type
REMARK                         _______ _______ _______ _____ _____    ______ ____
ROOT
ATOM      1  O   UNL     1      22.957  12.478  28.819  0.00  0.00    +0.000 OA
ATOM      2  N   UNL     1      22.304  14.705  29.132  0.00  0.00    +0.000 N 
ATOM      3  C   UNL     1      22.847  15.594  27.088  0.00  0.00    +0.000 A 
ATOM      4  C   UNL     1      22.315  15.862  28.351  0.00  0.00    +0.000 A 
ATOM      5  C   UNL     1      23.186  14.181  27.094  0.00  0.00    +0.000 C 
ATOM      6  C   UNL     1      22.961  16.590  26.138  0.00  0.00    +0.000 A 
ATOM      7  C   UNL     1      22.528  17.888  26.459  0.00  0.00    +0.000 A 
ATOM      8  C   UNL     1      22.825  13.622  28.433  0.00  0.00    +0.000 C 
ATOM      9  C   UNL     1      21.877  17.116  28.712  0.00  0.00    +0.000 A 
ATOM     10  C   UNL     1      23.711  13.486  26.136  0.00  0.00    +0.000 C 
ATOM     11  C   UNL     1      21.993  18.121  27.748  0.00  0.00    +0.000 A 
ATOM     12  H   UNL     1      21.967  14.637  30.081  0.00  0.00    +0.000 HD
ATOM     13  N   UNL     1      24.554  11.346  25.262  0.00  0.00    +0.000 N 
ATOM     14  C   UNL     1      24.283  12.681  25.118  0.00  0.00    +0.000 C 
ATOM     15  C   UNL     1      24.662  13.055  23.850  0.00  0.00    +0.000 C 
ATOM     16  C   UNL     1      25.101  10.864  24.102  0.00  0.00    +0.000 C 
ATOM     17  C   UNL     1      25.179  11.906  23.207  0.00  0.00    +0.000 C 
ATOM     18  H   UNL     1      24.377  10.802  26.096  0.00  0.00    +0.000 HD
ENDROOT
BRANCH   7  20
ATOM     19  N   UNL     1      22.496  19.730  23.166  0.00  0.00    +0.000 NA
ATOM     20  C   UNL     1      22.629  18.977  25.481  0.00  0.00    +0.000 A 
ATOM     21  C   UNL     1      22.940  20.286  25.855  0.00  0.00    +0.000 A 
ATOM     22  C   UNL     1      22.420  18.775  24.120  0.00  0.00    +0.000 A 
ATOM     23  C   UNL     1      23.031  21.305  24.913  0.00  0.00    +0.000 A 
ATOM     24  C   UNL     1      22.800  20.975  23.590  0.00  0.00    +0.000 A 
ENDBRANCH   7  20
TORSDOF 1
ENDMDL
MODEL 3
REMARK VINA RESULT:      -6.3     18.067     19.104
REMARK  Name = JAK3_Inhibitor.pdbqt.pdb
REMARK  1 active torsions:
REMARK  status: ('A' for Active; 'I' for Inactive)
REMARK    1  A    between atoms: C_7  and  C_20
REMARK                            x       y       z     vdW  Elec       q    Type
REMARK                         _______ _______ _______ _____ _____    ______ ____
ROOT
ATOM      1  O   UNL     1      11.837  30.049  27.347  0.00  0.00    +0.000 OA
ATOM      2  N   UNL     1      10.506  28.381  26.380  0.00  0.00    +0.000 N 
ATOM      3  C   UNL     1       9.637  27.393  28.259  0.00  0.00    +0.000 A 
ATOM      4  C   UNL     1       9.668  27.375  26.863  0.00  0.00    +0.000 A 
ATOM      5  C   UNL     1      10.513  28.481  28.659  0.00  0.00    +0.000 C 
ATOM      6  C   UNL     1       8.874  26.485  28.966  0.00  0.00    +0.000 A 
ATOM      7  C   UNL     1       8.119  25.534  28.257  0.00  0.00    +0.000 A 
ATOM      8  C   UNL     1      11.068  29.110  27.422  0.00  0.00    +0.000 C 
ATOM      9  C   UNL     1       8.947  26.464  26.125  0.00  0.00    +0.000 A 
ATOM     10  C   UNL     1      10.796  28.873  29.861  0.00  0.00    +0.000 C 
ATOM     11  C   UNL     1       8.175  25.547  26.843  0.00  0.00    +0.000 A 
ATOM     12  H   UNL     1      10.695  28.575  25.407  0.00  0.00    +0.000 HD
ATOM     13  N   UNL     1      11.987  30.389  31.390  0.00  0.00    +0.000 N 
ATOM     14  C   UNL     1      11.136  29.341  31.155  0.00  0.00    +0.000 C 
ATOM     15  C   UNL     1      10.705  28.865  32.372  0.00  0.00    +0.000 C 
ATOM     16  C   UNL     1      12.105  30.587  32.740  0.00  0.00    +0.000 C 
ATOM     17  C   UNL     1      11.318  29.653  33.374  0.00  0.00    +0.000 C 
ATOM     18  H   UNL     1      12.454  30.931  30.675  0.00  0.00    +0.000 HD
ENDROOT
BRANCH   7  20
ATOM     19  N   UNL     1       5.084  23.777  29.650  0.00  0.00    +0.000 NA
ATOM     20  C   UNL     1       7.293  24.550  28.966  0.00  0.00    +0.000 A 
ATOM     21  C   UNL     1       7.847  23.457  29.635  0.00  0.00    +0.000 A 
ATOM     22  C   UNL     1       5.905  24.644  29.017  0.00  0.00    +0.000 A 
ATOM     23  C   UNL     1       7.047  22.535  30.301  0.00  0.00    +0.000 A 
ATOM     24  C   UNL     1       5.680  22.741  30.277  0.00  0.00    +0.000 A 
ENDBRANCH   7  20
TORSDOF 1
ENDMDL
MODEL 4
REMARK VINA RESULT:      -6.3     14.334     16.059
REMARK  Name = JAK3_Inhibitor.pdbqt.pdb
REMARK  1 active torsions:
REMARK  status: ('A' for Active; 'I' for Inactive)
REMARK    1  A    between atoms: C_7  and  C_20
REMARK                            x       y       z     vdW  Elec       q    Type
REMARK                         _______ _______ _______ _____ _____    ______ ____
ROOT
ATOM      1  O   UNL     1       5.122  23.267  31.226  0.00  0.00    +0.000 OA
ATOM      2  N   UNL     1       5.580  20.986  31.497  0.00  0.00    +0.000 N 
ATOM      3  C   UNL     1       7.703  20.877  30.635  0.00  0.00    +0.000 A 
ATOM      4  C   UNL     1       6.661  20.151  31.216  0.00  0.00    +0.000 A 
ATOM      5  C   UNL     1       7.230  22.249  30.555  0.00  0.00    +0.000 C 
ATOM      6  C   UNL     1       8.882  20.260  30.268  0.00  0.00    +0.000 A 
ATOM      7  C   UNL     1       9.025  18.880  30.488  0.00  0.00    +0.000 A 
ATOM      8  C   UNL     1       5.847  22.297  31.121  0.00  0.00    +0.000 C 
ATOM      9  C   UNL     1       6.753  18.797  31.452  0.00  0.00    +0.000 A 
ATOM     10  C   UNL     1       7.857  23.279  30.083  0.00  0.00    +0.000 C 
ATOM     11  C   UNL     1       7.948  18.177  31.080  0.00  0.00    +0.000 A 
ATOM     12  H   UNL     1       4.707  20.701  31.919  0.00  0.00    +0.000 HD
ATOM     13  N   UNL     1       7.930  25.683  29.564  0.00  0.00    +0.000 N 
ATOM     14  C   UNL     1       8.501  24.437  29.580  0.00  0.00    +0.000 C 
ATOM     15  C   UNL     1       9.761  24.542  29.036  0.00  0.00    +0.000 C 
ATOM     16  C   UNL     1       8.809  26.580  29.016  0.00  0.00    +0.000 C 
ATOM     17  C   UNL     1       9.955  25.897  28.679  0.00  0.00    +0.000 C 
ATOM     18  H   UNL     1       7.004  25.904  29.904  0.00  0.00    +0.000 HD
ENDROOT
BRANCH   7  20
ATOM     19  N   UNL     1      11.411  16.097  29.589  0.00  0.00    +0.000 NA
ATOM     20  C   UNL     1      10.261  18.182  30.114  0.00  0.00    +0.000 A 
ATOM     21  C   UNL     1      11.466  18.859  29.917  0.00  0.00    +0.000 A 
ATOM     22  C   UNL     1      10.310  16.803  29.933  0.00  0.00    +0.000 A 
ATOM     23  C   UNL     1      12.627  18.181  29.562  0.00  0.00    +0.000 A 
ATOM     24  C   UNL     1      12.544  16.808  29.412  0.00  0.00    +0.000 A 
ENDBRANCH   7  20
TORSDOF 1
ENDMDL
MODEL 5
REMARK VINA RESULT:      -6.2     14.997     17.097
REMARK  Name = JAK3_Inhibitor.pdbqt.pdb
REMARK  1 active torsions:
REMARK  status: ('A' for Active; 'I' for Inactive)
REMARK    1  A    between atoms: C_7  and  C_20
REMARK                            x       y       z     vdW  Elec       q    Type
REMARK                         _______ _______ _______ _____ _____    ______ ____
ROOT
ATOM      1  O   UNL     1       5.239  25.894  29.961  0.00  0.00    +0.000 OA
ATOM      2  N   UNL     1       5.191  23.611  30.483  0.00  0.00    +0.000 N 
ATOM      3  C   UNL     1       7.398  23.063  30.179  0.00  0.00    +0.000 A 
ATOM      4  C   UNL     1       6.134  22.584  30.531  0.00  0.00    +0.000 A 
ATOM      5  C   UNL     1       7.219  24.477  29.896  0.00  0.00    +0.000 C 
ATOM      6  C   UNL     1       8.495  22.225  30.153  0.00  0.00    +0.000 A 
ATOM      7  C   UNL     1       8.324  20.871  30.491  0.00  0.00    +0.000 A 
ATOM      8  C   UNL     1       5.776  24.813  30.100  0.00  0.00    +0.000 C 
ATOM      9  C   UNL     1       5.917  21.267  30.869  0.00  0.00    +0.000 A 
ATOM     10  C   UNL     1       8.117  25.333  29.528  0.00  0.00    +0.000 C 
ATOM     11  C   UNL     1       7.029  20.423  30.843  0.00  0.00    +0.000 A 
ATOM     12  H   UNL     1       4.208  23.521  30.695  0.00  0.00    +0.000 HD
ATOM     13  N   UNL     1       8.753  27.623  28.888  0.00  0.00    +0.000 N 
ATOM     14  C   UNL     1       9.064  26.309  29.125  0.00  0.00    +0.000 C 
ATOM     15  C   UNL     1      10.411  26.147  28.902  0.00  0.00    +0.000 C 
ATOM     16  C   UNL     1       9.884  28.299  28.516  0.00  0.00    +0.000 C 
ATOM     17  C   UNL     1      10.930  27.405  28.517  0.00  0.00    +0.000 C 
ATOM     18  H   UNL     1       7.830  28.028  28.975  0.00  0.00    +0.000 HD
ENDROOT
BRANCH   7  20
ATOM     19  N   UNL     1      11.836  19.540  30.854  0.00  0.00    +0.000 NA
ATOM     20  C   UNL     1       9.462  19.944  30.478  0.00  0.00    +0.000 A 
ATOM     21  C   UNL     1       9.327  18.607  30.100  0.00  0.00    +0.000 A 
ATOM     22  C   UNL     1      10.746  20.338  30.843  0.00  0.00    +0.000 A 
ATOM     23  C   UNL     1      10.417  17.743  30.095  0.00  0.00    +0.000 A 
ATOM     24  C   UNL     1      11.642  18.258  30.479  0.00  0.00    +0.000 A 
ENDBRANCH   7  20
TORSDOF 1
ENDMDL
MODEL 6
REMARK VINA RESULT:      -5.8      3.390      7.268
REMARK  Name = JAK3_Inhibitor.pdbqt.pdb
REMARK  1 active torsions:
REMARK  status: ('A' for Active; 'I' for Inactive)
REMARK    1  A    between atoms: C_7  and  C_20
REMARK                            x       y       z     vdW  Elec       q    Type
REMARK                         _______ _______ _______ _____ _____    ______ ____
ROOT
ATOM      1  O   UNL     1      24.487   8.979  23.897  0.00  0.00    +0.000 OA
ATOM      2  N   UNL     1      23.347  10.355  25.411  0.00  0.00    +0.000 N 
ATOM      3  C   UNL     1      24.246  12.399  24.882  0.00  0.00    +0.000 A 
ATOM      4  C   UNL     1      23.344  11.720  25.704  0.00  0.00    +0.000 A 
ATOM      5  C   UNL     1      24.841  11.385  24.028  0.00  0.00    +0.000 C 
ATOM      6  C   UNL     1      24.417  13.765  24.989  0.00  0.00    +0.000 A 
ATOM      7  C   UNL     1      23.666  14.472  25.944  0.00  0.00    +0.000 A 
ATOM      8  C   UNL     1      24.243  10.063  24.389  0.00  0.00    +0.000 C 
ATOM      9  C   UNL     1      22.586  12.368  26.654  0.00  0.00    +0.000 A 
ATOM     10  C   UNL     1      25.736  11.548  23.106  0.00  0.00    +0.000 C 
ATOM     11  C   UNL     1      22.762  13.749  26.759  0.00  0.00    +0.000 A 
ATOM     12  H   UNL     1      22.782   9.653  25.866  0.00  0.00    +0.000 HD
ATOM     13  N   UNL     1      27.191  10.620  21.353  0.00  0.00    +0.000 N 
ATOM     14  C   UNL     1      26.713  11.674  22.086  0.00  0.00    +0.000 C 
ATOM     15  C   UNL     1      27.344  12.815  21.649  0.00  0.00    +0.000 C 
ATOM     16  C   UNL     1      28.120  11.075  20.454  0.00  0.00    +0.000 C 
ATOM     17  C   UNL     1      28.235  12.436  20.618  0.00  0.00    +0.000 C 
ATOM     18  H   UNL     1      26.902   9.657  21.459  0.00  0.00    +0.000 HD
ENDROOT
BRANCH   7  20
ATOM     19  N   UNL     1      25.237  17.842  26.585  0.00  0.00    +0.000 NA
ATOM     20  C   UNL     1      23.815  15.924  26.093  0.00  0.00    +0.000 A 
ATOM     21  C   UNL     1      22.747  16.804  25.904  0.00  0.00    +0.000 A 
ATOM     22  C   UNL     1      25.028  16.515  26.431  0.00  0.00    +0.000 A 
ATOM     23  C   UNL     1      22.909  18.177  26.050  0.00  0.00    +0.000 A 
ATOM     24  C   UNL     1      24.167  18.641  26.389  0.00  0.00    +0.000 A 
ENDBRANCH   7  20
TORSDOF 1
ENDMDL
MODEL 7
REMARK VINA RESULT:      -5.8     23.742     25.898
REMARK  Name = JAK3_Inhibitor.pdbqt.pdb
REMARK  1 active torsions:
REMARK  status: ('A' for Active; 'I' for Inactive)
REMARK    1  A    between atoms: C_7  and  C_20
REMARK                            x       y       z     vdW  Elec       q    Type
REMARK                         _______ _______ _______ _____ _____    ______ ____
ROOT
ATOM      1  O   UNL     1      22.726  25.608   1.689  0.00  0.00    +0.000 OA
ATOM      2  N   UNL     1      20.855  26.908   2.231  0.00  0.00    +0.000 N 
ATOM      3  C   UNL     1      21.480  27.710   4.287  0.00  0.00    +0.000 A 
ATOM      4  C   UNL     1      20.480  27.706   3.312  0.00  0.00    +0.000 A 
ATOM      5  C   UNL     1      22.538  26.858   3.770  0.00  0.00    +0.000 C 
ATOM      6  C   UNL     1      21.333  28.432   5.455  0.00  0.00    +0.000 A 
ATOM      7  C   UNL     1      20.155  29.172   5.653  0.00  0.00    +0.000 A 
ATOM      8  C   UNL     1      22.111  26.348   2.432  0.00  0.00    +0.000 C 
ATOM      9  C   UNL     1      19.309  28.415   3.460  0.00  0.00    +0.000 A 
ATOM     10  C   UNL     1      23.667  26.564   4.332  0.00  0.00    +0.000 C 
ATOM     11  C   UNL     1      19.164  29.145   4.642  0.00  0.00    +0.000 A 
ATOM     12  H   UNL     1      20.305  26.744   1.399  0.00  0.00    +0.000 HD
ATOM     13  N   UNL     1      25.828  25.387   4.299  0.00  0.00    +0.000 N 
ATOM     14  C   UNL     1      24.915  26.212   4.904  0.00  0.00    +0.000 C 
ATOM     15  C   UNL     1      25.437  26.604   6.115  0.00  0.00    +0.000 C 
ATOM     16  C   UNL     1      26.923  25.248   5.109  0.00  0.00    +0.000 C 
ATOM     17  C   UNL     1      26.707  25.994   6.245  0.00  0.00    +0.000 C 
ATOM     18  H   UNL     1      25.708  24.950   3.395  0.00  0.00    +0.000 HD
ENDROOT
BRANCH   7  20
ATOM     19  N   UNL     1      20.655  30.503   9.148  0.00  0.00    +0.000 NA
ATOM     20  C   UNL     1      19.956  29.955   6.878  0.00  0.00    +0.000 A 
ATOM     21  C   UNL     1      18.926  30.889   7.004  0.00  0.00    +0.000 A 
ATOM     22  C   UNL     1      20.780  29.817   7.990  0.00  0.00    +0.000 A 
ATOM     23  C   UNL     1      18.753  31.622   8.173  0.00  0.00    +0.000 A 
ATOM     24  C   UNL     1      19.641  31.391   9.208  0.00  0.00    +0.000 A 
ENDBRANCH   7  20
TORSDOF 1
ENDMDL
MODEL 8
REMARK VINA RESULT:      -5.8      4.562      7.041
REMARK  Name = JAK3_Inhibitor.pdbqt.pdb
REMARK  1 active torsions:
REMARK  status: ('A' for Active; 'I' for Inactive)
REMARK    1  A    between atoms: C_7  and  C_20
REMARK                            x       y       z     vdW  Elec       q    Type
REMARK                         _______ _______ _______ _____ _____    ______ ____
ROOT
ATOM      1  O   UNL     1      23.043  21.660  23.184  0.00  0.00    +0.000 OA
ATOM      2  N   UNL     1      22.736  19.478  23.976  0.00  0.00    +0.000 N 
ATOM      3  C   UNL     1      22.571  19.867  26.231  0.00  0.00    +0.000 A 
ATOM      4  C   UNL     1      22.558  18.892  25.230  0.00  0.00    +0.000 A 
ATOM      5  C   UNL     1      22.770  21.133  25.546  0.00  0.00    +0.000 C 
ATOM      6  C   UNL     1      22.413  19.525  27.559  0.00  0.00    +0.000 A 
ATOM      7  C   UNL     1      22.236  18.172  27.897  0.00  0.00    +0.000 A 
ATOM      8  C   UNL     1      22.875  20.857  24.080  0.00  0.00    +0.000 C 
ATOM      9  C   UNL     1      22.388  17.555  25.511  0.00  0.00    +0.000 A 
ATOM     10  C   UNL     1      22.850  22.315  26.069  0.00  0.00    +0.000 C 
ATOM     11  C   UNL     1      22.228  17.213  26.856  0.00  0.00    +0.000 A 
ATOM     12  H   UNL     1      22.763  18.986  23.094  0.00  0.00    +0.000 HD
ATOM     13  N   UNL     1      23.137  24.746  25.821  0.00  0.00    +0.000 N 
ATOM     14  C   UNL     1      22.944  23.629  26.592  0.00  0.00    +0.000 C 
ATOM     15  C   UNL     1      22.865  24.030  27.905  0.00  0.00    +0.000 C 
ATOM     16  C   UNL     1      23.183  25.853  26.627  0.00  0.00    +0.000 C 
ATOM     17  C   UNL     1      23.017  25.436  27.927  0.00  0.00    +0.000 C 
ATOM     18  H   UNL     1      23.231  24.750  24.814  0.00  0.00    +0.000 HD
ENDROOT
BRANCH   7  20
ATOM     19  N   UNL     1      21.817  18.378  31.641  0.00  0.00    +0.000 NA
ATOM     20  C   UNL     1      22.065  17.762  29.295  0.00  0.00    +0.000 A 
ATOM     21  C   UNL     1      21.979  16.420  29.672  0.00  0.00    +0.000 A 
ATOM     22  C   UNL     1      21.975  18.684  30.334  0.00  0.00    +0.000 A 
ATOM     23  C   UNL     1      21.816  16.052  31.003  0.00  0.00    +0.000 A 
ATOM     24  C   UNL     1      21.741  17.064  31.942  0.00  0.00    +0.000 A 
ENDBRANCH   7  20
TORSDOF 1
ENDMDL
MODEL 9
REMARK VINA RESULT:      -5.6     29.660     30.239
REMARK  Name = JAK3_Inhibitor.pdbqt.pdb
REMARK  1 active torsions:
REMARK  status: ('A' for Active; 'I' for Inactive)
REMARK    1  A    between atoms: C_7  and  C_20
REMARK                            x       y       z     vdW  Elec       q    Type
REMARK                         _______ _______ _______ _____ _____    ______ ____
ROOT
ATOM      1  O   UNL     1      -4.825  23.642  18.455  0.00  0.00    +0.000 OA
ATOM      2  N   UNL     1      -3.902  25.779  18.716  0.00  0.00    +0.000 N 
ATOM      3  C   UNL     1      -2.810  26.013  16.712  0.00  0.00    +0.000 A 
ATOM      4  C   UNL     1      -3.108  26.619  17.934  0.00  0.00    +0.000 A 
ATOM      5  C   UNL     1      -3.463  24.716  16.745  0.00  0.00    +0.000 C 
ATOM      6  C   UNL     1      -2.033  26.657  15.769  0.00  0.00    +0.000 A 
ATOM      7  C   UNL     1      -1.541  27.942  16.056  0.00  0.00    +0.000 A 
ATOM      8  C   UNL     1      -4.168  24.584  18.057  0.00  0.00    +0.000 C 
ATOM      9  C   UNL     1      -2.651  27.877  18.261  0.00  0.00    +0.000 A 
ATOM     10  C   UNL     1      -3.463  23.802  15.828  0.00  0.00    +0.000 C 
ATOM     11  C   UNL     1      -1.866  28.525  17.304  0.00  0.00    +0.000 A 
ATOM     12  H   UNL     1      -4.252  25.988  19.640  0.00  0.00    +0.000 HD
ATOM     13  N   UNL     1      -4.156  21.584  15.020  0.00  0.00    +0.000 N 
ATOM     14  C   UNL     1      -3.494  22.772  14.854  0.00  0.00    +0.000 C 
ATOM     15  C   UNL     1      -2.899  22.755  13.614  0.00  0.00    +0.000 C 
ATOM     16  C   UNL     1      -3.990  20.810  13.902  0.00  0.00    +0.000 C 
ATOM     17  C   UNL     1      -3.213  21.514  13.012  0.00  0.00    +0.000 C 
ATOM     18  H   UNL     1      -4.684  21.321  15.842  0.00  0.00    +0.000 HD
ENDROOT
BRANCH   7  20
ATOM     19  N   UNL     1       0.402  30.723  14.404  0.00  0.00    +0.000 NA
ATOM     20  C   UNL     1      -0.712  28.664  15.084  0.00  0.00    +0.000 A 
ATOM     21  C   UNL     1      -0.227  28.057  13.924  0.00  0.00    +0.000 A 
ATOM     22  C   UNL     1      -0.356  29.998  15.257  0.00  0.00    +0.000 A 
ATOM     23  C   UNL     1       0.557  28.758  13.015  0.00  0.00    +0.000 A 
ATOM     24  C   UNL     1       0.841  30.081  13.302  0.00  0.00    +0.000 A 
ENDBRANCH   7  20
TORSDOF 1
ENDMDL
