MODEL 1
REMARK VINA RESULT:      -5.2      0.000      0.000
REMARK  Name = Leptomycin.pdbqt.pdb
REMARK  12 active torsions:
REMARK  status: ('A' for Active; 'I' for Inactive)
REMARK    1  A    between atoms: C_2  and  C_4
REMARK    2  A    between atoms: C_5  and  C_6
REMARK    3  A    between atoms: C_6  and  C_7
REMARK    4  A    between atoms: C_10  and  C_11
REMARK    5  A    between atoms: C_10  and  C_21
REMARK    6  A    between atoms: C_12  and  C_13
REMARK    7  A    between atoms: C_23  and  C_25
REMARK    8  A    between atoms: C_25  and  C_27
REMARK    9  A    between atoms: C_27  and  C_29
REMARK   10  A    between atoms: C_29  and  O_30
REMARK   11  A    between atoms: C_29  and  C_32
REMARK   12  A    between atoms: C_38  and  O_40
REMARK                            x       y       z     vdW  Elec       q    Type
REMARK                         _______ _______ _______ _____ _____    ______ ____
ROOT
ATOM      1  C   UNL     1      26.184  13.183  26.137  0.00  0.00    +0.000 C 
ATOM      2  C   UNL     1      27.177  12.421  26.464  0.00  0.00    +0.000 C 
ATOM      3  C   UNL     1      27.977  12.765  27.687  0.00  0.00    +0.000 C 
ATOM      4  C   UNL     1      25.055  13.954  25.761  0.00  0.00    +0.000 C 
ATOM      5  C   UNL     1      25.368  15.225  24.990  0.00  0.00    +0.000 C 
ENDROOT
BRANCH   2   6
ATOM      6  C   UNL     1      27.192  11.083  25.999  0.00  0.00    +0.000 C 
ATOM      7  C   UNL     1      27.234   9.969  25.551  0.00  0.00    +0.000 C 
BRANCH   7   8
ATOM      8  C   UNL     1      27.339   8.598  24.876  0.00  0.00    +0.000 C 
BRANCH   8   9
ATOM      9  C   UNL     1      27.414   7.430  24.078  0.00  0.00    +0.000 C 
ATOM     10  C   UNL     1      27.530   6.091  24.738  0.00  0.00    +0.000 C 
ATOM     11  C   UNL     1      27.494   7.510  22.666  0.00  0.00    +0.000 C 
ATOM     12  C   UNL     1      27.574   7.778  21.398  0.00  0.00    +0.000 C 
BRANCH  12  13
ATOM     13  C   UNL     1      27.663   9.157  21.066  0.00  0.00    +0.000 C 
ATOM     14  C   UNL     1      27.874  10.304  20.781  0.00  0.00    +0.000 C 
BRANCH  14  15
ATOM     15  C   UNL     1      28.258  11.625  20.435  0.00  0.00    +0.000 A 
ATOM     16  O   UNL     1      28.824  11.810  19.102  0.00  0.00    +0.000 OA
ATOM     17  C   UNL     1      29.209  13.061  18.628  0.00  0.00    +0.000 A 
ATOM     18  O   UNL     1      29.653  13.274  17.510  0.00  0.00    +0.000 OA
ATOM     19  C   UNL     1      28.998  14.087  19.606  0.00  0.00    +0.000 A 
ATOM     20  C   UNL     1      28.546  13.987  20.706  0.00  0.00    +0.000 A 
ATOM     21  C   UNL     1      28.104  12.791  21.313  0.00  0.00    +0.000 A 
ATOM     22  C   UNL     1      27.509  12.795  22.686  0.00  0.00    +0.000 C 
ENDBRANCH  14  15
ENDBRANCH  12  13
BRANCH  12  23
ATOM     23  C   UNL     1      27.588   6.713  20.464  0.00  0.00    +0.000 C 
ATOM     24  C   UNL     1      27.606   5.555  19.459  0.00  0.00    +0.000 C 
ENDBRANCH  12  23
ENDBRANCH   8   9
ENDBRANCH   7   8
ENDBRANCH   2   6
BRANCH   4  25
ATOM     25  C   UNL     1      23.727  13.278  25.629  0.00  0.00    +0.000 C 
ATOM     26  O   UNL     1      22.663  13.859  25.870  0.00  0.00    +0.000 OA
BRANCH  25  27
ATOM     27  C   UNL     1      23.735  11.834  25.245  0.00  0.00    +0.000 C 
ATOM     28  C   UNL     1      24.100  11.435  23.817  0.00  0.00    +0.000 C 
BRANCH  27  29
ATOM     29  C   UNL     1      23.115  10.869  26.148  0.00  0.00    +0.000 C 
BRANCH  29  30
ATOM     30  C   UNL     1      23.752   9.840  26.950  0.00  0.00    +0.000 C 
ATOM     31  C   UNL     1      23.793   8.407  26.464  0.00  0.00    +0.000 C 
ATOM     32  C   UNL     1      24.515  10.109  28.110  0.00  0.00    +0.000 C 
ATOM     33  C   UNL     1      25.274  10.312  29.282  0.00  0.00    +0.000 C 
ATOM     34  C   UNL     1      24.790  11.306  30.291  0.00  0.00    +0.000 C 
ATOM     35  C   UNL     1      26.419   9.739  29.422  0.00  0.00    +0.000 C 
ATOM     36  C   UNL     1      27.688   9.110  29.549  0.00  0.00    +0.000 C 
ATOM     37  O   UNL     1      28.601   9.299  28.766  0.00  0.00    +0.000 OA
BRANCH  36  38
ATOM     38  O   UNL     1      27.784   8.274  30.594  0.00  0.00    +0.000 OA
ATOM     39  H   UNL     1      28.310   7.520  30.259  0.00  0.00    +0.000 HD
ENDBRANCH  36  38
ENDBRANCH  29  30
BRANCH  29  40
ATOM     40  O   UNL     1      21.729  10.973  26.286  0.00  0.00    +0.000 OA
ATOM     41  H   UNL     1      21.253  10.387  25.661  0.00  0.00    +0.000 HD
ENDBRANCH  29  40
ENDBRANCH  27  29
ENDBRANCH  25  27
ENDBRANCH   4  25
TORSDOF 12
ENDMDL
MODEL 2
REMARK VINA RESULT:      -5.0      1.864      4.557
REMARK  Name = Leptomycin.pdbqt.pdb
REMARK  12 active torsions:
REMARK  status: ('A' for Active; 'I' for Inactive)
REMARK    1  A    between atoms: C_2  and  C_4
REMARK    2  A    between atoms: C_5  and  C_6
REMARK    3  A    between atoms: C_6  and  C_7
REMARK    4  A    between atoms: C_10  and  C_11
REMARK    5  A    between atoms: C_10  and  C_21
REMARK    6  A    between atoms: C_12  and  C_13
REMARK    7  A    between atoms: C_23  and  C_25
REMARK    8  A    between atoms: C_25  and  C_27
REMARK    9  A    between atoms: C_27  and  C_29
REMARK   10  A    between atoms: C_29  and  O_30
REMARK   11  A    between atoms: C_29  and  C_32
REMARK   12  A    between atoms: C_38  and  O_40
REMARK                            x       y       z     vdW  Elec       q    Type
REMARK                         _______ _______ _______ _____ _____    ______ ____
ROOT
ATOM      1  C   UNL     1      26.010  12.840  26.478  0.00  0.00    +0.000 C 
ATOM      2  C   UNL     1      27.294  12.987  26.427  0.00  0.00    +0.000 C 
ATOM      3  C   UNL     1      28.155  12.118  27.296  0.00  0.00    +0.000 C 
ATOM      4  C   UNL     1      24.601  12.686  26.457  0.00  0.00    +0.000 C 
ATOM      5  C   UNL     1      23.858  13.377  27.590  0.00  0.00    +0.000 C 
ENDROOT
BRANCH   2   6
ATOM      6  C   UNL     1      27.868  13.566  25.268  0.00  0.00    +0.000 C 
ATOM      7  C   UNL     1      28.298  14.049  24.255  0.00  0.00    +0.000 C 
BRANCH   7   8
ATOM      8  C   UNL     1      28.732  14.646  22.913  0.00  0.00    +0.000 C 
BRANCH   8   9
ATOM      9  C   UNL     1      28.937  15.211  21.631  0.00  0.00    +0.000 C 
ATOM     10  C   UNL     1      29.057  16.696  21.489  0.00  0.00    +0.000 C 
ATOM     11  C   UNL     1      28.920  14.408  20.464  0.00  0.00    +0.000 C 
ATOM     12  C   UNL     1      28.857  13.524  19.515  0.00  0.00    +0.000 C 
BRANCH  12  13
ATOM     13  C   UNL     1      28.512  12.208  19.924  0.00  0.00    +0.000 C 
ATOM     14  C   UNL     1      28.334  11.097  20.344  0.00  0.00    +0.000 C 
BRANCH  14  15
ATOM     15  C   UNL     1      28.238   9.803  20.918  0.00  0.00    +0.000 A 
ATOM     16  O   UNL     1      27.896   8.713  20.011  0.00  0.00    +0.000 OA
ATOM     17  C   UNL     1      27.803   7.392  20.442  0.00  0.00    +0.000 A 
ATOM     18  O   UNL     1      27.556   6.440  19.718  0.00  0.00    +0.000 OA
ATOM     19  C   UNL     1      28.057   7.273  21.848  0.00  0.00    +0.000 A 
ATOM     20  C   UNL     1      28.334   8.131  22.630  0.00  0.00    +0.000 A 
ATOM     21  C   UNL     1      28.474   9.506  22.336  0.00  0.00    +0.000 A 
ATOM     22  C   UNL     1      28.872  10.486  23.394  0.00  0.00    +0.000 C 
ENDBRANCH  14  15
ENDBRANCH  12  13
BRANCH  12  23
ATOM     23  C   UNL     1      29.109  13.923  18.179  0.00  0.00    +0.000 C 
ATOM     24  C   UNL     1      29.378  14.361  16.734  0.00  0.00    +0.000 C 
ENDBRANCH  12  23
ENDBRANCH   8   9
ENDBRANCH   7   8
ENDBRANCH   2   6
BRANCH   4  25
ATOM     25  C   UNL     1      23.922  12.390  25.157  0.00  0.00    +0.000 C 
ATOM     26  O   UNL     1      22.812  12.851  24.871  0.00  0.00    +0.000 OA
BRANCH  25  27
ATOM     27  C   UNL     1      24.620  11.454  24.225  0.00  0.00    +0.000 C 
ATOM     28  C   UNL     1      25.440  12.016  23.066  0.00  0.00    +0.000 C 
BRANCH  27  29
ATOM     29  C   UNL     1      24.267  10.038  24.264  0.00  0.00    +0.000 C 
BRANCH  29  30
ATOM     30  C   UNL     1      24.877   8.974  25.040  0.00  0.00    +0.000 C 
ATOM     31  C   UNL     1      25.284   7.677  24.373  0.00  0.00    +0.000 C 
ATOM     32  C   UNL     1      25.293   9.121  26.384  0.00  0.00    +0.000 C 
ATOM     33  C   UNL     1      25.715   9.201  27.727  0.00  0.00    +0.000 C 
ATOM     34  C   UNL     1      24.843   9.912  28.716  0.00  0.00    +0.000 C 
ATOM     35  C   UNL     1      26.881   8.774  28.069  0.00  0.00    +0.000 C 
ATOM     36  C   UNL     1      28.179   8.312  28.422  0.00  0.00    +0.000 C 
ATOM     37  O   UNL     1      29.197   8.767  27.937  0.00  0.00    +0.000 OA
BRANCH  36  38
ATOM     38  O   UNL     1      28.180   7.315  29.321  0.00  0.00    +0.000 OA
ATOM     39  H   UNL     1      27.233   7.101  29.451  0.00  0.00    +0.000 HD
ENDBRANCH  36  38
ENDBRANCH  29  30
BRANCH  29  40
ATOM     40  O   UNL     1      23.173   9.666  23.479  0.00  0.00    +0.000 OA
ATOM     41  H   UNL     1      22.567  10.417  23.315  0.00  0.00    +0.000 HD
ENDBRANCH  29  40
ENDBRANCH  27  29
ENDBRANCH  25  27
ENDBRANCH   4  25
TORSDOF 12
ENDMDL
MODEL 3
REMARK VINA RESULT:      -4.9      2.867      7.676
REMARK  Name = Leptomycin.pdbqt.pdb
REMARK  12 active torsions:
REMARK  status: ('A' for Active; 'I' for Inactive)
REMARK    1  A    between atoms: C_2  and  C_4
REMARK    2  A    between atoms: C_5  and  C_6
REMARK    3  A    between atoms: C_6  and  C_7
REMARK    4  A    between atoms: C_10  and  C_11
REMARK    5  A    between atoms: C_10  and  C_21
REMARK    6  A    between atoms: C_12  and  C_13
REMARK    7  A    between atoms: C_23  and  C_25
REMARK    8  A    between atoms: C_25  and  C_27
REMARK    9  A    between atoms: C_27  and  C_29
REMARK   10  A    between atoms: C_29  and  O_30
REMARK   11  A    between atoms: C_29  and  C_32
REMARK   12  A    between atoms: C_38  and  O_40
REMARK                            x       y       z     vdW  Elec       q    Type
REMARK                         _______ _______ _______ _____ _____    ______ ____
ROOT
ATOM      1  C   UNL     1      25.456  10.089  26.346  0.00  0.00    +0.000 C 
ATOM      2  C   UNL     1      26.637  10.107  26.873  0.00  0.00    +0.000 C 
ATOM      3  C   UNL     1      27.105   8.901  27.635  0.00  0.00    +0.000 C 
ATOM      4  C   UNL     1      24.190  10.104  25.706  0.00  0.00    +0.000 C 
ATOM      5  C   UNL     1      23.012  10.430  26.610  0.00  0.00    +0.000 C 
ENDROOT
BRANCH   2   6
ATOM      6  C   UNL     1      27.608  10.990  26.339  0.00  0.00    +0.000 C 
ATOM      7  C   UNL     1      28.384  11.781  25.875  0.00  0.00    +0.000 C 
BRANCH   7   8
ATOM      8  C   UNL     1      29.275  12.865  25.261  0.00  0.00    +0.000 C 
BRANCH   8   9
ATOM      9  C   UNL     1      29.983  13.850  24.529  0.00  0.00    +0.000 C 
ATOM     10  C   UNL     1      31.466  13.727  24.370  0.00  0.00    +0.000 C 
ATOM     11  C   UNL     1      29.333  15.008  24.037  0.00  0.00    +0.000 C 
ATOM     12  C   UNL     1      28.577  16.001  23.680  0.00  0.00    +0.000 C 
BRANCH  12  13
ATOM     13  C   UNL     1      27.240  15.959  24.159  0.00  0.00    +0.000 C 
ATOM     14  C   UNL     1      26.157  15.981  24.679  0.00  0.00    +0.000 C 
BRANCH  14  15
ATOM     15  C   UNL     1      24.938  16.074  25.399  0.00  0.00    +0.000 A 
ATOM     16  O   UNL     1      24.080  17.211  25.082  0.00  0.00    +0.000 OA
ATOM     17  C   UNL     1      22.843  17.398  25.693  0.00  0.00    +0.000 A 
ATOM     18  O   UNL     1      22.073  18.311  25.438  0.00  0.00    +0.000 OA
ATOM     19  C   UNL     1      22.564  16.369  26.651  0.00  0.00    +0.000 A 
ATOM     20  C   UNL     1      23.232  15.427  26.949  0.00  0.00    +0.000 A 
ATOM     21  C   UNL     1      24.496  15.103  26.407  0.00  0.00    +0.000 A 
ATOM     22  C   UNL     1      25.223  13.865  26.825  0.00  0.00    +0.000 C 
ENDBRANCH  14  15
ENDBRANCH  12  13
BRANCH  12  23
ATOM     23  C   UNL     1      29.124  17.036  22.882  0.00  0.00    +0.000 C 
ATOM     24  C   UNL     1      29.720  18.160  22.025  0.00  0.00    +0.000 C 
ENDBRANCH  12  23
ENDBRANCH   8   9
ENDBRANCH   7   8
ENDBRANCH   2   6
BRANCH   4  25
ATOM     25  C   UNL     1      24.126  10.357  24.233  0.00  0.00    +0.000 C 
ATOM     26  O   UNL     1      23.152  10.026  23.549  0.00  0.00    +0.000 OA
BRANCH  25  27
ATOM     27  C   UNL     1      25.326  10.980  23.597  0.00  0.00    +0.000 C 
ATOM     28  C   UNL     1      25.397  12.497  23.447  0.00  0.00    +0.000 C 
BRANCH  27  29
ATOM     29  C   UNL     1      26.259  10.120  22.876  0.00  0.00    +0.000 C 
BRANCH  29  30
ATOM     30  C   UNL     1      27.676  10.322  22.636  0.00  0.00    +0.000 C 
ATOM     31  C   UNL     1      28.691   9.331  23.166  0.00  0.00    +0.000 C 
ATOM     32  C   UNL     1      28.193  11.314  21.771  0.00  0.00    +0.000 C 
ATOM     33  C   UNL     1      28.769  12.292  20.933  0.00  0.00    +0.000 C 
ATOM     34  C   UNL     1      28.206  13.680  20.952  0.00  0.00    +0.000 C 
ATOM     35  C   UNL     1      29.682  11.966  20.085  0.00  0.00    +0.000 C 
ATOM     36  C   UNL     1      30.677  11.581  19.145  0.00  0.00    +0.000 C 
ATOM     37  O   UNL     1      30.477  10.760  18.269  0.00  0.00    +0.000 OA
BRANCH  36  38
ATOM     38  O   UNL     1      31.861  12.188  19.320  0.00  0.00    +0.000 OA
ATOM     39  H   UNL     1      32.030  12.647  18.472  0.00  0.00    +0.000 HD
ENDBRANCH  36  38
ENDBRANCH  29  30
BRANCH  29  40
ATOM     40  O   UNL     1      25.725   8.927  22.383  0.00  0.00    +0.000 OA
ATOM     41  H   UNL     1      24.767   8.848  22.572  0.00  0.00    +0.000 HD
ENDBRANCH  29  40
ENDBRANCH  27  29
ENDBRANCH  25  27
ENDBRANCH   4  25
TORSDOF 12
ENDMDL
MODEL 4
REMARK VINA RESULT:      -4.3     33.147     36.571
REMARK  Name = Leptomycin.pdbqt.pdb
REMARK  12 active torsions:
REMARK  status: ('A' for Active; 'I' for Inactive)
REMARK    1  A    between atoms: C_2  and  C_4
REMARK    2  A    between atoms: C_5  and  C_6
REMARK    3  A    between atoms: C_6  and  C_7
REMARK    4  A    between atoms: C_10  and  C_11
REMARK    5  A    between atoms: C_10  and  C_21
REMARK    6  A    between atoms: C_12  and  C_13
REMARK    7  A    between atoms: C_23  and  C_25
REMARK    8  A    between atoms: C_25  and  C_27
REMARK    9  A    between atoms: C_27  and  C_29
REMARK   10  A    between atoms: C_29  and  O_30
REMARK   11  A    between atoms: C_29  and  C_32
REMARK   12  A    between atoms: C_38  and  O_40
REMARK                            x       y       z     vdW  Elec       q    Type
REMARK                         _______ _______ _______ _____ _____    ______ ____
ROOT
ATOM      1  C   UNL     1      -4.709  28.472  15.368  0.00  0.00    +0.000 C 
ATOM      2  C   UNL     1      -5.386  27.387  15.173  0.00  0.00    +0.000 C 
ATOM      3  C   UNL     1      -5.475  26.833  13.780  0.00  0.00    +0.000 C 
ATOM      4  C   UNL     1      -3.940  29.629  15.647  0.00  0.00    +0.000 C 
ATOM      5  C   UNL     1      -4.630  30.951  15.349  0.00  0.00    +0.000 C 
ENDROOT
BRANCH   2   6
ATOM      6  C   UNL     1      -5.597  26.509  16.265  0.00  0.00    +0.000 C 
ATOM      7  C   UNL     1      -5.714  25.743  17.183  0.00  0.00    +0.000 C 
BRANCH   7   8
ATOM      8  C   UNL     1      -5.746  24.730  18.331  0.00  0.00    +0.000 C 
BRANCH   8   9
ATOM      9  C   UNL     1      -5.575  23.813  19.397  0.00  0.00    +0.000 C 
ATOM     10  C   UNL     1      -5.331  22.367  19.095  0.00  0.00    +0.000 C 
ATOM     11  C   UNL     1      -5.741  24.215  20.745  0.00  0.00    +0.000 C 
ATOM     12  C   UNL     1      -5.945  24.759  21.906  0.00  0.00    +0.000 C 
BRANCH  12  13
ATOM     13  C   UNL     1      -6.381  26.111  21.883  0.00  0.00    +0.000 C 
ATOM     14  C   UNL     1      -6.647  27.277  21.775  0.00  0.00    +0.000 C 
BRANCH  14  15
ATOM     15  C   UNL     1      -6.861  28.662  21.552  0.00  0.00    +0.000 A 
ATOM     16  O   UNL     1      -6.582  29.552  22.675  0.00  0.00    +0.000 OA
ATOM     17  C   UNL     1      -6.720  30.934  22.576  0.00  0.00    +0.000 A 
ATOM     18  O   UNL     1      -6.466  31.724  23.472  0.00  0.00    +0.000 OA
ATOM     19  C   UNL     1      -7.177  31.330  21.277  0.00  0.00    +0.000 A 
ATOM     20  C   UNL     1      -7.424  30.644  20.332  0.00  0.00    +0.000 A 
ATOM     21  C   UNL     1      -7.319  29.236  20.281  0.00  0.00    +0.000 A 
ATOM     22  C   UNL     1      -7.611  28.484  19.022  0.00  0.00    +0.000 C 
ENDBRANCH  14  15
ENDBRANCH  12  13
BRANCH  12  23
ATOM     23  C   UNL     1      -5.747  23.987  23.077  0.00  0.00    +0.000 C 
ATOM     24  C   UNL     1      -5.527  23.156  24.347  0.00  0.00    +0.000 C 
ENDBRANCH  12  23
ENDBRANCH   8   9
ENDBRANCH   7   8
ENDBRANCH   2   6
BRANCH   4  25
ATOM     25  C   UNL     1      -2.839  29.543  16.656  0.00  0.00    +0.000 C 
ATOM     26  O   UNL     1      -1.821  30.239  16.584  0.00  0.00    +0.000 OA
BRANCH  25  27
ATOM     27  C   UNL     1      -2.990  28.526  17.741  0.00  0.00    +0.000 C 
ATOM     28  C   UNL     1      -3.860  28.843  18.955  0.00  0.00    +0.000 C 
BRANCH  27  29
ATOM     29  C   UNL     1      -2.080  27.386  17.759  0.00  0.00    +0.000 C 
BRANCH  29  30
ATOM     30  C   UNL     1      -1.782  26.448  16.691  0.00  0.00    +0.000 C 
ATOM     31  C   UNL     1      -2.243  25.010  16.785  0.00  0.00    +0.000 C 
ATOM     32  C   UNL     1      -1.223  26.826  15.448  0.00  0.00    +0.000 C 
ATOM     33  C   UNL     1      -0.654  27.137  14.196  0.00  0.00    +0.000 C 
ATOM     34  C   UNL     1       0.479  28.116  14.142  0.00  0.00    +0.000 C 
ATOM     35  C   UNL     1      -1.177  26.679  13.112  0.00  0.00    +0.000 C 
ATOM     36  C   UNL     1      -1.779  26.175  11.926  0.00  0.00    +0.000 C 
ATOM     37  O   UNL     1      -2.929  26.421  11.614  0.00  0.00    +0.000 OA
BRANCH  36  38
ATOM     38  O   UNL     1      -0.976  25.388  11.195  0.00  0.00    +0.000 OA
ATOM     39  H   UNL     1      -0.479  24.862  11.856  0.00  0.00    +0.000 HD
ENDBRANCH  36  38
ENDBRANCH  29  30
BRANCH  29  40
ATOM     40  O   UNL     1      -1.376  27.193  18.950  0.00  0.00    +0.000 OA
ATOM     41  H   UNL     1      -1.933  26.782  19.643  0.00  0.00    +0.000 HD
ENDBRANCH  29  40
ENDBRANCH  27  29
ENDBRANCH  25  27
ENDBRANCH   4  25
TORSDOF 12
ENDMDL
MODEL 5
REMARK VINA RESULT:      -4.2     15.555     19.524
REMARK  Name = Leptomycin.pdbqt.pdb
REMARK  12 active torsions:
REMARK  status: ('A' for Active; 'I' for Inactive)
REMARK    1  A    between atoms: C_2  and  C_4
REMARK    2  A    between atoms: C_5  and  C_6
REMARK    3  A    between atoms: C_6  and  C_7
REMARK    4  A    between atoms: C_10  and  C_11
REMARK    5  A    between atoms: C_10  and  C_21
REMARK    6  A    between atoms: C_12  and  C_13
REMARK    7  A    between atoms: C_23  and  C_25
REMARK    8  A    between atoms: C_25  and  C_27
REMARK    9  A    between atoms: C_27  and  C_29
REMARK   10  A    between atoms: C_29  and  O_30
REMARK   11  A    between atoms: C_29  and  C_32
REMARK   12  A    between atoms: C_38  and  O_40
REMARK                            x       y       z     vdW  Elec       q    Type
REMARK                         _______ _______ _______ _____ _____    ______ ____
ROOT
ATOM      1  C   UNL     1      21.618  -3.936  16.863  0.00  0.00    +0.000 C 
ATOM      2  C   UNL     1      20.638  -4.770  16.736  0.00  0.00    +0.000 C 
ATOM      3  C   UNL     1      19.698  -4.959  17.891  0.00  0.00    +0.000 C 
ATOM      4  C   UNL     1      22.679  -2.998  16.929  0.00  0.00    +0.000 C 
ATOM      5  C   UNL     1      23.929  -3.484  17.645  0.00  0.00    +0.000 C 
ENDROOT
BRANCH   2   6
ATOM      6  C   UNL     1      20.185  -5.098  15.434  0.00  0.00    +0.000 C 
ATOM      7  C   UNL     1      19.739  -5.362  14.350  0.00  0.00    +0.000 C 
BRANCH   7   8
ATOM      8  C   UNL     1      19.058  -5.676  13.015  0.00  0.00    +0.000 C 
BRANCH   8   9
ATOM      9  C   UNL     1      18.263  -6.008  11.890  0.00  0.00    +0.000 C 
ATOM     10  C   UNL     1      17.343  -7.187  11.958  0.00  0.00    +0.000 C 
ATOM     11  C   UNL     1      18.403  -5.314  10.663  0.00  0.00    +0.000 C 
ATOM     12  C   UNL     1      18.678  -4.583   9.627  0.00  0.00    +0.000 C 
BRANCH  12  13
ATOM     13  C   UNL     1      19.759  -3.675   9.785  0.00  0.00    +0.000 C 
ATOM     14  C   UNL     1      20.699  -2.927   9.786  0.00  0.00    +0.000 C 
BRANCH  14  15
ATOM     15  C   UNL     1      21.819  -2.067   9.650  0.00  0.00    +0.000 A 
ATOM     16  O   UNL     1      21.584  -0.797   8.970  0.00  0.00    +0.000 OA
ATOM     17  C   UNL     1      22.590   0.151   8.802  0.00  0.00    +0.000 A 
ATOM     18  O   UNL     1      22.438   1.241   8.274  0.00  0.00    +0.000 OA
ATOM     19  C   UNL     1      23.837  -0.297   9.348  0.00  0.00    +0.000 A 
ATOM     20  C   UNL     1      24.081  -1.324   9.905  0.00  0.00    +0.000 A 
ATOM     21  C   UNL     1      23.162  -2.367  10.158  0.00  0.00    +0.000 A 
ATOM     22  C   UNL     1      23.572  -3.593  10.910  0.00  0.00    +0.000 C 
ENDBRANCH  14  15
ENDBRANCH  12  13
BRANCH  12  23
ATOM     23  C   UNL     1      17.921  -4.748   8.441  0.00  0.00    +0.000 C 
ATOM     24  C   UNL     1      17.099  -4.921   7.158  0.00  0.00    +0.000 C 
ENDBRANCH  12  23
ENDBRANCH   8   9
ENDBRANCH   7   8
ENDBRANCH   2   6
BRANCH   4  25
ATOM     25  C   UNL     1      22.750  -1.910  15.903  0.00  0.00    +0.000 C 
ATOM     26  O   UNL     1      23.805  -1.605  15.337  0.00  0.00    +0.000 OA
BRANCH  25  27
ATOM     27  C   UNL     1      21.492  -1.154  15.627  0.00  0.00    +0.000 C 
ATOM     28  C   UNL     1      20.854  -0.321  16.736  0.00  0.00    +0.000 C 
BRANCH  27  29
ATOM     29  C   UNL     1      20.747  -1.459  14.409  0.00  0.00    +0.000 C 
BRANCH  29  30
ATOM     30  C   UNL     1      19.313  -1.415  14.190  0.00  0.00    +0.000 C 
ATOM     31  C   UNL     1      18.754  -0.896  12.883  0.00  0.00    +0.000 C 
ATOM     32  C   UNL     1      18.366  -1.998  15.065  0.00  0.00    +0.000 C 
ATOM     33  C   UNL     1      17.374  -2.546  15.904  0.00  0.00    +0.000 C 
ATOM     34  C   UNL     1      17.516  -2.388  17.387  0.00  0.00    +0.000 C 
ATOM     35  C   UNL     1      16.429  -3.269  15.409  0.00  0.00    +0.000 C 
ATOM     36  C   UNL     1      15.405  -4.077  14.843  0.00  0.00    +0.000 C 
ATOM     37  O   UNL     1      15.635  -5.100  14.226  0.00  0.00    +0.000 OA
BRANCH  36  38
ATOM     38  O   UNL     1      14.165  -3.600  15.032  0.00  0.00    +0.000 OA
ATOM     39  H   UNL     1      13.792  -4.162  15.743  0.00  0.00    +0.000 HD
ENDBRANCH  36  38
ENDBRANCH  29  30
BRANCH  29  40
ATOM     40  O   UNL     1      21.520  -1.803  13.298  0.00  0.00    +0.000 OA
ATOM     41  H   UNL     1      22.473  -1.862  13.518  0.00  0.00    +0.000 HD
ENDBRANCH  29  40
ENDBRANCH  27  29
ENDBRANCH  25  27
ENDBRANCH   4  25
TORSDOF 12
ENDMDL
MODEL 6
REMARK VINA RESULT:      -4.2     29.956     33.545
REMARK  Name = Leptomycin.pdbqt.pdb
REMARK  12 active torsions:
REMARK  status: ('A' for Active; 'I' for Inactive)
REMARK    1  A    between atoms: C_2  and  C_4
REMARK    2  A    between atoms: C_5  and  C_6
REMARK    3  A    between atoms: C_6  and  C_7
REMARK    4  A    between atoms: C_10  and  C_11
REMARK    5  A    between atoms: C_10  and  C_21
REMARK    6  A    between atoms: C_12  and  C_13
REMARK    7  A    between atoms: C_23  and  C_25
REMARK    8  A    between atoms: C_25  and  C_27
REMARK    9  A    between atoms: C_27  and  C_29
REMARK   10  A    between atoms: C_29  and  O_30
REMARK   11  A    between atoms: C_29  and  C_32
REMARK   12  A    between atoms: C_38  and  O_40
REMARK                            x       y       z     vdW  Elec       q    Type
REMARK                         _______ _______ _______ _____ _____    ______ ____
ROOT
ATOM      1  C   UNL     1      -4.654  23.081  15.424  0.00  0.00    +0.000 C 
ATOM      2  C   UNL     1      -3.993  22.325  14.610  0.00  0.00    +0.000 C 
ATOM      3  C   UNL     1      -2.825  22.909  13.870  0.00  0.00    +0.000 C 
ATOM      4  C   UNL     1      -5.383  23.851  16.366  0.00  0.00    +0.000 C 
ATOM      5  C   UNL     1      -6.439  24.770  15.771  0.00  0.00    +0.000 C 
ENDROOT
BRANCH   2   6
ATOM      6  C   UNL     1      -4.047  20.920  14.788  0.00  0.00    +0.000 C 
ATOM      7  C   UNL     1      -4.113  19.723  14.877  0.00  0.00    +0.000 C 
BRANCH   7   8
ATOM      8  C   UNL     1      -4.236  18.197  14.871  0.00  0.00    +0.000 C 
BRANCH   8   9
ATOM      9  C   UNL     1      -4.535  16.814  14.940  0.00  0.00    +0.000 C 
ATOM     10  C   UNL     1      -5.168  16.135  13.765  0.00  0.00    +0.000 C 
ATOM     11  C   UNL     1      -4.349  16.082  16.138  0.00  0.00    +0.000 C 
ATOM     12  C   UNL     1      -4.128  15.585  17.317  0.00  0.00    +0.000 C 
BRANCH  12  13
ATOM     13  C   UNL     1      -3.729  16.516  18.313  0.00  0.00    +0.000 C 
ATOM     14  C   UNL     1      -3.292  17.215  19.186  0.00  0.00    +0.000 C 
BRANCH  14  15
ATOM     15  C   UNL     1      -2.675  17.946  20.234  0.00  0.00    +0.000 A 
ATOM     16  O   UNL     1      -1.328  17.530  20.611  0.00  0.00    +0.000 OA
ATOM     17  C   UNL     1      -0.600  18.186  21.601  0.00  0.00    +0.000 A 
ATOM     18  O   UNL     1       0.541  17.901  21.929  0.00  0.00    +0.000 OA
ATOM     19  C   UNL     1      -1.346  19.264  22.181  0.00  0.00    +0.000 A 
ATOM     20  C   UNL     1      -2.447  19.638  21.913  0.00  0.00    +0.000 A 
ATOM     21  C   UNL     1      -3.294  19.080  20.929  0.00  0.00    +0.000 A 
ATOM     22  C   UNL     1      -4.641  19.666  20.647  0.00  0.00    +0.000 C 
ENDBRANCH  14  15
ENDBRANCH  12  13
BRANCH  12  23
ATOM     23  C   UNL     1      -4.316  14.196  17.529  0.00  0.00    +0.000 C 
ATOM     24  C   UNL     1      -4.526  12.695  17.760  0.00  0.00    +0.000 C 
ENDBRANCH  12  23
ENDBRANCH   8   9
ENDBRANCH   7   8
ENDBRANCH   2   6
BRANCH   4  25
ATOM     25  C   UNL     1      -5.492  23.360  17.775  0.00  0.00    +0.000 C 
ATOM     26  O   UNL     1      -5.387  22.165  18.068  0.00  0.00    +0.000 OA
BRANCH  25  27
ATOM     27  C   UNL     1      -5.797  24.377  18.826  0.00  0.00    +0.000 C 
ATOM     28  C   UNL     1      -7.249  24.668  19.196  0.00  0.00    +0.000 C 
BRANCH  27  29
ATOM     29  C   UNL     1      -4.729  25.273  19.261  0.00  0.00    +0.000 C 
BRANCH  29  30
ATOM     30  C   UNL     1      -4.413  26.606  18.779  0.00  0.00    +0.000 C 
ATOM     31  C   UNL     1      -4.788  27.823  19.597  0.00  0.00    +0.000 C 
ATOM     32  C   UNL     1      -3.604  26.861  17.648  0.00  0.00    +0.000 C 
ATOM     33  C   UNL     1      -2.816  27.179  16.522  0.00  0.00    +0.000 C 
ATOM     34  C   UNL     1      -2.991  26.377  15.269  0.00  0.00    +0.000 C 
ATOM     35  C   UNL     1      -1.884  28.064  16.609  0.00  0.00    +0.000 C 
ATOM     36  C   UNL     1      -0.850  29.032  16.732  0.00  0.00    +0.000 C 
ATOM     37  O   UNL     1       0.077  28.914  17.512  0.00  0.00    +0.000 OA
BRANCH  36  38
ATOM     38  O   UNL     1      -0.997  30.096  15.928  0.00  0.00    +0.000 OA
ATOM     39  H   UNL     1      -1.108  30.853  16.540  0.00  0.00    +0.000 HD
ENDBRANCH  36  38
ENDBRANCH  29  30
BRANCH  29  40
ATOM     40  O   UNL     1      -3.929  24.800  20.303  0.00  0.00    +0.000 OA
ATOM     41  H   UNL     1      -3.147  25.371  20.453  0.00  0.00    +0.000 HD
ENDBRANCH  29  40
ENDBRANCH  27  29
ENDBRANCH  25  27
ENDBRANCH   4  25
TORSDOF 12
ENDMDL
MODEL 7
REMARK VINA RESULT:      -4.1      2.491      6.111
REMARK  Name = Leptomycin.pdbqt.pdb
REMARK  12 active torsions:
REMARK  status: ('A' for Active; 'I' for Inactive)
REMARK    1  A    between atoms: C_2  and  C_4
REMARK    2  A    between atoms: C_5  and  C_6
REMARK    3  A    between atoms: C_6  and  C_7
REMARK    4  A    between atoms: C_10  and  C_11
REMARK    5  A    between atoms: C_10  and  C_21
REMARK    6  A    between atoms: C_12  and  C_13
REMARK    7  A    between atoms: C_23  and  C_25
REMARK    8  A    between atoms: C_25  and  C_27
REMARK    9  A    between atoms: C_27  and  C_29
REMARK   10  A    between atoms: C_29  and  O_30
REMARK   11  A    between atoms: C_29  and  C_32
REMARK   12  A    between atoms: C_38  and  O_40
REMARK                            x       y       z     vdW  Elec       q    Type
REMARK                         _______ _______ _______ _____ _____    ______ ____
ROOT
ATOM      1  C   UNL     1      27.575  10.510  27.271  0.00  0.00    +0.000 C 
ATOM      2  C   UNL     1      27.973  10.646  26.048  0.00  0.00    +0.000 C 
ATOM      3  C   UNL     1      27.900   9.461  25.130  0.00  0.00    +0.000 C 
ATOM      4  C   UNL     1      27.105  10.430  28.607  0.00  0.00    +0.000 C 
ATOM      5  C   UNL     1      28.079   9.816  29.599  0.00  0.00    +0.000 C 
ENDROOT
BRANCH   2   6
ATOM      6  C   UNL     1      27.997  11.943  25.479  0.00  0.00    +0.000 C 
ATOM      7  C   UNL     1      27.998  13.067  25.054  0.00  0.00    +0.000 C 
BRANCH   7   8
ATOM      8  C   UNL     1      27.959  14.537  24.626  0.00  0.00    +0.000 C 
BRANCH   8   9
ATOM      9  C   UNL     1      28.118  15.902  24.282  0.00  0.00    +0.000 C 
ATOM     10  C   UNL     1      27.747  16.962  25.272  0.00  0.00    +0.000 C 
ATOM     11  C   UNL     1      28.518  16.288  22.979  0.00  0.00    +0.000 C 
ATOM     12  C   UNL     1      28.875  16.449  21.741  0.00  0.00    +0.000 C 
BRANCH  12  13
ATOM     13  C   UNL     1      28.946  15.263  20.962  0.00  0.00    +0.000 C 
ATOM     14  C   UNL     1      29.061  14.338  20.205  0.00  0.00    +0.000 C 
BRANCH  14  15
ATOM     15  C   UNL     1      29.260  13.334  19.223  0.00  0.00    +0.000 A 
ATOM     16  O   UNL     1      28.805  13.645  17.872  0.00  0.00    +0.000 OA
ATOM     17  C   UNL     1      28.972  12.759  16.811  0.00  0.00    +0.000 A 
ATOM     18  O   UNL     1      28.643  12.985  15.657  0.00  0.00    +0.000 OA
ATOM     19  C   UNL     1      29.605  11.543  17.231  0.00  0.00    +0.000 A 
ATOM     20  C   UNL     1      29.988  11.239  18.320  0.00  0.00    +0.000 A 
ATOM     21  C   UNL     1      29.898  12.038  19.482  0.00  0.00    +0.000 A 
ATOM     22  C   UNL     1      30.457  11.569  20.787  0.00  0.00    +0.000 C 
ENDBRANCH  14  15
ENDBRANCH  12  13
BRANCH  12  23
ATOM     23  C   UNL     1      29.140  17.756  21.262  0.00  0.00    +0.000 C 
ATOM     24  C   UNL     1      29.432  19.167  20.738  0.00  0.00    +0.000 C 
ENDBRANCH  12  23
ENDBRANCH   8   9
ENDBRANCH   7   8
ENDBRANCH   2   6
BRANCH   4  25
ATOM     25  C   UNL     1      26.038  11.376  29.058  0.00  0.00    +0.000 C 
ATOM     26  O   UNL     1      26.153  12.065  30.077  0.00  0.00    +0.000 OA
BRANCH  25  27
ATOM     27  C   UNL     1      24.781  11.417  28.251  0.00  0.00    +0.000 C 
ATOM     28  C   UNL     1      24.116  10.109  27.824  0.00  0.00    +0.000 C 
BRANCH  27  29
ATOM     29  C   UNL     1      24.382  12.682  27.643  0.00  0.00    +0.000 C 
BRANCH  29  30
ATOM     30  C   UNL     1      24.334  13.035  26.235  0.00  0.00    +0.000 C 
ATOM     31  C   UNL     1      24.364  14.487  25.809  0.00  0.00    +0.000 C 
ATOM     32  C   UNL     1      24.436  12.092  25.185  0.00  0.00    +0.000 C 
ATOM     33  C   UNL     1      24.518  11.200  24.096  0.00  0.00    +0.000 C 
ATOM     34  C   UNL     1      23.772   9.904  24.167  0.00  0.00    +0.000 C 
ATOM     35  C   UNL     1      25.314  11.446  23.113  0.00  0.00    +0.000 C 
ATOM     36  C   UNL     1      26.211  11.728  22.046  0.00  0.00    +0.000 C 
ATOM     37  O   UNL     1      27.411  11.851  22.206  0.00  0.00    +0.000 OA
BRANCH  36  38
ATOM     38  O   UNL     1      25.615  11.867  20.852  0.00  0.00    +0.000 OA
ATOM     39  H   UNL     1      26.229  12.429  20.335  0.00  0.00    +0.000 HD
ENDBRANCH  36  38
ENDBRANCH  29  30
BRANCH  29  40
ATOM     40  O   UNL     1      23.955  13.672  28.531  0.00  0.00    +0.000 OA
ATOM     41  H   UNL     1      23.092  14.053  28.267  0.00  0.00    +0.000 HD
ENDBRANCH  29  40
ENDBRANCH  27  29
ENDBRANCH  25  27
ENDBRANCH   4  25
TORSDOF 12
ENDMDL
MODEL 8
REMARK VINA RESULT:      -4.0     33.935     37.432
REMARK  Name = Leptomycin.pdbqt.pdb
REMARK  12 active torsions:
REMARK  status: ('A' for Active; 'I' for Inactive)
REMARK    1  A    between atoms: C_2  and  C_4
REMARK    2  A    between atoms: C_5  and  C_6
REMARK    3  A    between atoms: C_6  and  C_7
REMARK    4  A    between atoms: C_10  and  C_11
REMARK    5  A    between atoms: C_10  and  C_21
REMARK    6  A    between atoms: C_12  and  C_13
REMARK    7  A    between atoms: C_23  and  C_25
REMARK    8  A    between atoms: C_25  and  C_27
REMARK    9  A    between atoms: C_27  and  C_29
REMARK   10  A    between atoms: C_29  and  O_30
REMARK   11  A    between atoms: C_29  and  C_32
REMARK   12  A    between atoms: C_38  and  O_40
REMARK                            x       y       z     vdW  Elec       q    Type
REMARK                         _______ _______ _______ _____ _____    ______ ____
ROOT
ATOM      1  C   UNL     1      -6.730  32.291  19.740  0.00  0.00    +0.000 C 
ATOM      2  C   UNL     1      -6.517  32.056  18.485  0.00  0.00    +0.000 C 
ATOM      3  C   UNL     1      -5.292  32.637  17.841  0.00  0.00    +0.000 C 
ATOM      4  C   UNL     1      -6.986  32.474  21.122  0.00  0.00    +0.000 C 
ATOM      5  C   UNL     1      -7.631  33.801  21.489  0.00  0.00    +0.000 C 
ENDROOT
BRANCH   2   6
ATOM      6  C   UNL     1      -7.119  30.919  17.893  0.00  0.00    +0.000 C 
ATOM      7  C   UNL     1      -7.631  29.926  17.449  0.00  0.00    +0.000 C 
BRANCH   7   8
ATOM      8  C   UNL     1      -8.278  28.613  17.000  0.00  0.00    +0.000 C 
BRANCH   8   9
ATOM      9  C   UNL     1      -8.782  27.428  16.410  0.00  0.00    +0.000 C 
ATOM     10  C   UNL     1     -10.242  27.112  16.517  0.00  0.00    +0.000 C 
ATOM     11  C   UNL     1      -7.915  26.479  15.815  0.00  0.00    +0.000 C 
ATOM     12  C   UNL     1      -6.975  25.725  15.333  0.00  0.00    +0.000 C 
BRANCH  12  13
ATOM     13  C   UNL     1      -5.647  26.175  15.566  0.00  0.00    +0.000 C 
ATOM     14  C   UNL     1      -4.581  26.667  15.818  0.00  0.00    +0.000 C 
BRANCH  14  15
ATOM     15  C   UNL     1      -3.392  27.351  16.178  0.00  0.00    +0.000 A 
ATOM     16  O   UNL     1      -3.425  28.807  16.084  0.00  0.00    +0.000 OA
ATOM     17  C   UNL     1      -2.335  29.598  16.439  0.00  0.00    +0.000 A 
ATOM     18  O   UNL     1      -2.324  30.819  16.413  0.00  0.00    +0.000 OA
ATOM     19  C   UNL     1      -1.221  28.804  16.867  0.00  0.00    +0.000 A 
ATOM     20  C   UNL     1      -1.142  27.616  16.955  0.00  0.00    +0.000 A 
ATOM     21  C   UNL     1      -2.166  26.693  16.644  0.00  0.00    +0.000 A 
ATOM     22  C   UNL     1      -1.967  25.224  16.840  0.00  0.00    +0.000 C 
ENDBRANCH  14  15
ENDBRANCH  12  13
BRANCH  12  23
ATOM     23  C   UNL     1      -7.323  24.534  14.649  0.00  0.00    +0.000 C 
ATOM     24  C   UNL     1      -7.694  23.242  13.912  0.00  0.00    +0.000 C 
ENDBRANCH  12  23
ENDBRANCH   8   9
ENDBRANCH   7   8
ENDBRANCH   2   6
BRANCH   4  25
ATOM     25  C   UNL     1      -7.144  31.271  21.996  0.00  0.00    +0.000 C 
ATOM     26  O   UNL     1      -7.131  31.344  23.230  0.00  0.00    +0.000 OA
BRANCH  25  27
ATOM     27  C   UNL     1      -7.260  29.946  21.314  0.00  0.00    +0.000 C 
ATOM     28  C   UNL     1      -8.643  29.384  20.991  0.00  0.00    +0.000 C 
BRANCH  27  29
ATOM     29  C   UNL     1      -6.078  29.094  21.239  0.00  0.00    +0.000 C 
BRANCH  29  30
ATOM     30  C   UNL     1      -5.589  28.322  20.111  0.00  0.00    +0.000 C 
ATOM     31  C   UNL     1      -4.335  28.750  19.377  0.00  0.00    +0.000 C 
ATOM     32  C   UNL     1      -6.111  27.063  19.735  0.00  0.00    +0.000 C 
ATOM     33  C   UNL     1      -6.598  25.812  19.302  0.00  0.00    +0.000 C 
ATOM     34  C   UNL     1      -8.078  25.583  19.279  0.00  0.00    +0.000 C 
ATOM     35  C   UNL     1      -5.781  24.849  19.045  0.00  0.00    +0.000 C 
ATOM     36  C   UNL     1      -4.863  23.795  18.784  0.00  0.00    +0.000 C 
ATOM     37  O   UNL     1      -4.103  23.356  19.627  0.00  0.00    +0.000 OA
BRANCH  36  38
ATOM     38  O   UNL     1      -4.894  23.342  17.521  0.00  0.00    +0.000 OA
ATOM     39  H   UNL     1      -5.420  24.010  17.034  0.00  0.00    +0.000 HD
ENDBRANCH  36  38
ENDBRANCH  29  30
BRANCH  29  40
ATOM     40  O   UNL     1      -5.293  29.044  22.393  0.00  0.00    +0.000 OA
ATOM     41  H   UNL     1      -4.377  28.755  22.201  0.00  0.00    +0.000 HD
ENDBRANCH  29  40
ENDBRANCH  27  29
ENDBRANCH  25  27
ENDBRANCH   4  25
TORSDOF 12
ENDMDL
MODEL 9
REMARK VINA RESULT:      -4.0     24.780     27.995
REMARK  Name = Leptomycin.pdbqt.pdb
REMARK  12 active torsions:
REMARK  status: ('A' for Active; 'I' for Inactive)
REMARK    1  A    between atoms: C_2  and  C_4
REMARK    2  A    between atoms: C_5  and  C_6
REMARK    3  A    between atoms: C_6  and  C_7
REMARK    4  A    between atoms: C_10  and  C_11
REMARK    5  A    between atoms: C_10  and  C_21
REMARK    6  A    between atoms: C_12  and  C_13
REMARK    7  A    between atoms: C_23  and  C_25
REMARK    8  A    between atoms: C_25  and  C_27
REMARK    9  A    between atoms: C_27  and  C_29
REMARK   10  A    between atoms: C_29  and  O_30
REMARK   11  A    between atoms: C_29  and  C_32
REMARK   12  A    between atoms: C_38  and  O_40
REMARK                            x       y       z     vdW  Elec       q    Type
REMARK                         _______ _______ _______ _____ _____    ______ ____
ROOT
ATOM      1  C   UNL     1      14.011  36.489  22.596  0.00  0.00    +0.000 C 
ATOM      2  C   UNL     1      13.568  36.974  23.710  0.00  0.00    +0.000 C 
ATOM      3  C   UNL     1      12.144  37.446  23.775  0.00  0.00    +0.000 C 
ATOM      4  C   UNL     1      14.535  35.902  21.417  0.00  0.00    +0.000 C 
ATOM      5  C   UNL     1      14.993  36.887  20.353  0.00  0.00    +0.000 C 
ENDROOT
BRANCH   2   6
ATOM      6  C   UNL     1      14.218  36.616  24.917  0.00  0.00    +0.000 C 
ATOM      7  C   UNL     1      14.710  36.299  25.966  0.00  0.00    +0.000 C 
BRANCH   7   8
ATOM      8  C   UNL     1      15.221  35.875  27.346  0.00  0.00    +0.000 C 
BRANCH   8   9
ATOM      9  C   UNL     1      15.765  35.670  28.638  0.00  0.00    +0.000 C 
ATOM     10  C   UNL     1      17.237  35.842  28.855  0.00  0.00    +0.000 C 
ATOM     11  C   UNL     1      14.963  35.199  29.706  0.00  0.00    +0.000 C 
ATOM     12  C   UNL     1      14.084  34.753  30.551  0.00  0.00    +0.000 C 
BRANCH  12  13
ATOM     13  C   UNL     1      12.800  34.474  30.011  0.00  0.00    +0.000 C 
ATOM     14  C   UNL     1      11.762  34.289  29.437  0.00  0.00    +0.000 C 
BRANCH  14  15
ATOM     15  C   UNL     1      10.598  34.115  28.644  0.00  0.00    +0.000 A 
ATOM     16  O   UNL     1       9.666  33.078  29.074  0.00  0.00    +0.000 OA
ATOM     17  C   UNL     1       8.472  32.830  28.403  0.00  0.00    +0.000 A 
ATOM     18  O   UNL     1       7.643  32.000  28.742  0.00  0.00    +0.000 OA
ATOM     19  C   UNL     1       8.315  33.689  27.266  0.00  0.00    +0.000 A 
ATOM     20  C   UNL     1       9.047  34.544  26.870  0.00  0.00    +0.000 A 
ATOM     21  C   UNL     1      10.280  34.913  27.454  0.00  0.00    +0.000 A 
ATOM     22  C   UNL     1      11.093  36.037  26.896  0.00  0.00    +0.000 C 
ENDBRANCH  14  15
ENDBRANCH  12  13
BRANCH  12  23
ATOM     23  C   UNL     1      14.459  34.562  31.904  0.00  0.00    +0.000 C 
ATOM     24  C   UNL     1      14.868  34.361  33.368  0.00  0.00    +0.000 C 
ENDBRANCH  12  23
ENDBRANCH   8   9
ENDBRANCH   7   8
ENDBRANCH   2   6
BRANCH   4  25
ATOM     25  C   UNL     1      15.103  34.520  21.484  0.00  0.00    +0.000 C 
ATOM     26  O   UNL     1      16.206  34.235  21.006  0.00  0.00    +0.000 OA
BRANCH  25  27
ATOM     27  C   UNL     1      14.250  33.465  22.110  0.00  0.00    +0.000 C 
ATOM     28  C   UNL     1      13.022  32.948  21.365  0.00  0.00    +0.000 C 
BRANCH  27  29
ATOM     29  C   UNL     1      14.436  33.167  23.527  0.00  0.00    +0.000 C 
BRANCH  29  30
ATOM     30  C   UNL     1      13.443  33.149  24.586  0.00  0.00    +0.000 C 
ATOM     31  C   UNL     1      12.036  33.640  24.323  0.00  0.00    +0.000 C 
ATOM     32  C   UNL     1      13.645  32.529  25.841  0.00  0.00    +0.000 C 
ATOM     33  C   UNL     1      13.790  31.942  27.115  0.00  0.00    +0.000 C 
ATOM     34  C   UNL     1      15.088  32.111  27.843  0.00  0.00    +0.000 C 
ATOM     35  C   UNL     1      12.867  31.179  27.589  0.00  0.00    +0.000 C 
ATOM     36  C   UNL     1      11.843  30.326  28.086  0.00  0.00    +0.000 C 
ATOM     37  O   UNL     1      11.492  29.311  27.512  0.00  0.00    +0.000 OA
BRANCH  36  38
ATOM     38  O   UNL     1      11.285  30.749  29.230  0.00  0.00    +0.000 OA
ATOM     39  H   UNL     1      11.954  30.553  29.917  0.00  0.00    +0.000 HD
ENDBRANCH  36  38
ENDBRANCH  29  30
BRANCH  29  40
ATOM     40  O   UNL     1      15.734  32.816  23.907  0.00  0.00    +0.000 OA
ATOM     41  H   UNL     1      16.064  32.040  23.408  0.00  0.00    +0.000 HD
ENDBRANCH  29  40
ENDBRANCH  27  29
ENDBRANCH  25  27
ENDBRANCH   4  25
TORSDOF 12
ENDMDL
