MODEL 1
REMARK VINA RESULT:      -6.8      0.000      0.000
REMARK  Name = Lobelin.pdbqt.pdb
REMARK  3 active torsions:
REMARK  status: ('A' for Active; 'I' for Inactive)
REMARK    1  A    between atoms: C_9  and  O_10
REMARK    2  A    between atoms: C_9  and  C_12
REMARK    3  A    between atoms: C_19  and  C_21
REMARK                            x       y       z     vdW  Elec       q    Type
REMARK                         _______ _______ _______ _____ _____    ______ ____
ROOT
ATOM      1  N   UNL     1       8.637  18.823  30.773  0.00  0.00    +0.000 N 
ATOM      2  C   UNL     1       9.014  17.428  30.569  0.00  0.00    +0.000 C 
ATOM      3  C   UNL     1       7.369  19.152  31.420  0.00  0.00    +0.000 C 
ATOM      4  C   UNL     1       8.081  16.475  31.081  0.00  0.00    +0.000 C 
ATOM      5  C   UNL     1       6.603  18.023  31.843  0.00  0.00    +0.000 C 
ATOM      6  C   UNL     1       6.741  16.514  31.793  0.00  0.00    +0.000 C 
ATOM      7  C   UNL     1       9.456  19.881  30.225  0.00  0.00    +0.000 C 
ATOM      8  C   UNL     1      10.221  17.048  29.923  0.00  0.00    +0.000 C 
ATOM      9  C   UNL     1      11.441  16.677  29.299  0.00  0.00    +0.000 C 
ATOM     10  C   UNL     1       6.944  20.490  31.619  0.00  0.00    +0.000 C 
ATOM     11  C   UNL     1       6.528  21.848  31.850  0.00  0.00    +0.000 C 
ATOM     12  O   UNL     1       6.201  22.187  32.978  0.00  0.00    +0.000 OA
ENDROOT
BRANCH   9  13
ATOM     13  C   UNL     1      12.767  16.996  29.829  0.00  0.00    +0.000 A 
ATOM     14  C   UNL     1      13.864  16.175  29.554  0.00  0.00    +0.000 A 
ATOM     15  C   UNL     1      15.128  16.478  30.057  0.00  0.00    +0.000 A 
ATOM     16  C   UNL     1      15.308  17.611  30.845  0.00  0.00    +0.000 A 
ATOM     17  C   UNL     1      14.226  18.438  31.129  0.00  0.00    +0.000 A 
ATOM     18  C   UNL     1      12.964  18.130  30.623  0.00  0.00    +0.000 A 
ENDBRANCH   9  13
BRANCH  11  19
ATOM     19  C   UNL     1       6.501  22.780  30.709  0.00  0.00    +0.000 A 
ATOM     20  C   UNL     1       5.350  23.499  30.390  0.00  0.00    +0.000 A 
ATOM     21  C   UNL     1       5.357  24.377  29.309  0.00  0.00    +0.000 A 
ATOM     22  C   UNL     1       6.514  24.537  28.550  0.00  0.00    +0.000 A 
ATOM     23  C   UNL     1       7.666  23.821  28.872  0.00  0.00    +0.000 A 
ATOM     24  C   UNL     1       7.661  22.942  29.952  0.00  0.00    +0.000 A 
ENDBRANCH  11  19
BRANCH   9  25
ATOM     25  O   UNL     1      11.396  15.965  28.122  0.00  0.00    +0.000 OA
ATOM     26  H   UNL     1      12.008  16.324  27.457  0.00  0.00    +0.000 HD
ENDBRANCH   9  25
TORSDOF 3
ENDMDL
MODEL 2
REMARK VINA RESULT:      -6.8     24.022     26.277
REMARK  Name = Lobelin.pdbqt.pdb
REMARK  3 active torsions:
REMARK  status: ('A' for Active; 'I' for Inactive)
REMARK    1  A    between atoms: C_9  and  O_10
REMARK    2  A    between atoms: C_9  and  C_12
REMARK    3  A    between atoms: C_19  and  C_21
REMARK                            x       y       z     vdW  Elec       q    Type
REMARK                         _______ _______ _______ _____ _____    ______ ____
ROOT
ATOM      1  N   UNL     1      18.616  32.425  10.081  0.00  0.00    +0.000 N 
ATOM      2  C   UNL     1      19.935  31.842   9.861  0.00  0.00    +0.000 C 
ATOM      3  C   UNL     1      18.446  33.513  11.040  0.00  0.00    +0.000 C 
ATOM      4  C   UNL     1      20.989  32.448  10.612  0.00  0.00    +0.000 C 
ATOM      5  C   UNL     1      19.651  33.947  11.672  0.00  0.00    +0.000 C 
ATOM      6  C   UNL     1      21.118  33.565  11.630  0.00  0.00    +0.000 C 
ATOM      7  C   UNL     1      17.454  31.844   9.446  0.00  0.00    +0.000 C 
ATOM      8  C   UNL     1      20.156  30.765   8.961  0.00  0.00    +0.000 C 
ATOM      9  C   UNL     1      20.372  29.706   8.042  0.00  0.00    +0.000 C 
ATOM     10  C   UNL     1      17.182  34.096  11.311  0.00  0.00    +0.000 C 
ATOM     11  C   UNL     1      15.904  34.709  11.559  0.00  0.00    +0.000 C 
ATOM     12  O   UNL     1      15.799  35.924  11.472  0.00  0.00    +0.000 OA
ENDROOT
BRANCH   9  13
ATOM     13  C   UNL     1      20.136  29.805   6.601  0.00  0.00    +0.000 A 
ATOM     14  C   UNL     1      19.927  31.047   5.994  0.00  0.00    +0.000 A 
ATOM     15  C   UNL     1      19.702  31.142   4.621  0.00  0.00    +0.000 A 
ATOM     16  C   UNL     1      19.685  29.992   3.839  0.00  0.00    +0.000 A 
ATOM     17  C   UNL     1      19.890  28.748   4.428  0.00  0.00    +0.000 A 
ATOM     18  C   UNL     1      20.113  28.659   5.801  0.00  0.00    +0.000 A 
ENDBRANCH   9  13
BRANCH  11  19
ATOM     19  C   UNL     1      14.768  33.846  11.924  0.00  0.00    +0.000 A 
ATOM     20  C   UNL     1      14.787  32.476  11.661  0.00  0.00    +0.000 A 
ATOM     21  C   UNL     1      13.700  31.685  12.024  0.00  0.00    +0.000 A 
ATOM     22  C   UNL     1      12.597  32.261  12.651  0.00  0.00    +0.000 A 
ATOM     23  C   UNL     1      12.581  33.629  12.917  0.00  0.00    +0.000 A 
ATOM     24  C   UNL     1      13.666  34.422  12.555  0.00  0.00    +0.000 A 
ENDBRANCH  11  19
BRANCH   9  25
ATOM     25  O   UNL     1      20.841  28.501   8.513  0.00  0.00    +0.000 OA
ATOM     26  H   UNL     1      20.285  28.150   9.229  0.00  0.00    +0.000 HD
ENDBRANCH   9  25
TORSDOF 3
ENDMDL
MODEL 3
REMARK VINA RESULT:      -6.6     19.559     21.851
REMARK  Name = Lobelin.pdbqt.pdb
REMARK  3 active torsions:
REMARK  status: ('A' for Active; 'I' for Inactive)
REMARK    1  A    between atoms: C_9  and  O_10
REMARK    2  A    between atoms: C_9  and  C_12
REMARK    3  A    between atoms: C_19  and  C_21
REMARK                            x       y       z     vdW  Elec       q    Type
REMARK                         _______ _______ _______ _____ _____    ______ ____
ROOT
ATOM      1  N   UNL     1       1.688  30.446  13.460  0.00  0.00    +0.000 N 
ATOM      2  C   UNL     1       0.969  29.254  13.022  0.00  0.00    +0.000 C 
ATOM      3  C   UNL     1       2.139  31.430  12.481  0.00  0.00    +0.000 C 
ATOM      4  C   UNL     1       0.731  29.181  11.615  0.00  0.00    +0.000 C 
ATOM      5  C   UNL     1       1.784  31.136  11.129  0.00  0.00    +0.000 C 
ATOM      6  C   UNL     1       1.048  30.029  10.397  0.00  0.00    +0.000 C 
ATOM      7  C   UNL     1       2.064  30.594  14.849  0.00  0.00    +0.000 C 
ATOM      8  C   UNL     1       0.528  28.250  13.927  0.00  0.00    +0.000 C 
ATOM      9  C   UNL     1       0.070  27.265  14.839  0.00  0.00    +0.000 C 
ATOM     10  C   UNL     1       2.864  32.591  12.850  0.00  0.00    +0.000 C 
ATOM     11  C   UNL     1       3.570  33.787  13.230  0.00  0.00    +0.000 C 
ATOM     12  O   UNL     1       3.156  34.871  12.847  0.00  0.00    +0.000 OA
ENDROOT
BRANCH   9  13
ATOM     13  C   UNL     1      -0.912  27.513  15.895  0.00  0.00    +0.000 A 
ATOM     14  C   UNL     1      -1.645  26.462  16.453  0.00  0.00    +0.000 A 
ATOM     15  C   UNL     1      -2.580  26.697  17.459  0.00  0.00    +0.000 A 
ATOM     16  C   UNL     1      -2.793  27.993  17.919  0.00  0.00    +0.000 A 
ATOM     17  C   UNL     1      -2.073  29.051  17.373  0.00  0.00    +0.000 A 
ATOM     18  C   UNL     1      -1.140  28.809  16.367  0.00  0.00    +0.000 A 
ENDBRANCH   9  13
BRANCH  11  19
ATOM     19  C   UNL     1       4.780  33.655  14.061  0.00  0.00    +0.000 A 
ATOM     20  C   UNL     1       4.702  33.643  15.454  0.00  0.00    +0.000 A 
ATOM     21  C   UNL     1       5.863  33.511  16.212  0.00  0.00    +0.000 A 
ATOM     22  C   UNL     1       7.098  33.389  15.580  0.00  0.00    +0.000 A 
ATOM     23  C   UNL     1       7.174  33.397  14.188  0.00  0.00    +0.000 A 
ATOM     24  C   UNL     1       6.015  33.529  13.428  0.00  0.00    +0.000 A 
ENDBRANCH  11  19
BRANCH   9  25
ATOM     25  O   UNL     1       0.563  25.984  14.738  0.00  0.00    +0.000 OA
ATOM     26  H   UNL     1       0.899  25.656  15.589  0.00  0.00    +0.000 HD
ENDBRANCH   9  25
TORSDOF 3
ENDMDL
MODEL 4
REMARK VINA RESULT:      -6.4      4.826      7.569
REMARK  Name = Lobelin.pdbqt.pdb
REMARK  3 active torsions:
REMARK  status: ('A' for Active; 'I' for Inactive)
REMARK    1  A    between atoms: C_9  and  O_10
REMARK    2  A    between atoms: C_9  and  C_12
REMARK    3  A    between atoms: C_19  and  C_21
REMARK                            x       y       z     vdW  Elec       q    Type
REMARK                         _______ _______ _______ _____ _____    ______ ____
ROOT
ATOM      1  N   UNL     1       9.880  13.865  30.449  0.00  0.00    +0.000 N 
ATOM      2  C   UNL     1      10.222  12.513  30.877  0.00  0.00    +0.000 C 
ATOM      3  C   UNL     1      10.920  14.884  30.339  0.00  0.00    +0.000 C 
ATOM      4  C   UNL     1      11.613  12.296  31.121  0.00  0.00    +0.000 C 
ATOM      5  C   UNL     1      12.239  14.427  30.639  0.00  0.00    +0.000 C 
ATOM      6  C   UNL     1      12.884  13.124  31.071  0.00  0.00    +0.000 C 
ATOM      7  C   UNL     1       8.495  14.233  30.254  0.00  0.00    +0.000 C 
ATOM      8  C   UNL     1       9.249  11.488  31.028  0.00  0.00    +0.000 C 
ATOM      9  C   UNL     1       8.275  10.463  31.152  0.00  0.00    +0.000 C 
ATOM     10  C   UNL     1      10.637  16.218  29.953  0.00  0.00    +0.000 C 
ATOM     11  C   UNL     1      10.353  17.564  29.529  0.00  0.00    +0.000 C 
ATOM     12  O   UNL     1      10.992  18.045  28.603  0.00  0.00    +0.000 OA
ENDROOT
BRANCH   9  13
ATOM     13  C   UNL     1       7.476   9.948  30.039  0.00  0.00    +0.000 A 
ATOM     14  C   UNL     1       8.060   9.160  29.044  0.00  0.00    +0.000 A 
ATOM     15  C   UNL     1       7.300   8.668  27.984  0.00  0.00    +0.000 A 
ATOM     16  C   UNL     1       5.942   8.960  27.909  0.00  0.00    +0.000 A 
ATOM     17  C   UNL     1       5.346   9.744  28.891  0.00  0.00    +0.000 A 
ATOM     18  C   UNL     1       6.111  10.234  29.948  0.00  0.00    +0.000 A 
ENDBRANCH   9  13
BRANCH  11  19
ATOM     19  C   UNL     1       9.306  18.320  30.238  0.00  0.00    +0.000 A 
ATOM     20  C   UNL     1       8.504  17.712  31.203  0.00  0.00    +0.000 A 
ATOM     21  C   UNL     1       7.527  18.454  31.862  0.00  0.00    +0.000 A 
ATOM     22  C   UNL     1       7.354  19.803  31.557  0.00  0.00    +0.000 A 
ATOM     23  C   UNL     1       8.159  20.411  30.595  0.00  0.00    +0.000 A 
ATOM     24  C   UNL     1       9.136  19.670  29.935  0.00  0.00    +0.000 A 
ENDBRANCH  11  19
BRANCH   9  25
ATOM     25  O   UNL     1       8.056   9.899  32.388  0.00  0.00    +0.000 OA
ATOM     26  H   UNL     1       8.797   9.335  32.666  0.00  0.00    +0.000 HD
ENDBRANCH   9  25
TORSDOF 3
ENDMDL
MODEL 5
REMARK VINA RESULT:      -6.2     18.535     20.209
REMARK  Name = Lobelin.pdbqt.pdb
REMARK  3 active torsions:
REMARK  status: ('A' for Active; 'I' for Inactive)
REMARK    1  A    between atoms: C_9  and  O_10
REMARK    2  A    between atoms: C_9  and  C_12
REMARK    3  A    between atoms: C_19  and  C_21
REMARK                            x       y       z     vdW  Elec       q    Type
REMARK                         _______ _______ _______ _____ _____    ______ ____
ROOT
ATOM      1  N   UNL     1      -4.067  29.256  18.652  0.00  0.00    +0.000 N 
ATOM      2  C   UNL     1      -3.160  29.792  17.643  0.00  0.00    +0.000 C 
ATOM      3  C   UNL     1      -5.236  30.025  19.068  0.00  0.00    +0.000 C 
ATOM      4  C   UNL     1      -3.543  31.059  17.105  0.00  0.00    +0.000 C 
ATOM      5  C   UNL     1      -5.408  31.269  18.387  0.00  0.00    +0.000 C 
ATOM      6  C   UNL     1      -4.672  32.051  17.315  0.00  0.00    +0.000 C 
ATOM      7  C   UNL     1      -3.743  28.022  19.334  0.00  0.00    +0.000 C 
ATOM      8  C   UNL     1      -1.992  29.101  17.218  0.00  0.00    +0.000 C 
ATOM      9  C   UNL     1      -0.842  28.394  16.782  0.00  0.00    +0.000 C 
ATOM     10  C   UNL     1      -6.134  29.562  20.063  0.00  0.00    +0.000 C 
ATOM     11  C   UNL     1      -7.064  29.077  21.049  0.00  0.00    +0.000 C 
ATOM     12  O   UNL     1      -8.255  29.042  20.779  0.00  0.00    +0.000 OA
ENDROOT
BRANCH   9  13
ATOM     13  C   UNL     1      -0.881  27.094  16.110  0.00  0.00    +0.000 A 
ATOM     14  C   UNL     1      -0.102  26.852  14.975  0.00  0.00    +0.000 A 
ATOM     15  C   UNL     1      -0.137  25.615  14.335  0.00  0.00    +0.000 A 
ATOM     16  C   UNL     1      -0.956  24.602  14.825  0.00  0.00    +0.000 A 
ATOM     17  C   UNL     1      -1.738  24.827  15.954  0.00  0.00    +0.000 A 
ATOM     18  C   UNL     1      -1.699  26.067  16.589  0.00  0.00    +0.000 A 
ENDBRANCH   9  13
BRANCH  11  19
ATOM     19  C   UNL     1      -6.541  28.648  22.358  0.00  0.00    +0.000 A 
ATOM     20  C   UNL     1      -6.893  27.416  22.909  0.00  0.00    +0.000 A 
ATOM     21  C   UNL     1      -6.376  27.037  24.146  0.00  0.00    +0.000 A 
ATOM     22  C   UNL     1      -5.509  27.886  24.829  0.00  0.00    +0.000 A 
ATOM     23  C   UNL     1      -5.154  29.115  24.276  0.00  0.00    +0.000 A 
ATOM     24  C   UNL     1      -5.669  29.497  23.039  0.00  0.00    +0.000 A 
ENDBRANCH  11  19
BRANCH   9  25
ATOM     25  O   UNL     1       0.399  28.950  16.988  0.00  0.00    +0.000 OA
ATOM     26  H   UNL     1       0.773  29.317  16.169  0.00  0.00    +0.000 HD
ENDBRANCH   9  25
TORSDOF 3
ENDMDL
MODEL 6
REMARK VINA RESULT:      -6.2      1.676      8.050
REMARK  Name = Lobelin.pdbqt.pdb
REMARK  3 active torsions:
REMARK  status: ('A' for Active; 'I' for Inactive)
REMARK    1  A    between atoms: C_9  and  O_10
REMARK    2  A    between atoms: C_9  and  C_12
REMARK    3  A    between atoms: C_19  and  C_21
REMARK                            x       y       z     vdW  Elec       q    Type
REMARK                         _______ _______ _______ _____ _____    ______ ____
ROOT
ATOM      1  N   UNL     1       9.457  20.291  30.322  0.00  0.00    +0.000 N 
ATOM      2  C   UNL     1       8.402  21.176  30.806  0.00  0.00    +0.000 C 
ATOM      3  C   UNL     1       9.296  18.843  30.410  0.00  0.00    +0.000 C 
ATOM      4  C   UNL     1       7.243  20.507  31.307  0.00  0.00    +0.000 C 
ATOM      5  C   UNL     1       8.047  18.411  30.953  0.00  0.00    +0.000 C 
ATOM      6  C   UNL     1       6.795  19.070  31.499  0.00  0.00    +0.000 C 
ATOM      7  C   UNL     1      10.714  20.845  29.870  0.00  0.00    +0.000 C 
ATOM      8  C   UNL     1       8.514  22.592  30.770  0.00  0.00    +0.000 C 
ATOM      9  C   UNL     1       8.624  24.006  30.708  0.00  0.00    +0.000 C 
ATOM     10  C   UNL     1      10.300  17.940  29.978  0.00  0.00    +0.000 C 
ATOM     11  C   UNL     1      11.307  17.024  29.509  0.00  0.00    +0.000 C 
ATOM     12  O   UNL     1      10.991  16.144  28.721  0.00  0.00    +0.000 OA
ENDROOT
BRANCH   9  13
ATOM     13  C   UNL     1       8.742  24.768  29.464  0.00  0.00    +0.000 A 
ATOM     14  C   UNL     1       7.876  24.529  28.393  0.00  0.00    +0.000 A 
ATOM     15  C   UNL     1       7.988  25.255  27.208  0.00  0.00    +0.000 A 
ATOM     16  C   UNL     1       8.971  26.232  27.083  0.00  0.00    +0.000 A 
ATOM     17  C   UNL     1       9.842  26.481  28.139  0.00  0.00    +0.000 A 
ATOM     18  C   UNL     1       9.725  25.751  29.321  0.00  0.00    +0.000 A 
ENDBRANCH   9  13
BRANCH  11  19
ATOM     19  C   UNL     1      12.684  17.176  30.009  0.00  0.00    +0.000 A 
ATOM     20  C   UNL     1      13.727  16.402  29.500  0.00  0.00    +0.000 A 
ATOM     21  C   UNL     1      15.020  16.573  29.989  0.00  0.00    +0.000 A 
ATOM     22  C   UNL     1      15.270  17.517  30.983  0.00  0.00    +0.000 A 
ATOM     23  C   UNL     1      14.228  18.292  31.488  0.00  0.00    +0.000 A 
ATOM     24  C   UNL     1      12.934  18.123  31.002  0.00  0.00    +0.000 A 
ENDBRANCH  11  19
BRANCH   9  25
ATOM     25  O   UNL     1       8.613  24.726  31.880  0.00  0.00    +0.000 OA
ATOM     26  H   UNL     1       7.941  24.398  32.502  0.00  0.00    +0.000 HD
ENDBRANCH   9  25
TORSDOF 3
ENDMDL
MODEL 7
REMARK VINA RESULT:      -6.0     24.388     26.257
REMARK  Name = Lobelin.pdbqt.pdb
REMARK  3 active torsions:
REMARK  status: ('A' for Active; 'I' for Inactive)
REMARK    1  A    between atoms: C_9  and  O_10
REMARK    2  A    between atoms: C_9  and  C_12
REMARK    3  A    between atoms: C_19  and  C_21
REMARK                            x       y       z     vdW  Elec       q    Type
REMARK                         _______ _______ _______ _____ _____    ______ ____
ROOT
ATOM      1  N   UNL     1      20.456  34.433  13.399  0.00  0.00    +0.000 N 
ATOM      2  C   UNL     1      20.818  34.662  14.793  0.00  0.00    +0.000 C 
ATOM      3  C   UNL     1      19.120  34.781  12.922  0.00  0.00    +0.000 C 
ATOM      4  C   UNL     1      19.797  35.271  15.585  0.00  0.00    +0.000 C 
ATOM      5  C   UNL     1      18.271  35.377  13.904  0.00  0.00    +0.000 C 
ATOM      6  C   UNL     1      18.372  35.750  15.370  0.00  0.00    +0.000 C 
ATOM      7  C   UNL     1      21.372  33.744  12.517  0.00  0.00    +0.000 C 
ATOM      8  C   UNL     1      22.093  34.318  15.320  0.00  0.00    +0.000 C 
ATOM      9  C   UNL     1      23.376  33.995  15.831  0.00  0.00    +0.000 C 
ATOM     10  C   UNL     1      18.709  34.555  11.584  0.00  0.00    +0.000 C 
ATOM     11  C   UNL     1      18.304  34.355  10.217  0.00  0.00    +0.000 C 
ATOM     12  O   UNL     1      17.832  35.294   9.592  0.00  0.00    +0.000 OA
ENDROOT
BRANCH   9  13
ATOM     13  C   UNL     1      24.624  34.604  15.369  0.00  0.00    +0.000 A 
ATOM     14  C   UNL     1      24.615  35.820  14.681  0.00  0.00    +0.000 A 
ATOM     15  C   UNL     1      25.803  36.401  14.241  0.00  0.00    +0.000 A 
ATOM     16  C   UNL     1      27.018  35.768  14.485  0.00  0.00    +0.000 A 
ATOM     17  C   UNL     1      27.044  34.555  15.168  0.00  0.00    +0.000 A 
ATOM     18  C   UNL     1      25.852  33.979  15.605  0.00  0.00    +0.000 A 
ENDBRANCH   9  13
BRANCH  11  19
ATOM     19  C   UNL     1      18.462  33.016   9.625  0.00  0.00    +0.000 A 
ATOM     20  C   UNL     1      17.368  32.169   9.447  0.00  0.00    +0.000 A 
ATOM     21  C   UNL     1      17.549  30.911   8.878  0.00  0.00    +0.000 A 
ATOM     22  C   UNL     1      18.821  30.501   8.486  0.00  0.00    +0.000 A 
ATOM     23  C   UNL     1      19.914  31.349   8.660  0.00  0.00    +0.000 A 
ATOM     24  C   UNL     1      19.735  32.607   9.229  0.00  0.00    +0.000 A 
ENDBRANCH  11  19
BRANCH   9  25
ATOM     25  O   UNL     1      23.476  33.056  16.833  0.00  0.00    +0.000 OA
ATOM     26  H   UNL     1      23.738  32.185  16.489  0.00  0.00    +0.000 HD
ENDBRANCH   9  25
TORSDOF 3
ENDMDL
MODEL 8
REMARK VINA RESULT:      -6.0      2.375      8.174
REMARK  Name = Lobelin.pdbqt.pdb
REMARK  3 active torsions:
REMARK  status: ('A' for Active; 'I' for Inactive)
REMARK    1  A    between atoms: C_9  and  O_10
REMARK    2  A    between atoms: C_9  and  C_12
REMARK    3  A    between atoms: C_19  and  C_21
REMARK                            x       y       z     vdW  Elec       q    Type
REMARK                         _______ _______ _______ _____ _____    ______ ____
ROOT
ATOM      1  N   UNL     1       8.835  21.614  30.328  0.00  0.00    +0.000 N 
ATOM      2  C   UNL     1       7.778  22.603  30.513  0.00  0.00    +0.000 C 
ATOM      3  C   UNL     1       8.553  20.195  30.524  0.00  0.00    +0.000 C 
ATOM      4  C   UNL     1       6.499  22.057  30.844  0.00  0.00    +0.000 C 
ATOM      5  C   UNL     1       7.196  19.894  30.855  0.00  0.00    +0.000 C 
ATOM      6  C   UNL     1       5.917  20.677  31.084  0.00  0.00    +0.000 C 
ATOM      7  C   UNL     1      10.192  22.045  30.075  0.00  0.00    +0.000 C 
ATOM      8  C   UNL     1       8.000  23.998  30.363  0.00  0.00    +0.000 C 
ATOM      9  C   UNL     1       8.224  25.388  30.187  0.00  0.00    +0.000 C 
ATOM     10  C   UNL     1       9.550  19.196  30.382  0.00  0.00    +0.000 C 
ATOM     11  C   UNL     1      10.554  18.181  30.206  0.00  0.00    +0.000 C 
ATOM     12  O   UNL     1      10.326  17.240  29.460  0.00  0.00    +0.000 OA
ENDROOT
BRANCH   9  13
ATOM     13  C   UNL     1       8.627  26.003  28.922  0.00  0.00    +0.000 A 
ATOM     14  C   UNL     1       9.373  27.185  28.906  0.00  0.00    +0.000 A 
ATOM     15  C   UNL     1       9.758  27.772  27.702  0.00  0.00    +0.000 A 
ATOM     16  C   UNL     1       9.400  27.179  26.495  0.00  0.00    +0.000 A 
ATOM     17  C   UNL     1       8.656  26.003  26.493  0.00  0.00    +0.000 A 
ATOM     18  C   UNL     1       8.274  25.421  27.701  0.00  0.00    +0.000 A 
ENDBRANCH   9  13
BRANCH  11  19
ATOM     19  C   UNL     1      11.822  18.310  30.944  0.00  0.00    +0.000 A 
ATOM     20  C   UNL     1      11.854  18.811  32.246  0.00  0.00    +0.000 A 
ATOM     21  C   UNL     1      13.068  18.915  32.920  0.00  0.00    +0.000 A 
ATOM     22  C   UNL     1      14.248  18.517  32.295  0.00  0.00    +0.000 A 
ATOM     23  C   UNL     1      14.215  18.014  30.996  0.00  0.00    +0.000 A 
ATOM     24  C   UNL     1      13.003  17.909  30.320  0.00  0.00    +0.000 A 
ENDBRANCH  11  19
BRANCH   9  25
ATOM     25  O   UNL     1       8.049  26.232  31.260  0.00  0.00    +0.000 OA
ATOM     26  H   UNL     1       7.291  25.969  31.809  0.00  0.00    +0.000 HD
ENDBRANCH   9  25
TORSDOF 3
ENDMDL
MODEL 9
REMARK VINA RESULT:      -5.8     18.462     20.896
REMARK  Name = Lobelin.pdbqt.pdb
REMARK  3 active torsions:
REMARK  status: ('A' for Active; 'I' for Inactive)
REMARK    1  A    between atoms: C_9  and  O_10
REMARK    2  A    between atoms: C_9  and  C_12
REMARK    3  A    between atoms: C_19  and  C_21
REMARK                            x       y       z     vdW  Elec       q    Type
REMARK                         _______ _______ _______ _____ _____    ______ ____
ROOT
ATOM      1  N   UNL     1      -3.999  29.098  18.634  0.00  0.00    +0.000 N 
ATOM      2  C   UNL     1      -5.196  29.760  19.142  0.00  0.00    +0.000 C 
ATOM      3  C   UNL     1      -3.206  29.724  17.580  0.00  0.00    +0.000 C 
ATOM      4  C   UNL     1      -5.467  31.036  18.559  0.00  0.00    +0.000 C 
ATOM      5  C   UNL     1      -3.680  31.003  17.155  0.00  0.00    +0.000 C 
ATOM      6  C   UNL     1      -4.836  31.923  17.501  0.00  0.00    +0.000 C 
ATOM      7  C   UNL     1      -3.666  27.764  19.083  0.00  0.00    +0.000 C 
ATOM      8  C   UNL     1      -6.021  29.187  20.146  0.00  0.00    +0.000 C 
ATOM      9  C   UNL     1      -6.826  28.618  21.168  0.00  0.00    +0.000 C 
ATOM     10  C   UNL     1      -2.050  29.111  17.034  0.00  0.00    +0.000 C 
ATOM     11  C   UNL     1      -0.858  28.503  16.504  0.00  0.00    +0.000 C 
ATOM     12  O   UNL     1       0.179  29.149  16.478  0.00  0.00    +0.000 OA
ENDROOT
BRANCH   9  13
ATOM     13  C   UNL     1      -6.358  28.343  22.527  0.00  0.00    +0.000 A 
ATOM     14  C   UNL     1      -6.673  27.138  23.162  0.00  0.00    +0.000 A 
ATOM     15  C   UNL     1      -6.227  26.874  24.456  0.00  0.00    +0.000 A 
ATOM     16  C   UNL     1      -5.459  27.817  25.131  0.00  0.00    +0.000 A 
ATOM     17  C   UNL     1      -5.138  29.023  24.514  0.00  0.00    +0.000 A 
ATOM     18  C   UNL     1      -5.587  29.281  23.220  0.00  0.00    +0.000 A 
ENDBRANCH   9  13
BRANCH  11  19
ATOM     19  C   UNL     1      -0.938  27.122  15.999  0.00  0.00    +0.000 A 
ATOM     20  C   UNL     1      -1.743  26.169  16.623  0.00  0.00    +0.000 A 
ATOM     21  C   UNL     1      -1.802  24.872  16.118  0.00  0.00    +0.000 A 
ATOM     22  C   UNL     1      -1.060  24.530  14.990  0.00  0.00    +0.000 A 
ATOM     23  C   UNL     1      -0.259  25.483  14.364  0.00  0.00    +0.000 A 
ATOM     24  C   UNL     1      -0.198  26.780  14.867  0.00  0.00    +0.000 A 
ENDBRANCH  11  19
BRANCH   9  25
ATOM     25  O   UNL     1      -8.136  28.305  20.886  0.00  0.00    +0.000 OA
ATOM     26  H   UNL     1      -8.254  27.354  20.720  0.00  0.00    +0.000 HD
ENDBRANCH   9  25
TORSDOF 3
ENDMDL
