MODEL 1
REMARK VINA RESULT:      -5.6      0.000      0.000
REMARK  Name = LUCANTHONE.pdbqt.pdb
REMARK  5 active torsions:
REMARK  status: ('A' for Active; 'I' for Inactive)
REMARK    1  A    between atoms: C_3  and  N_17
REMARK    2  A    between atoms: N_17  and  C_19
REMARK    3  A    between atoms: C_20  and  N_21
REMARK    4  A    between atoms: N_21  and  C_22
REMARK    5  A    between atoms: N_21  and  C_24
REMARK                            x       y       z     vdW  Elec       q    Type
REMARK                         _______ _______ _______ _____ _____    ______ ____
ROOT
ATOM      1  S   UNL     1      21.755  26.759   3.096  0.00  0.00    +0.000 S 
ATOM      2  O   UNL     1      18.218  29.155   3.832  0.00  0.00    +0.000 OA
ATOM      3  C   UNL     1      20.152  29.406   5.836  0.00  0.00    +0.000 A 
ATOM      4  C   UNL     1      20.296  28.517   4.734  0.00  0.00    +0.000 A 
ATOM      5  C   UNL     1      21.517  27.848   4.502  0.00  0.00    +0.000 A 
ATOM      6  C   UNL     1      22.587  28.078   5.399  0.00  0.00    +0.000 A 
ATOM      7  C   UNL     1      19.129  28.329   3.824  0.00  0.00    +0.000 A 
ATOM      8  C   UNL     1      21.235  29.575   6.707  0.00  0.00    +0.000 A 
ATOM      9  C   UNL     1      19.013  27.168   2.931  0.00  0.00    +0.000 A 
ATOM     10  C   UNL     1      22.442  28.933   6.487  0.00  0.00    +0.000 A 
ATOM     11  C   UNL     1      20.112  26.399   2.578  0.00  0.00    +0.000 A 
ATOM     12  C   UNL     1      23.946  27.426   5.264  0.00  0.00    +0.000 C 
ATOM     13  C   UNL     1      17.744  26.861   2.427  0.00  0.00    +0.000 A 
ATOM     14  C   UNL     1      19.927  25.312   1.720  0.00  0.00    +0.000 A 
ATOM     15  C   UNL     1      17.569  25.772   1.578  0.00  0.00    +0.000 A 
ATOM     16  C   UNL     1      18.665  24.993   1.225  0.00  0.00    +0.000 A 
ENDROOT
BRANCH   3  17
ATOM     17  N   UNL     1      18.903  29.993   6.166  0.00  0.00    +0.000 N 
ATOM     18  H   UNL     1      18.340  30.176   5.322  0.00  0.00    +0.000 HD
BRANCH  17  19
ATOM     19  C   UNL     1      18.838  30.995   7.217  0.00  0.00    +0.000 C 
ATOM     20  C   UNL     1      18.770  32.052   8.323  0.00  0.00    +0.000 C 
BRANCH  20  21
ATOM     21  N   UNL     1      18.718  33.054   9.376  0.00  0.00    +0.000 N 
BRANCH  21  22
ATOM     22  C   UNL     1      19.800  32.766  10.300  0.00  0.00    +0.000 C 
ATOM     23  C   UNL     1      20.945  32.451  11.266  0.00  0.00    +0.000 C 
ENDBRANCH  21  22
BRANCH  21  24
ATOM     24  C   UNL     1      17.484  32.841  10.108  0.00  0.00    +0.000 C 
ATOM     25  C   UNL     1      16.173  32.631  10.871  0.00  0.00    +0.000 C 
ENDBRANCH  21  24
ENDBRANCH  20  21
ENDBRANCH  17  19
ENDBRANCH   3  17
TORSDOF 5
ENDMDL
MODEL 2
REMARK VINA RESULT:      -5.1     22.070     23.852
REMARK  Name = LUCANTHONE.pdbqt.pdb
REMARK  5 active torsions:
REMARK  status: ('A' for Active; 'I' for Inactive)
REMARK    1  A    between atoms: C_3  and  N_17
REMARK    2  A    between atoms: N_17  and  C_19
REMARK    3  A    between atoms: C_20  and  N_21
REMARK    4  A    between atoms: N_21  and  C_22
REMARK    5  A    between atoms: N_21  and  C_24
REMARK                            x       y       z     vdW  Elec       q    Type
REMARK                         _______ _______ _______ _____ _____    ______ ____
ROOT
ATOM      1  S   UNL     1      29.658  14.686  17.728  0.00  0.00    +0.000 S 
ATOM      2  O   UNL     1      29.369  14.675  22.054  0.00  0.00    +0.000 OA
ATOM      3  C   UNL     1      28.557  12.265  20.891  0.00  0.00    +0.000 A 
ATOM      4  C   UNL     1      28.947  13.397  20.123  0.00  0.00    +0.000 A 
ATOM      5  C   UNL     1      29.119  13.296  18.726  0.00  0.00    +0.000 A 
ATOM      6  C   UNL     1      28.885  12.043  18.112  0.00  0.00    +0.000 A 
ATOM      7  C   UNL     1      29.187  14.685  20.838  0.00  0.00    +0.000 A 
ATOM      8  C   UNL     1      28.311  11.057  20.229  0.00  0.00    +0.000 A 
ATOM      9  C   UNL     1      29.184  15.978  20.141  0.00  0.00    +0.000 A 
ATOM     10  C   UNL     1      28.485  10.940  18.860  0.00  0.00    +0.000 A 
ATOM     11  C   UNL     1      29.355  16.074  18.768  0.00  0.00    +0.000 A 
ATOM     12  C   UNL     1      29.033  11.798  16.626  0.00  0.00    +0.000 C 
ATOM     13  C   UNL     1      29.013  17.132  20.913  0.00  0.00    +0.000 A 
ATOM     14  C   UNL     1      29.346  17.338  18.173  0.00  0.00    +0.000 A 
ATOM     15  C   UNL     1      28.999  18.386  20.311  0.00  0.00    +0.000 A 
ATOM     16  C   UNL     1      29.164  18.490  18.935  0.00  0.00    +0.000 A 
ENDROOT
BRANCH   3  17
ATOM     17  N   UNL     1      28.254  12.367  22.274  0.00  0.00    +0.000 N 
ATOM     18  H   UNL     1      29.013  11.976  22.854  0.00  0.00    +0.000 HD
BRANCH  17  19
ATOM     19  C   UNL     1      26.897  12.118  22.731  0.00  0.00    +0.000 C 
ATOM     20  C   UNL     1      25.467  11.853  23.212  0.00  0.00    +0.000 C 
BRANCH  20  21
ATOM     21  N   UNL     1      24.108  11.594  23.660  0.00  0.00    +0.000 N 
BRANCH  21  22
ATOM     22  C   UNL     1      23.802  12.567  24.693  0.00  0.00    +0.000 C 
ATOM     23  C   UNL     1      23.466  13.586  25.785  0.00  0.00    +0.000 C 
ENDBRANCH  21  22
BRANCH  21  24
ATOM     24  C   UNL     1      24.113  10.296  24.308  0.00  0.00    +0.000 C 
ATOM     25  C   UNL     1      24.138   8.923  24.987  0.00  0.00    +0.000 C 
ENDBRANCH  21  24
ENDBRANCH  20  21
ENDBRANCH  17  19
ENDBRANCH   3  17
TORSDOF 5
ENDMDL
MODEL 3
REMARK VINA RESULT:      -4.9     28.905     31.682
REMARK  Name = LUCANTHONE.pdbqt.pdb
REMARK  5 active torsions:
REMARK  status: ('A' for Active; 'I' for Inactive)
REMARK    1  A    between atoms: C_3  and  N_17
REMARK    2  A    between atoms: N_17  and  C_19
REMARK    3  A    between atoms: C_20  and  N_21
REMARK    4  A    between atoms: N_21  and  C_22
REMARK    5  A    between atoms: N_21  and  C_24
REMARK                            x       y       z     vdW  Elec       q    Type
REMARK                         _______ _______ _______ _____ _____    ______ ____
ROOT
ATOM      1  S   UNL     1      11.938  17.357  30.248  0.00  0.00    +0.000 S 
ATOM      2  O   UNL     1       9.117  15.084  32.630  0.00  0.00    +0.000 OA
ATOM      3  C   UNL     1      11.050  13.486  31.392  0.00  0.00    +0.000 A 
ATOM      4  C   UNL     1      10.967  14.892  31.187  0.00  0.00    +0.000 A 
ATOM      5  C   UNL     1      11.980  15.579  30.486  0.00  0.00    +0.000 A 
ATOM      6  C   UNL     1      13.073  14.831  29.985  0.00  0.00    +0.000 A 
ATOM      7  C   UNL     1       9.792  15.617  31.750  0.00  0.00    +0.000 A 
ATOM      8  C   UNL     1      12.139  12.792  30.852  0.00  0.00    +0.000 A 
ATOM      9  C   UNL     1       9.388  16.945  31.268  0.00  0.00    +0.000 A 
ATOM     10  C   UNL     1      13.146  13.455  30.170  0.00  0.00    +0.000 A 
ATOM     11  C   UNL     1      10.258  17.770  30.570  0.00  0.00    +0.000 A 
ATOM     12  C   UNL     1      14.224  15.444  29.217  0.00  0.00    +0.000 C 
ATOM     13  C   UNL     1       8.084  17.368  31.546  0.00  0.00    +0.000 A 
ATOM     14  C   UNL     1       9.807  19.022  30.147  0.00  0.00    +0.000 A 
ATOM     15  C   UNL     1       7.641  18.615  31.114  0.00  0.00    +0.000 A 
ATOM     16  C   UNL     1       8.505  19.445  30.409  0.00  0.00    +0.000 A 
ENDROOT
BRANCH   3  17
ATOM     17  N   UNL     1       9.988  12.751  31.982  0.00  0.00    +0.000 N 
ATOM     18  H   UNL     1       9.973  12.872  33.006  0.00  0.00    +0.000 HD
BRANCH  17  19
ATOM     19  C   UNL     1       9.671  11.424  31.482  0.00  0.00    +0.000 C 
ATOM     20  C   UNL     1       9.338  10.025  30.953  0.00  0.00    +0.000 C 
BRANCH  20  21
ATOM     21  N   UNL     1       9.029   8.700  30.442  0.00  0.00    +0.000 N 
BRANCH  21  22
ATOM     22  C   UNL     1       8.394   8.874  29.148  0.00  0.00    +0.000 C 
ATOM     23  C   UNL     1       7.738   9.053  27.777  0.00  0.00    +0.000 C 
ENDBRANCH  21  22
BRANCH  21  24
ATOM     24  C   UNL     1       8.024   8.128  31.319  0.00  0.00    +0.000 C 
ATOM     25  C   UNL     1       6.965   7.507  32.235  0.00  0.00    +0.000 C 
ENDBRANCH  21  24
ENDBRANCH  20  21
ENDBRANCH  17  19
ENDBRANCH   3  17
TORSDOF 5
ENDMDL
MODEL 4
REMARK VINA RESULT:      -4.7     24.776     28.700
REMARK  Name = LUCANTHONE.pdbqt.pdb
REMARK  5 active torsions:
REMARK  status: ('A' for Active; 'I' for Inactive)
REMARK    1  A    between atoms: C_3  and  N_17
REMARK    2  A    between atoms: N_17  and  C_19
REMARK    3  A    between atoms: C_20  and  N_21
REMARK    4  A    between atoms: N_21  and  C_22
REMARK    5  A    between atoms: N_21  and  C_24
REMARK                            x       y       z     vdW  Elec       q    Type
REMARK                         _______ _______ _______ _____ _____    ______ ____
ROOT
ATOM      1  S   UNL     1       8.166  26.596  31.217  0.00  0.00    +0.000 S 
ATOM      2  O   UNL     1       7.769  23.414  28.298  0.00  0.00    +0.000 OA
ATOM      3  C   UNL     1       7.942  22.479  30.928  0.00  0.00    +0.000 A 
ATOM      4  C   UNL     1       8.055  23.858  30.592  0.00  0.00    +0.000 A 
ATOM      5  C   UNL     1       8.076  24.845  31.599  0.00  0.00    +0.000 A 
ATOM      6  C   UNL     1       7.992  24.427  32.949  0.00  0.00    +0.000 A 
ATOM      7  C   UNL     1       8.129  24.226  29.149  0.00  0.00    +0.000 A 
ATOM      8  C   UNL     1       7.891  22.120  32.280  0.00  0.00    +0.000 A 
ATOM      9  C   UNL     1       8.650  25.525  28.700  0.00  0.00    +0.000 A 
ATOM     10  C   UNL     1       7.901  23.079  33.279  0.00  0.00    +0.000 A 
ATOM     11  C   UNL     1       8.731  26.618  29.549  0.00  0.00    +0.000 A 
ATOM     12  C   UNL     1       8.004  25.382  34.123  0.00  0.00    +0.000 C 
ATOM     13  C   UNL     1       9.056  25.636  27.366  0.00  0.00    +0.000 A 
ATOM     14  C   UNL     1       9.231  27.824  29.052  0.00  0.00    +0.000 A 
ATOM     15  C   UNL     1       9.560  26.839  26.881  0.00  0.00    +0.000 A 
ATOM     16  C   UNL     1       9.651  27.937  27.728  0.00  0.00    +0.000 A 
ENDROOT
BRANCH   3  17
ATOM     17  N   UNL     1       8.045  21.458  29.947  0.00  0.00    +0.000 N 
ATOM     18  H   UNL     1       7.257  21.496  29.283  0.00  0.00    +0.000 HD
BRANCH  17  19
ATOM     19  C   UNL     1       8.501  20.134  30.336  0.00  0.00    +0.000 C 
ATOM     20  C   UNL     1       8.983  18.739  30.746  0.00  0.00    +0.000 C 
BRANCH  20  21
ATOM     21  N   UNL     1       9.450  17.417  31.130  0.00  0.00    +0.000 N 
BRANCH  21  22
ATOM     22  C   UNL     1      10.359  16.963  30.093  0.00  0.00    +0.000 C 
ATOM     23  C   UNL     1      11.320  16.472  29.007  0.00  0.00    +0.000 C 
ENDBRANCH  21  22
BRANCH  21  24
ATOM     24  C   UNL     1       8.303  16.530  31.087  0.00  0.00    +0.000 C 
ATOM     25  C   UNL     1       7.089  15.595  31.064  0.00  0.00    +0.000 C 
ENDBRANCH  21  24
ENDBRANCH  20  21
ENDBRANCH  17  19
ENDBRANCH   3  17
TORSDOF 5
ENDMDL
MODEL 5
REMARK VINA RESULT:      -4.7      2.091      3.038
REMARK  Name = LUCANTHONE.pdbqt.pdb
REMARK  5 active torsions:
REMARK  status: ('A' for Active; 'I' for Inactive)
REMARK    1  A    between atoms: C_3  and  N_17
REMARK    2  A    between atoms: N_17  and  C_19
REMARK    3  A    between atoms: C_20  and  N_21
REMARK    4  A    between atoms: N_21  and  C_22
REMARK    5  A    between atoms: N_21  and  C_24
REMARK                            x       y       z     vdW  Elec       q    Type
REMARK                         _______ _______ _______ _____ _____    ______ ____
ROOT
ATOM      1  S   UNL     1      20.923  23.991   1.853  0.00  0.00    +0.000 S 
ATOM      2  O   UNL     1      17.801  26.989   2.112  0.00  0.00    +0.000 OA
ATOM      3  C   UNL     1      20.209  27.804   3.277  0.00  0.00    +0.000 A 
ATOM      4  C   UNL     1      20.021  26.504   2.730  0.00  0.00    +0.000 A 
ATOM      5  C   UNL     1      21.109  25.619   2.584  0.00  0.00    +0.000 A 
ATOM      6  C   UNL     1      22.388  26.055   3.005  0.00  0.00    +0.000 A 
ATOM      7  C   UNL     1      18.647  26.114   2.299  0.00  0.00    +0.000 A 
ATOM      8  C   UNL     1      21.491  28.173   3.702  0.00  0.00    +0.000 A 
ATOM      9  C   UNL     1      18.253  24.711   2.117  0.00  0.00    +0.000 A 
ATOM     10  C   UNL     1      22.570  27.319   3.557  0.00  0.00    +0.000 A 
ATOM     11  C   UNL     1      19.189  23.702   1.942  0.00  0.00    +0.000 A 
ATOM     12  C   UNL     1      23.637  25.206   2.904  0.00  0.00    +0.000 C 
ATOM     13  C   UNL     1      16.886  24.415   2.110  0.00  0.00    +0.000 A 
ATOM     14  C   UNL     1      18.742  22.390   1.769  0.00  0.00    +0.000 A 
ATOM     15  C   UNL     1      16.450  23.104   1.944  0.00  0.00    +0.000 A 
ATOM     16  C   UNL     1      17.382  22.086   1.775  0.00  0.00    +0.000 A 
ENDROOT
BRANCH   3  17
ATOM     17  N   UNL     1      19.116  28.667   3.553  0.00  0.00    +0.000 N 
ATOM     18  H   UNL     1      18.667  28.992   2.683  0.00  0.00    +0.000 HD
BRANCH  17  19
ATOM     19  C   UNL     1      19.223  29.639   4.627  0.00  0.00    +0.000 C 
ATOM     20  C   UNL     1      19.337  30.665   5.760  0.00  0.00    +0.000 C 
BRANCH  20  21
ATOM     21  N   UNL     1      19.455  31.642   6.830  0.00  0.00    +0.000 N 
BRANCH  21  22
ATOM     22  C   UNL     1      20.765  31.468   7.430  0.00  0.00    +0.000 C 
ATOM     23  C   UNL     1      22.142  31.289   8.076  0.00  0.00    +0.000 C 
ENDBRANCH  21  22
BRANCH  21  24
ATOM     24  C   UNL     1      18.486  31.281   7.846  0.00  0.00    +0.000 C 
ATOM     25  C   UNL     1      17.454  30.886   8.907  0.00  0.00    +0.000 C 
ENDBRANCH  21  24
ENDBRANCH  20  21
ENDBRANCH  17  19
ENDBRANCH   3  17
TORSDOF 5
ENDMDL
MODEL 6
REMARK VINA RESULT:      -4.7     19.589     22.746
REMARK  Name = LUCANTHONE.pdbqt.pdb
REMARK  5 active torsions:
REMARK  status: ('A' for Active; 'I' for Inactive)
REMARK    1  A    between atoms: C_3  and  N_17
REMARK    2  A    between atoms: N_17  and  C_19
REMARK    3  A    between atoms: C_20  and  N_21
REMARK    4  A    between atoms: N_21  and  C_22
REMARK    5  A    between atoms: N_21  and  C_24
REMARK                            x       y       z     vdW  Elec       q    Type
REMARK                         _______ _______ _______ _____ _____    ______ ____
ROOT
ATOM      1  S   UNL     1       1.740  17.507   2.007  0.00  0.00    +0.000 S 
ATOM      2  O   UNL     1       4.705  14.705   3.475  0.00  0.00    +0.000 OA
ATOM      3  C   UNL     1       2.647  15.189   5.306  0.00  0.00    +0.000 A 
ATOM      4  C   UNL     1       2.739  15.863   4.055  0.00  0.00    +0.000 A 
ATOM      5  C   UNL     1       1.684  16.680   3.598  0.00  0.00    +0.000 A 
ATOM      6  C   UNL     1       0.540  16.819   4.420  0.00  0.00    +0.000 A 
ATOM      7  C   UNL     1       3.970  15.663   3.237  0.00  0.00    +0.000 A 
ATOM      8  C   UNL     1       1.504  15.383   6.090  0.00  0.00    +0.000 A 
ATOM      9  C   UNL     1       4.358  16.593   2.168  0.00  0.00    +0.000 A 
ATOM     10  C   UNL     1       0.457  16.176   5.650  0.00  0.00    +0.000 A 
ATOM     11  C   UNL     1       3.448  17.464   1.586  0.00  0.00    +0.000 A 
ATOM     12  C   UNL     1      -0.659  17.665   4.049  0.00  0.00    +0.000 C 
ATOM     13  C   UNL     1       5.688  16.569   1.736  0.00  0.00    +0.000 A 
ATOM     14  C   UNL     1       3.886  18.317   0.570  0.00  0.00    +0.000 A 
ATOM     15  C   UNL     1       6.116  17.427   0.728  0.00  0.00    +0.000 A 
ATOM     16  C   UNL     1       5.213  18.308   0.144  0.00  0.00    +0.000 A 
ENDROOT
BRANCH   3  17
ATOM     17  N   UNL     1       3.740  14.463   5.847  0.00  0.00    +0.000 N 
ATOM     18  H   UNL     1       4.532  14.430   5.187  0.00  0.00    +0.000 HD
BRANCH  17  19
ATOM     19  C   UNL     1       3.488  13.256   6.616  0.00  0.00    +0.000 C 
ATOM     20  C   UNL     1       3.223  11.983   7.427  0.00  0.00    +0.000 C 
BRANCH  20  21
ATOM     21  N   UNL     1       2.983  10.771   8.193  0.00  0.00    +0.000 N 
BRANCH  21  22
ATOM     22  C   UNL     1       1.567  10.734   8.508  0.00  0.00    +0.000 C 
ATOM     23  C   UNL     1       0.070  10.684   8.829  0.00  0.00    +0.000 C 
ENDBRANCH  21  22
BRANCH  21  24
ATOM     24  C   UNL     1       3.681  10.919   9.456  0.00  0.00    +0.000 C 
ATOM     25  C   UNL     1       4.415  11.055  10.794  0.00  0.00    +0.000 C 
ENDBRANCH  21  24
ENDBRANCH  20  21
ENDBRANCH  17  19
ENDBRANCH   3  17
TORSDOF 5
ENDMDL
MODEL 7
REMARK VINA RESULT:      -4.7     15.421     18.473
REMARK  Name = LUCANTHONE.pdbqt.pdb
REMARK  5 active torsions:
REMARK  status: ('A' for Active; 'I' for Inactive)
REMARK    1  A    between atoms: C_3  and  N_17
REMARK    2  A    between atoms: N_17  and  C_19
REMARK    3  A    between atoms: C_20  and  N_21
REMARK    4  A    between atoms: N_21  and  C_22
REMARK    5  A    between atoms: N_21  and  C_24
REMARK                            x       y       z     vdW  Elec       q    Type
REMARK                         _______ _______ _______ _____ _____    ______ ____
ROOT
ATOM      1  S   UNL     1      28.950  22.450  18.890  0.00  0.00    +0.000 S 
ATOM      2  O   UNL     1      28.332  21.024  14.842  0.00  0.00    +0.000 OA
ATOM      3  C   UNL     1      29.647  19.170  16.473  0.00  0.00    +0.000 A 
ATOM      4  C   UNL     1      29.294  20.475  16.920  0.00  0.00    +0.000 A 
ATOM      5  C   UNL     1      29.430  20.833  18.277  0.00  0.00    +0.000 A 
ATOM      6  C   UNL     1      29.933  19.865  19.178  0.00  0.00    +0.000 A 
ATOM      7  C   UNL     1      28.761  21.442  15.917  0.00  0.00    +0.000 A 
ATOM      8  C   UNL     1      30.166  18.261  17.402  0.00  0.00    +0.000 A 
ATOM      9  C   UNL     1      28.757  22.892  16.154  0.00  0.00    +0.000 A 
ATOM     10  C   UNL     1      30.295  18.595  18.739  0.00  0.00    +0.000 A 
ATOM     11  C   UNL     1      28.865  23.428  17.429  0.00  0.00    +0.000 A 
ATOM     12  C   UNL     1      30.127  20.118  20.657  0.00  0.00    +0.000 C 
ATOM     13  C   UNL     1      28.625  23.733  15.044  0.00  0.00    +0.000 A 
ATOM     14  C   UNL     1      28.848  24.817  17.581  0.00  0.00    +0.000 A 
ATOM     15  C   UNL     1      28.616  25.115  15.204  0.00  0.00    +0.000 A 
ATOM     16  C   UNL     1      28.731  25.660  16.478  0.00  0.00    +0.000 A 
ENDROOT
BRANCH   3  17
ATOM     17  N   UNL     1      29.641  18.823  15.097  0.00  0.00    +0.000 N 
ATOM     18  H   UNL     1      29.531  19.657  14.500  0.00  0.00    +0.000 HD
BRANCH  17  19
ATOM     19  C   UNL     1      28.947  17.622  14.664  0.00  0.00    +0.000 C 
ATOM     20  C   UNL     1      28.216  16.355  14.207  0.00  0.00    +0.000 C 
BRANCH  20  21
ATOM     21  N   UNL     1      27.527  15.154  13.763  0.00  0.00    +0.000 N 
BRANCH  21  22
ATOM     22  C   UNL     1      27.965  14.065  14.616  0.00  0.00    +0.000 C 
ATOM     23  C   UNL     1      28.439  12.913  15.507  0.00  0.00    +0.000 C 
ENDBRANCH  21  22
BRANCH  21  24
ATOM     24  C   UNL     1      28.013  14.853  12.429  0.00  0.00    +0.000 C 
ATOM     25  C   UNL     1      28.505  14.531  11.015  0.00  0.00    +0.000 C 
ENDBRANCH  21  24
ENDBRANCH  20  21
ENDBRANCH  17  19
ENDBRANCH   3  17
TORSDOF 5
ENDMDL
MODEL 8
REMARK VINA RESULT:      -4.7     25.297     26.571
REMARK  Name = LUCANTHONE.pdbqt.pdb
REMARK  5 active torsions:
REMARK  status: ('A' for Active; 'I' for Inactive)
REMARK    1  A    between atoms: C_3  and  N_17
REMARK    2  A    between atoms: N_17  and  C_19
REMARK    3  A    between atoms: C_20  and  N_21
REMARK    4  A    between atoms: N_21  and  C_22
REMARK    5  A    between atoms: N_21  and  C_24
REMARK                            x       y       z     vdW  Elec       q    Type
REMARK                         _______ _______ _______ _____ _____    ______ ____
ROOT
ATOM      1  S   UNL     1      27.083   8.243  23.560  0.00  0.00    +0.000 S 
ATOM      2  O   UNL     1      25.786  12.361  23.163  0.00  0.00    +0.000 OA
ATOM      3  C   UNL     1      24.079  10.818  24.752  0.00  0.00    +0.000 A 
ATOM      4  C   UNL     1      25.211  10.272  24.084  0.00  0.00    +0.000 A 
ATOM      5  C   UNL     1      25.633   8.951  24.343  0.00  0.00    +0.000 A 
ATOM      6  C   UNL     1      24.896   8.183  25.276  0.00  0.00    +0.000 A 
ATOM      7  C   UNL     1      25.946  11.141  23.120  0.00  0.00    +0.000 A 
ATOM      8  C   UNL     1      23.371  10.005  25.644  0.00  0.00    +0.000 A 
ATOM      9  C   UNL     1      26.839  10.589  22.093  0.00  0.00    +0.000 A 
ATOM     10  C   UNL     1      23.779   8.710  25.916  0.00  0.00    +0.000 A 
ATOM     11  C   UNL     1      27.366   9.309  22.188  0.00  0.00    +0.000 A 
ATOM     12  C   UNL     1      25.241   6.757  25.644  0.00  0.00    +0.000 C 
ATOM     13  C   UNL     1      27.162  11.406  21.004  0.00  0.00    +0.000 A 
ATOM     14  C   UNL     1      28.213   8.851  21.176  0.00  0.00    +0.000 A 
ATOM     15  C   UNL     1      28.001  10.938  19.997  0.00  0.00    +0.000 A 
ATOM     16  C   UNL     1      28.527   9.654  20.082  0.00  0.00    +0.000 A 
ENDROOT
BRANCH   3  17
ATOM     17  N   UNL     1      23.557  12.095  24.420  0.00  0.00    +0.000 N 
ATOM     18  H   UNL     1      24.011  12.478  23.576  0.00  0.00    +0.000 HD
BRANCH  17  19
ATOM     19  C   UNL     1      23.256  13.044  25.479  0.00  0.00    +0.000 C 
ATOM     20  C   UNL     1      22.940  14.042  26.597  0.00  0.00    +0.000 C 
BRANCH  20  21
ATOM     21  N   UNL     1      22.635  14.981  27.664  0.00  0.00    +0.000 N 
BRANCH  21  22
ATOM     22  C   UNL     1      22.631  16.311  27.081  0.00  0.00    +0.000 C 
ATOM     23  C   UNL     1      22.637  17.709  26.456  0.00  0.00    +0.000 C 
ENDBRANCH  21  22
BRANCH  21  24
ATOM     24  C   UNL     1      23.746  14.944  28.595  0.00  0.00    +0.000 C 
ATOM     25  C   UNL     1      24.932  14.914  29.565  0.00  0.00    +0.000 C 
ENDBRANCH  21  24
ENDBRANCH  20  21
ENDBRANCH  17  19
ENDBRANCH   3  17
TORSDOF 5
ENDMDL
MODEL 9
REMARK VINA RESULT:      -4.7     25.502     26.798
REMARK  Name = LUCANTHONE.pdbqt.pdb
REMARK  5 active torsions:
REMARK  status: ('A' for Active; 'I' for Inactive)
REMARK    1  A    between atoms: C_3  and  N_17
REMARK    2  A    between atoms: N_17  and  C_19
REMARK    3  A    between atoms: C_20  and  N_21
REMARK    4  A    between atoms: N_21  and  C_22
REMARK    5  A    between atoms: N_21  and  C_24
REMARK                            x       y       z     vdW  Elec       q    Type
REMARK                         _______ _______ _______ _____ _____    ______ ____
ROOT
ATOM      1  S   UNL     1      26.434   7.511  23.408  0.00  0.00    +0.000 S 
ATOM      2  O   UNL     1      23.368  10.424  24.362  0.00  0.00    +0.000 OA
ATOM      3  C   UNL     1      25.472  11.493  22.861  0.00  0.00    +0.000 A 
ATOM      4  C   UNL     1      25.463  10.147  23.324  0.00  0.00    +0.000 A 
ATOM      5  C   UNL     1      26.439   9.228  22.887  0.00  0.00    +0.000 A 
ATOM      6  C   UNL     1      27.431   9.683  21.986  0.00  0.00    +0.000 A 
ATOM      7  C   UNL     1      24.382   9.734  24.266  0.00  0.00    +0.000 A 
ATOM      8  C   UNL     1      26.492  11.896  21.992  0.00  0.00    +0.000 A 
ATOM      9  C   UNL     1      24.498   8.539  25.113  0.00  0.00    +0.000 A 
ATOM     10  C   UNL     1      27.452  11.003  21.547  0.00  0.00    +0.000 A 
ATOM     11  C   UNL     1      25.395   7.521  24.829  0.00  0.00    +0.000 A 
ATOM     12  C   UNL     1      28.534   8.802  21.441  0.00  0.00    +0.000 C 
ATOM     13  C   UNL     1      23.655   8.448  26.226  0.00  0.00    +0.000 A 
ATOM     14  C   UNL     1      25.447   6.411  25.676  0.00  0.00    +0.000 A 
ATOM     15  C   UNL     1      23.718   7.341  27.068  0.00  0.00    +0.000 A 
ATOM     16  C   UNL     1      24.620   6.320  26.793  0.00  0.00    +0.000 A 
ENDROOT
BRANCH   3  17
ATOM     17  N   UNL     1      24.581  12.469  23.379  0.00  0.00    +0.000 N 
ATOM     18  H   UNL     1      23.851  12.712  22.692  0.00  0.00    +0.000 HD
BRANCH  17  19
ATOM     19  C   UNL     1      25.103  13.562  24.181  0.00  0.00    +0.000 C 
ATOM     20  C   UNL     1      25.657  14.714  25.026  0.00  0.00    +0.000 C 
BRANCH  20  21
ATOM     21  N   UNL     1      26.189  15.800  25.832  0.00  0.00    +0.000 N 
BRANCH  21  22
ATOM     22  C   UNL     1      25.197  16.859  25.840  0.00  0.00    +0.000 C 
ATOM     23  C   UNL     1      24.159  17.985  25.842  0.00  0.00    +0.000 C 
ENDBRANCH  21  22
BRANCH  21  24
ATOM     24  C   UNL     1      27.345  16.326  25.130  0.00  0.00    +0.000 C 
ATOM     25  C   UNL     1      28.564  16.899  24.400  0.00  0.00    +0.000 C 
ENDBRANCH  21  24
ENDBRANCH  20  21
ENDBRANCH  17  19
ENDBRANCH   3  17
TORSDOF 5
ENDMDL
