MODEL 1
REMARK VINA RESULT:      -5.0      0.000      0.000
REMARK  Name = MeIQx.pdbqt.pdb
REMARK  0 active torsions:
REMARK  status: ('A' for Active; 'I' for Inactive)
REMARK                            x       y       z     vdW  Elec       q    Type
REMARK                         _______ _______ _______ _____ _____    ______ ____
ROOT
ATOM      1  N   UNL     1      -3.929  26.380  18.829  0.00  0.00    +0.000 N 
ATOM      2  N   UNL     1      -2.702  28.160  18.351  0.00  0.00    +0.000 NA
ATOM      3  N   UNL     1      -0.697  28.177  16.205  0.00  0.00    +0.000 NA
ATOM      4  N   UNL     1      -0.372  25.771  14.721  0.00  0.00    +0.000 NA
ATOM      5  C   UNL     1      -3.134  25.983  17.788  0.00  0.00    +0.000 A 
ATOM      6  C   UNL     1      -2.370  27.115  17.503  0.00  0.00    +0.000 A 
ATOM      7  C   UNL     1      -1.421  27.052  16.452  0.00  0.00    +0.000 A 
ATOM      8  C   UNL     1      -1.270  25.848  15.722  0.00  0.00    +0.000 A 
ATOM      9  C   UNL     1      -3.640  27.698  19.147  0.00  0.00    +0.000 A 
ATOM     10  C   UNL     1      -3.009  24.783  17.084  0.00  0.00    +0.000 A 
ATOM     11  C   UNL     1      -2.061  24.757  16.055  0.00  0.00    +0.000 A 
ATOM     12  C   UNL     1      -4.930  25.566  19.457  0.00  0.00    +0.000 C 
ATOM     13  C   UNL     1       0.196  28.079  15.199  0.00  0.00    +0.000 A 
ATOM     14  C   UNL     1       0.352  26.900  14.476  0.00  0.00    +0.000 A 
ATOM     15  C   UNL     1       1.032  29.280  14.861  0.00  0.00    +0.000 C 
ATOM     16  N   UNL     1      -4.244  28.394  20.135  0.00  0.00    +0.000 N 
ATOM     17  H   UNL     1      -4.114  29.401  20.163  0.00  0.00    +0.000 HD
ATOM     18  H   UNL     1      -5.103  28.055  20.563  0.00  0.00    +0.000 HD
ENDROOT
TORSDOF 0
ENDMDL
MODEL 2
REMARK VINA RESULT:      -4.9     23.597     23.846
REMARK  Name = MeIQx.pdbqt.pdb
REMARK  0 active torsions:
REMARK  status: ('A' for Active; 'I' for Inactive)
REMARK                            x       y       z     vdW  Elec       q    Type
REMARK                         _______ _______ _______ _____ _____    ______ ____
ROOT
ATOM      1  N   UNL     1      12.291  17.102  29.837  0.00  0.00    +0.000 N 
ATOM      2  N   UNL     1      14.034  15.981  30.619  0.00  0.00    +0.000 NA
ATOM      3  N   UNL     1      16.348  17.302  31.852  0.00  0.00    +0.000 NA
ATOM      4  N   UNL     1      16.280  20.143  32.015  0.00  0.00    +0.000 NA
ATOM      5  C   UNL     1      13.135  18.066  30.320  0.00  0.00    +0.000 A 
ATOM      6  C   UNL     1      14.224  17.342  30.805  0.00  0.00    +0.000 A 
ATOM      7  C   UNL     1      15.307  18.045  31.389  0.00  0.00    +0.000 A 
ATOM      8  C   UNL     1      15.259  19.459  31.464  0.00  0.00    +0.000 A 
ATOM      9  C   UNL     1      12.866  15.856  30.029  0.00  0.00    +0.000 A 
ATOM     10  C   UNL     1      13.059  19.459  30.382  0.00  0.00    +0.000 A 
ATOM     11  C   UNL     1      14.147  20.120  30.962  0.00  0.00    +0.000 A 
ATOM     12  C   UNL     1      11.000  17.351  29.263  0.00  0.00    +0.000 C 
ATOM     13  C   UNL     1      17.359  18.006  32.400  0.00  0.00    +0.000 A 
ATOM     14  C   UNL     1      17.323  19.395  32.478  0.00  0.00    +0.000 A 
ATOM     15  C   UNL     1      18.546  17.259  32.938  0.00  0.00    +0.000 C 
ATOM     16  N   UNL     1      12.295  14.688  29.659  0.00  0.00    +0.000 N 
ATOM     17  H   UNL     1      12.692  13.824  30.018  0.00  0.00    +0.000 HD
ATOM     18  H   UNL     1      11.309  14.644  29.412  0.00  0.00    +0.000 HD
ENDROOT
TORSDOF 0
ENDMDL
MODEL 3
REMARK VINA RESULT:      -4.9      1.134      4.922
REMARK  Name = MeIQx.pdbqt.pdb
REMARK  0 active torsions:
REMARK  status: ('A' for Active; 'I' for Inactive)
REMARK                            x       y       z     vdW  Elec       q    Type
REMARK                         _______ _______ _______ _____ _____    ______ ____
ROOT
ATOM      1  N   UNL     1      -0.191  27.442  15.607  0.00  0.00    +0.000 N 
ATOM      2  N   UNL     1      -0.969  28.946  17.034  0.00  0.00    +0.000 NA
ATOM      3  N   UNL     1      -3.284  28.441  18.768  0.00  0.00    +0.000 NA
ATOM      4  N   UNL     1      -4.530  25.891  18.551  0.00  0.00    +0.000 NA
ATOM      5  C   UNL     1      -1.255  26.828  16.211  0.00  0.00    +0.000 A 
ATOM      6  C   UNL     1      -1.731  27.789  17.103  0.00  0.00    +0.000 A 
ATOM      7  C   UNL     1      -2.853  27.477  17.910  0.00  0.00    +0.000 A 
ATOM      8  C   UNL     1      -3.463  26.205  17.792  0.00  0.00    +0.000 A 
ATOM      9  C   UNL     1      -0.048  28.720  16.123  0.00  0.00    +0.000 A 
ATOM     10  C   UNL     1      -1.835  25.565  16.074  0.00  0.00    +0.000 A 
ATOM     11  C   UNL     1      -2.941  25.293  16.885  0.00  0.00    +0.000 A 
ATOM     12  C   UNL     1       0.661  26.834  14.626  0.00  0.00    +0.000 C 
ATOM     13  C   UNL     1      -4.354  28.108  19.518  0.00  0.00    +0.000 A 
ATOM     14  C   UNL     1      -4.961  26.860  19.410  0.00  0.00    +0.000 A 
ATOM     15  C   UNL     1      -4.890  29.117  20.494  0.00  0.00    +0.000 C 
ATOM     16  N   UNL     1       0.906  29.596  15.737  0.00  0.00    +0.000 N 
ATOM     17  H   UNL     1       1.056  30.424  16.307  0.00  0.00    +0.000 HD
ATOM     18  H   UNL     1       1.710  29.287  15.196  0.00  0.00    +0.000 HD
ENDROOT
TORSDOF 0
ENDMDL
MODEL 4
REMARK VINA RESULT:      -4.7      1.960      3.176
REMARK  Name = MeIQx.pdbqt.pdb
REMARK  0 active torsions:
REMARK  status: ('A' for Active; 'I' for Inactive)
REMARK                            x       y       z     vdW  Elec       q    Type
REMARK                         _______ _______ _______ _____ _____    ______ ____
ROOT
ATOM      1  N   UNL     1      -4.664  27.928  19.195  0.00  0.00    +0.000 N 
ATOM      2  N   UNL     1      -2.921  26.803  18.421  0.00  0.00    +0.000 NA
ATOM      3  N   UNL     1      -1.029  27.940  16.485  0.00  0.00    +0.000 NA
ATOM      4  N   UNL     1      -1.520  30.603  15.610  0.00  0.00    +0.000 NA
ATOM      5  C   UNL     1      -4.048  28.794  18.332  0.00  0.00    +0.000 A 
ATOM      6  C   UNL     1      -2.956  28.068  17.857  0.00  0.00    +0.000 A 
ATOM      7  C   UNL     1      -2.083  28.680  16.923  0.00  0.00    +0.000 A 
ATOM      8  C   UNL     1      -2.339  30.006  16.496  0.00  0.00    +0.000 A 
ATOM      9  C   UNL     1      -3.961  26.734  19.222  0.00  0.00    +0.000 A 
ATOM     10  C   UNL     1      -4.324  30.103  17.932  0.00  0.00    +0.000 A 
ATOM     11  C   UNL     1      -3.443  30.674  17.008  0.00  0.00    +0.000 A 
ATOM     12  C   UNL     1      -5.829  28.233  19.974  0.00  0.00    +0.000 C 
ATOM     13  C   UNL     1      -0.222  28.556  15.597  0.00  0.00    +0.000 A 
ATOM     14  C   UNL     1      -0.465  29.858  15.171  0.00  0.00    +0.000 A 
ATOM     15  C   UNL     1       0.967  27.806  15.067  0.00  0.00    +0.000 C 
ATOM     16  N   UNL     1      -4.307  25.662  19.969  0.00  0.00    +0.000 N 
ATOM     17  H   UNL     1      -3.629  24.914  20.078  0.00  0.00    +0.000 HD
ATOM     18  H   UNL     1      -4.985  25.748  20.723  0.00  0.00    +0.000 HD
ENDROOT
TORSDOF 0
ENDMDL
MODEL 5
REMARK VINA RESULT:      -4.6     24.663     27.485
REMARK  Name = MeIQx.pdbqt.pdb
REMARK  0 active torsions:
REMARK  status: ('A' for Active; 'I' for Inactive)
REMARK                            x       y       z     vdW  Elec       q    Type
REMARK                         _______ _______ _______ _____ _____    ______ ____
ROOT
ATOM      1  N   UNL     1      25.007  26.983   5.620  0.00  0.00    +0.000 N 
ATOM      2  N   UNL     1      24.527  28.326   7.314  0.00  0.00    +0.000 NA
ATOM      3  N   UNL     1      21.942  29.695   7.572  0.00  0.00    +0.000 NA
ATOM      4  N   UNL     1      20.023  29.231   5.522  0.00  0.00    +0.000 NA
ATOM      5  C   UNL     1      23.730  27.412   5.372  0.00  0.00    +0.000 A 
ATOM      6  C   UNL     1      23.448  28.254   6.446  0.00  0.00    +0.000 A 
ATOM      7  C   UNL     1      22.178  28.883   6.507  0.00  0.00    +0.000 A 
ATOM      8  C   UNL     1      21.233  28.642   5.480  0.00  0.00    +0.000 A 
ATOM      9  C   UNL     1      25.459  27.557   6.798  0.00  0.00    +0.000 A 
ATOM     10  C   UNL     1      22.818  27.154   4.346  0.00  0.00    +0.000 A 
ATOM     11  C   UNL     1      21.577  27.792   4.438  0.00  0.00    +0.000 A 
ATOM     12  C   UNL     1      25.736  26.054   4.806  0.00  0.00    +0.000 C 
ATOM     13  C   UNL     1      20.724  30.275   7.595  0.00  0.00    +0.000 A 
ATOM     14  C   UNL     1      19.789  30.046   6.590  0.00  0.00    +0.000 A 
ATOM     15  C   UNL     1      20.384  31.185   8.740  0.00  0.00    +0.000 C 
ATOM     16  N   UNL     1      26.685  27.346   7.327  0.00  0.00    +0.000 N 
ATOM     17  H   UNL     1      26.853  27.644   8.283  0.00  0.00    +0.000 HD
ATOM     18  H   UNL     1      27.270  26.580   7.000  0.00  0.00    +0.000 HD
ENDROOT
TORSDOF 0
ENDMDL
MODEL 6
REMARK VINA RESULT:      -4.5     20.962     21.341
REMARK  Name = MeIQx.pdbqt.pdb
REMARK  0 active torsions:
REMARK  status: ('A' for Active; 'I' for Inactive)
REMARK                            x       y       z     vdW  Elec       q    Type
REMARK                         _______ _______ _______ _____ _____    ______ ____
ROOT
ATOM      1  N   UNL     1       8.663  18.394  30.744  0.00  0.00    +0.000 N 
ATOM      2  N   UNL     1       9.033  16.245  31.125  0.00  0.00    +0.000 NA
ATOM      3  N   UNL     1      11.598  14.945  30.533  0.00  0.00    +0.000 NA
ATOM      4  N   UNL     1      13.649  16.577  29.424  0.00  0.00    +0.000 NA
ATOM      5  C   UNL     1       9.954  18.187  30.339  0.00  0.00    +0.000 A 
ATOM      6  C   UNL     1      10.167  16.831  30.586  0.00  0.00    +0.000 A 
ATOM      7  C   UNL     1      11.431  16.270  30.276  0.00  0.00    +0.000 A 
ATOM      8  C   UNL     1      12.442  17.094  29.725  0.00  0.00    +0.000 A 
ATOM      9  C   UNL     1       8.134  17.200  31.208  0.00  0.00    +0.000 A 
ATOM     10  C   UNL     1      10.933  19.025  29.798  0.00  0.00    +0.000 A 
ATOM     11  C   UNL     1      12.167  18.437  29.503  0.00  0.00    +0.000 A 
ATOM     12  C   UNL     1       7.987  19.660  30.724  0.00  0.00    +0.000 C 
ATOM     13  C   UNL     1      12.813  14.447  30.225  0.00  0.00    +0.000 A 
ATOM     14  C   UNL     1      13.814  15.248  29.682  0.00  0.00    +0.000 A 
ATOM     15  C   UNL     1      13.079  12.991  30.482  0.00  0.00    +0.000 C 
ATOM     16  N   UNL     1       6.875  17.056  31.678  0.00  0.00    +0.000 N 
ATOM     17  H   UNL     1       6.645  16.203  32.179  0.00  0.00    +0.000 HD
ATOM     18  H   UNL     1       6.311  17.868  31.919  0.00  0.00    +0.000 HD
ENDROOT
TORSDOF 0
ENDMDL
MODEL 7
REMARK VINA RESULT:      -4.4     35.095     35.734
REMARK  Name = MeIQx.pdbqt.pdb
REMARK  0 active torsions:
REMARK  status: ('A' for Active; 'I' for Inactive)
REMARK                            x       y       z     vdW  Elec       q    Type
REMARK                         _______ _______ _______ _____ _____    ______ ____
ROOT
ATOM      1  N   UNL     1      17.606  -2.370  17.582  0.00  0.00    +0.000 N 
ATOM      2  N   UNL     1      17.291  -3.343  15.618  0.00  0.00    +0.000 NA
ATOM      3  N   UNL     1      18.807  -2.600  13.216  0.00  0.00    +0.000 NA
ATOM      4  N   UNL     1      20.744  -0.534  13.498  0.00  0.00    +0.000 NA
ATOM      5  C   UNL     1      18.490  -1.749  16.741  0.00  0.00    +0.000 A 
ATOM      6  C   UNL     1      18.276  -2.374  15.513  0.00  0.00    +0.000 A 
ATOM      7  C   UNL     1      19.045  -1.964  14.395  0.00  0.00    +0.000 A 
ATOM      8  C   UNL     1      20.006  -0.935  14.550  0.00  0.00    +0.000 A 
ATOM      9  C   UNL     1      16.895  -3.324  16.871  0.00  0.00    +0.000 A 
ATOM     10  C   UNL     1      19.431  -0.733  16.925  0.00  0.00    +0.000 A 
ATOM     11  C   UNL     1      20.170  -0.354  15.799  0.00  0.00    +0.000 A 
ATOM     12  C   UNL     1      17.474  -2.098  18.984  0.00  0.00    +0.000 C 
ATOM     13  C   UNL     1      19.557  -2.183  12.175  0.00  0.00    +0.000 A 
ATOM     14  C   UNL     1      20.503  -1.172  12.317  0.00  0.00    +0.000 A 
ATOM     15  C   UNL     1      19.357  -2.837  10.838  0.00  0.00    +0.000 C 
ATOM     16  N   UNL     1      15.936  -4.114  17.403  0.00  0.00    +0.000 N 
ATOM     17  H   UNL     1      15.616  -4.911  16.863  0.00  0.00    +0.000 HD
ATOM     18  H   UNL     1      15.832  -4.201  18.412  0.00  0.00    +0.000 HD
ENDROOT
TORSDOF 0
ENDMDL
MODEL 8
REMARK VINA RESULT:      -4.4     26.281     27.343
REMARK  Name = MeIQx.pdbqt.pdb
REMARK  0 active torsions:
REMARK  status: ('A' for Active; 'I' for Inactive)
REMARK                            x       y       z     vdW  Elec       q    Type
REMARK                         _______ _______ _______ _____ _____    ______ ____
ROOT
ATOM      1  N   UNL     1      24.348  25.777  24.229  0.00  0.00    +0.000 N 
ATOM      2  N   UNL     1      22.895  26.230  25.837  0.00  0.00    +0.000 NA
ATOM      3  N   UNL     1      21.911  24.193  27.709  0.00  0.00    +0.000 NA
ATOM      4  N   UNL     1      22.909  21.548  27.383  0.00  0.00    +0.000 NA
ATOM      5  C   UNL     1      24.152  24.581  24.866  0.00  0.00    +0.000 A 
ATOM      6  C   UNL     1      23.235  24.886  25.872  0.00  0.00    +0.000 A 
ATOM      7  C   UNL     1      22.803  23.853  26.741  0.00  0.00    +0.000 A 
ATOM      8  C   UNL     1      23.309  22.542  26.567  0.00  0.00    +0.000 A 
ATOM      9  C   UNL     1      23.571  26.750  24.837  0.00  0.00    +0.000 A 
ATOM     10  C   UNL     1      24.669  23.298  24.672  0.00  0.00    +0.000 A 
ATOM     11  C   UNL     1      24.219  22.303  25.547  0.00  0.00    +0.000 A 
ATOM     12  C   UNL     1      25.250  25.987  23.133  0.00  0.00    +0.000 C 
ATOM     13  C   UNL     1      21.523  23.184  28.515  0.00  0.00    +0.000 A 
ATOM     14  C   UNL     1      22.013  21.891  28.353  0.00  0.00    +0.000 A 
ATOM     15  C   UNL     1      20.540  23.477  29.612  0.00  0.00    +0.000 C 
ATOM     16  N   UNL     1      23.528  28.043  24.448  0.00  0.00    +0.000 N 
ATOM     17  H   UNL     1      23.092  28.718  25.070  0.00  0.00    +0.000 HD
ATOM     18  H   UNL     1      24.231  28.423  23.818  0.00  0.00    +0.000 HD
ENDROOT
TORSDOF 0
ENDMDL
MODEL 9
REMARK VINA RESULT:      -4.4     12.134     13.798
REMARK  Name = MeIQx.pdbqt.pdb
REMARK  0 active torsions:
REMARK  status: ('A' for Active; 'I' for Inactive)
REMARK                            x       y       z     vdW  Elec       q    Type
REMARK                         _______ _______ _______ _____ _____    ______ ____
ROOT
ATOM      1  N   UNL     1      -0.009  17.444  23.488  0.00  0.00    +0.000 N 
ATOM      2  N   UNL     1      -0.347  16.645  21.451  0.00  0.00    +0.000 NA
ATOM      3  N   UNL     1      -0.740  13.785  20.912  0.00  0.00    +0.000 NA
ATOM      4  N   UNL     1      -0.672  12.027  23.148  0.00  0.00    +0.000 NA
ATOM      5  C   UNL     1      -0.143  16.093  23.664  0.00  0.00    +0.000 A 
ATOM      6  C   UNL     1      -0.353  15.609  22.373  0.00  0.00    +0.000 A 
ATOM      7  C   UNL     1      -0.536  14.216  22.186  0.00  0.00    +0.000 A 
ATOM      8  C   UNL     1      -0.500  13.353  23.308  0.00  0.00    +0.000 A 
ATOM      9  C   UNL     1      -0.133  17.743  22.141  0.00  0.00    +0.000 A 
ATOM     10  C   UNL     1      -0.105  15.266  24.789  0.00  0.00    +0.000 A 
ATOM     11  C   UNL     1      -0.287  13.897  24.566  0.00  0.00    +0.000 A 
ATOM     12  C   UNL     1       0.186  18.395  24.544  0.00  0.00    +0.000 C 
ATOM     13  C   UNL     1      -0.910  12.455  20.774  0.00  0.00    +0.000 A 
ATOM     14  C   UNL     1      -0.876  11.597  21.869  0.00  0.00    +0.000 A 
ATOM     15  C   UNL     1      -1.144  11.899  19.397  0.00  0.00    +0.000 C 
ATOM     16  N   UNL     1      -0.046  18.989  21.625  0.00  0.00    +0.000 N 
ATOM     17  H   UNL     1      -0.347  19.135  20.666  0.00  0.00    +0.000 HD
ATOM     18  H   UNL     1      -0.099  19.808  22.227  0.00  0.00    +0.000 HD
ENDROOT
TORSDOF 0
ENDMDL
