MODEL 1
REMARK VINA RESULT:      -5.3      0.000      0.000
REMARK  Name = 
REMARK  21 active torsions:
REMARK  status: ('A' for Active; 'I' for Inactive)
REMARK    1  A    between atoms: O_3  and  C_27
REMARK    2  A    between atoms: O_3  and  C_28
REMARK    3  A    between atoms: N_6  and  CA_9
REMARK    4  A    between atoms: N_7  and  CA_15
REMARK    5  A    between atoms: N_8  and  CA_12
REMARK    6  A    between atoms: CA_9  and  CB_10
REMARK    7  A    between atoms: CA_9  and  C_16
REMARK    8  A    between atoms: CB_10  and  CG_11
REMARK    9  A    between atoms: CG_11  and  CD1_20
REMARK   10  A    between atoms: CG_11  and  CD2_21
REMARK   11  A    between atoms: CA_12  and  CB_13
REMARK   12  A    between atoms: CA_12  and  C_18
REMARK   13  A    between atoms: CB_13  and  CG_14
REMARK   14  A    between atoms: CG_14  and  CD1_22
REMARK   15  A    between atoms: CG_14  and  CD2_23
REMARK   16  A    between atoms: CA_15  and  CB_17
REMARK   17  A    between atoms: CA_15  and  C_26
REMARK   18  A    between atoms: CB_17  and  CG_19
REMARK   19  A    between atoms: CG_19  and  CD1_24
REMARK   20  A    between atoms: CG_19  and  CD2_25
REMARK   21  A    between atoms: C_28  and  C_29
REMARK                            x       y       z     vdW  Elec       q    Type
REMARK                         _______ _______ _______ _____ _____    ______ ____
ROOT
ATOM      1  O   UNL     1      26.150  12.331  26.684  0.00  0.00    +0.000 OA
ATOM      2  N   UNL     1      24.187  13.444  26.350  0.00  0.00    +0.000 N 
ATOM      3  C   UNL     1      25.509  13.166  26.051  0.00  0.00    +0.000 C 
ATOM      4  H   UNL     1      23.632  13.720  25.543  0.00  0.00    +0.000 HD
ENDROOT
BRANCH   2   5
ATOM      5  CA  UNL     1      23.487  12.638  27.352  0.00  0.00    +0.000 C 
BRANCH   5   8
ATOM      6  O   UNL     1      21.244  12.558  26.457  0.00  0.00    +0.000 OA
ATOM      7  N   UNL     1      22.442  10.725  26.063  0.00  0.00    +0.000 N 
ATOM      8  C   UNL     1      22.325  11.975  26.590  0.00  0.00    +0.000 C 
ATOM      9  H   UNL     1      21.596  10.457  25.571  0.00  0.00    +0.000 HD
BRANCH   7  10
ATOM     10  CA  UNL     1      23.651   9.962  25.753  0.00  0.00    +0.000 C 
BRANCH  10  12
ATOM     11  O   UNL     1      23.624  10.858  23.488  0.00  0.00    +0.000 OA
ATOM     12  C   UNL     1      23.872   9.920  24.241  0.00  0.00    +0.000 C 
ENDBRANCH  10  12
BRANCH  10  13
ATOM     13  CB  UNL     1      23.648   8.574  26.414  0.00  0.00    +0.000 C 
BRANCH  13  14
ATOM     14  CG  UNL     1      24.787   8.256  27.407  0.00  0.00    +0.000 C 
ATOM     15  CD1 UNL     1      26.129   7.984  26.730  0.00  0.00    +0.000 C 
ATOM     16  CD2 UNL     1      24.940   9.418  28.394  0.00  0.00    +0.000 C 
ENDBRANCH  13  14
ENDBRANCH  10  13
ENDBRANCH   7  10
ENDBRANCH   5   8
BRANCH   5  17
ATOM     17  CB  UNL     1      22.945  13.544  28.467  0.00  0.00    +0.000 C 
BRANCH  17  18
ATOM     18  CG  UNL     1      23.399  15.014  28.378  0.00  0.00    +0.000 C 
ATOM     19  CD1 UNL     1      22.230  15.970  28.139  0.00  0.00    +0.000 C 
ATOM     20  CD2 UNL     1      24.122  15.410  29.670  0.00  0.00    +0.000 C 
ENDBRANCH  17  18
ENDBRANCH   5  17
ENDBRANCH   2   5
BRANCH   3  21
ATOM     21  CA  UNL     1      26.068  13.923  24.822  0.00  0.00    +0.000 C 
BRANCH  21  23
ATOM     22  O   UNL     1      27.940  12.123  23.715  0.00  0.00    +0.000 OA
ATOM     23  N   UNL     1      25.875  13.115  23.610  0.00  0.00    +0.000 N 
ATOM     24  C   ACE A   0      26.874  12.301  23.148  0.00  0.00    +0.000 C 
ATOM     25  H   UNL     1      25.220  13.456  22.920  0.00  0.00    +0.000 HD
BRANCH  24  26
ATOM     26  O   UNL     1      26.607  11.786  21.924  0.00  0.00    +0.000 OA
BRANCH  26  27
ATOM     27  C   UNL     1      27.629  10.949  21.368  0.00  0.00    +0.000 C 
BRANCH  27  28
ATOM     28  C   UNL     1      28.180  11.585  20.115  0.00  0.00    +0.000 A 
ATOM     29  C   UNL     1      28.365  10.821  18.954  0.00  0.00    +0.000 A 
ATOM     30  C   UNL     1      28.571  12.932  20.107  0.00  0.00    +0.000 A 
ATOM     31  C   UNL     1      28.905  11.399  17.803  0.00  0.00    +0.000 A 
ATOM     32  C   UNL     1      29.110  13.508  18.956  0.00  0.00    +0.000 A 
ATOM     33  C   UNL     1      29.276  12.742  17.804  0.00  0.00    +0.000 A 
ENDBRANCH  27  28
ENDBRANCH  26  27
ENDBRANCH  24  26
ENDBRANCH  21  23
BRANCH  21  34
ATOM     34  CB  UNL     1      25.389  15.294  24.648  0.00  0.00    +0.000 C 
BRANCH  34  35
ATOM     35  CG  UNL     1      26.210  16.518  25.106  0.00  0.00    +0.000 C 
ATOM     36  CD1 UNL     1      25.883  16.938  26.539  0.00  0.00    +0.000 C 
ATOM     37  CD2 UNL     1      27.705  16.201  24.993  0.00  0.00    +0.000 C 
ENDBRANCH  34  35
ENDBRANCH  21  34
ENDBRANCH   3  21
TORSDOF 15
ENDMDL
MODEL 2
REMARK VINA RESULT:      -5.0      4.001      7.702
REMARK  Name = 
REMARK  21 active torsions:
REMARK  status: ('A' for Active; 'I' for Inactive)
REMARK    1  A    between atoms: O_3  and  C_27
REMARK    2  A    between atoms: O_3  and  C_28
REMARK    3  A    between atoms: N_6  and  CA_9
REMARK    4  A    between atoms: N_7  and  CA_15
REMARK    5  A    between atoms: N_8  and  CA_12
REMARK    6  A    between atoms: CA_9  and  CB_10
REMARK    7  A    between atoms: CA_9  and  C_16
REMARK    8  A    between atoms: CB_10  and  CG_11
REMARK    9  A    between atoms: CG_11  and  CD1_20
REMARK   10  A    between atoms: CG_11  and  CD2_21
REMARK   11  A    between atoms: CA_12  and  CB_13
REMARK   12  A    between atoms: CA_12  and  C_18
REMARK   13  A    between atoms: CB_13  and  CG_14
REMARK   14  A    between atoms: CG_14  and  CD1_22
REMARK   15  A    between atoms: CG_14  and  CD2_23
REMARK   16  A    between atoms: CA_15  and  CB_17
REMARK   17  A    between atoms: CA_15  and  C_26
REMARK   18  A    between atoms: CB_17  and  CG_19
REMARK   19  A    between atoms: CG_19  and  CD1_24
REMARK   20  A    between atoms: CG_19  and  CD2_25
REMARK   21  A    between atoms: C_28  and  C_29
REMARK                            x       y       z     vdW  Elec       q    Type
REMARK                         _______ _______ _______ _____ _____    ______ ____
ROOT
ATOM      1  O   UNL     1      24.747  15.321  27.303  0.00  0.00    +0.000 OA
ATOM      2  N   UNL     1      22.596  14.563  27.294  0.00  0.00    +0.000 N 
ATOM      3  C   UNL     1      23.549  15.562  27.190  0.00  0.00    +0.000 C 
ATOM      4  H   UNL     1      21.767  14.725  26.726  0.00  0.00    +0.000 HD
ENDROOT
BRANCH   2   5
ATOM      5  CA  UNL     1      23.021  13.167  27.406  0.00  0.00    +0.000 C 
BRANCH   5   8
ATOM      6  O   UNL     1      20.943  12.861  26.213  0.00  0.00    +0.000 OA
ATOM      7  N   UNL     1      22.325  11.122  26.085  0.00  0.00    +0.000 N 
ATOM      8  C   UNL     1      22.036  12.377  26.525  0.00  0.00    +0.000 C 
ATOM      9  H   UNL     1      21.582  10.763  25.495  0.00  0.00    +0.000 HD
BRANCH   7  10
ATOM     10  CA  UNL     1      23.622  10.452  25.987  0.00  0.00    +0.000 C 
BRANCH  10  12
ATOM     11  O   UNL     1      23.306  10.223  23.582  0.00  0.00    +0.000 OA
ATOM     12  C   UNL     1      24.073  10.392  24.527  0.00  0.00    +0.000 C 
ENDBRANCH  10  12
BRANCH  10  13
ATOM     13  CB  UNL     1      23.626   9.086  26.690  0.00  0.00    +0.000 C 
BRANCH  13  14
ATOM     14  CG  UNL     1      24.991   8.519  27.137  0.00  0.00    +0.000 C 
ATOM     15  CD1 UNL     1      25.085   8.264  28.640  0.00  0.00    +0.000 C 
ATOM     16  CD2 UNL     1      25.272   7.216  26.381  0.00  0.00    +0.000 C 
ENDBRANCH  13  14
ENDBRANCH  10  13
ENDBRANCH   7  10
ENDBRANCH   5   8
BRANCH   5  17
ATOM     17  CB  UNL     1      22.918  12.705  28.867  0.00  0.00    +0.000 C 
BRANCH  17  18
ATOM     18  CG  UNL     1      24.045  11.755  29.320  0.00  0.00    +0.000 C 
ATOM     19  CD1 UNL     1      25.417  12.195  28.810  0.00  0.00    +0.000 C 
ATOM     20  CD2 UNL     1      24.073  11.682  30.850  0.00  0.00    +0.000 C 
ENDBRANCH  17  18
ENDBRANCH   5  17
ENDBRANCH   2   5
BRANCH   3  21
ATOM     21  CA  UNL     1      22.985  16.961  26.844  0.00  0.00    +0.000 C 
BRANCH  21  23
ATOM     22  O   UNL     1      20.824  18.285  28.088  0.00  0.00    +0.000 OA
ATOM     23  N   UNL     1      23.072  17.838  28.020  0.00  0.00    +0.000 N 
ATOM     24  C   ACE A   0      21.955  18.456  28.514  0.00  0.00    +0.000 C 
ATOM     25  H   UNL     1      23.953  18.300  28.194  0.00  0.00    +0.000 HD
BRANCH  24  26
ATOM     26  O   UNL     1      22.242  19.376  29.466  0.00  0.00    +0.000 OA
BRANCH  26  27
ATOM     27  C   UNL     1      21.684  20.678  29.256  0.00  0.00    +0.000 C 
BRANCH  27  28
ATOM     28  C   UNL     1      22.609  21.492  28.385  0.00  0.00    +0.000 A 
ATOM     29  C   UNL     1      23.997  21.430  28.570  0.00  0.00    +0.000 A 
ATOM     30  C   UNL     1      22.096  22.368  27.417  0.00  0.00    +0.000 A 
ATOM     31  C   UNL     1      24.854  22.207  27.787  0.00  0.00    +0.000 A 
ATOM     32  C   UNL     1      22.953  23.144  26.634  0.00  0.00    +0.000 A 
ATOM     33  C   UNL     1      24.332  23.062  26.819  0.00  0.00    +0.000 A 
ENDBRANCH  27  28
ENDBRANCH  26  27
ENDBRANCH  24  26
ENDBRANCH  21  23
BRANCH  21  34
ATOM     34  CB  UNL     1      23.739  17.597  25.663  0.00  0.00    +0.000 C 
BRANCH  34  35
ATOM     35  CG  UNL     1      22.878  18.389  24.658  0.00  0.00    +0.000 C 
ATOM     36  CD1 UNL     1      21.384  18.103  24.815  0.00  0.00    +0.000 C 
ATOM     37  CD2 UNL     1      23.133  19.890  24.837  0.00  0.00    +0.000 C 
ENDBRANCH  34  35
ENDBRANCH  21  34
ENDBRANCH   3  21
TORSDOF 15
ENDMDL
MODEL 3
REMARK VINA RESULT:      -4.9     30.807     33.405
REMARK  Name = 
REMARK  21 active torsions:
REMARK  status: ('A' for Active; 'I' for Inactive)
REMARK    1  A    between atoms: O_3  and  C_27
REMARK    2  A    between atoms: O_3  and  C_28
REMARK    3  A    between atoms: N_6  and  CA_9
REMARK    4  A    between atoms: N_7  and  CA_15
REMARK    5  A    between atoms: N_8  and  CA_12
REMARK    6  A    between atoms: CA_9  and  CB_10
REMARK    7  A    between atoms: CA_9  and  C_16
REMARK    8  A    between atoms: CB_10  and  CG_11
REMARK    9  A    between atoms: CG_11  and  CD1_20
REMARK   10  A    between atoms: CG_11  and  CD2_21
REMARK   11  A    between atoms: CA_12  and  CB_13
REMARK   12  A    between atoms: CA_12  and  C_18
REMARK   13  A    between atoms: CB_13  and  CG_14
REMARK   14  A    between atoms: CG_14  and  CD1_22
REMARK   15  A    between atoms: CG_14  and  CD2_23
REMARK   16  A    between atoms: CA_15  and  CB_17
REMARK   17  A    between atoms: CA_15  and  C_26
REMARK   18  A    between atoms: CB_17  and  CG_19
REMARK   19  A    between atoms: CG_19  and  CD1_24
REMARK   20  A    between atoms: CG_19  and  CD2_25
REMARK   21  A    between atoms: C_28  and  C_29
REMARK                            x       y       z     vdW  Elec       q    Type
REMARK                         _______ _______ _______ _____ _____    ______ ____
ROOT
ATOM      1  O   UNL     1       0.201  31.259  14.452  0.00  0.00    +0.000 OA
ATOM      2  N   UNL     1       2.108  30.368  13.571  0.00  0.00    +0.000 N 
ATOM      3  C   UNL     1       0.909  30.275  14.257  0.00  0.00    +0.000 C 
ATOM      4  H   UNL     1       2.348  29.531  13.046  0.00  0.00    +0.000 HD
ENDROOT
BRANCH   2   5
ATOM      5  CA  UNL     1       2.485  31.636  12.944  0.00  0.00    +0.000 C 
BRANCH   5   8
ATOM      6  O   UNL     1       1.800  30.390  10.991  0.00  0.00    +0.000 OA
ATOM      7  N   UNL     1       1.947  32.585  10.659  0.00  0.00    +0.000 N 
ATOM      8  C   UNL     1       2.049  31.499  11.474  0.00  0.00    +0.000 C 
ATOM      9  H   UNL     1       1.620  32.318   9.736  0.00  0.00    +0.000 HD
BRANCH   7  10
ATOM     10  CA  UNL     1       1.828  34.000  11.013  0.00  0.00    +0.000 C 
BRANCH  10  12
ATOM     11  O   UNL     1      -0.588  34.041  10.703  0.00  0.00    +0.000 OA
ATOM     12  C   UNL     1       0.504  34.561  10.493  0.00  0.00    +0.000 C 
ENDBRANCH  10  12
BRANCH  10  13
ATOM     13  CB  UNL     1       3.057  34.813  10.577  0.00  0.00    +0.000 C 
BRANCH  13  14
ATOM     14  CG  UNL     1       4.206  34.050   9.881  0.00  0.00    +0.000 C 
ATOM     15  CD1 UNL     1       4.155  34.126   8.357  0.00  0.00    +0.000 C 
ATOM     16  CD2 UNL     1       5.550  34.596  10.376  0.00  0.00    +0.000 C 
ENDBRANCH  13  14
ENDBRANCH  10  13
ENDBRANCH   7  10
ENDBRANCH   5   8
BRANCH   5  17
ATOM     17  CB  UNL     1       4.005  31.833  13.033  0.00  0.00    +0.000 C 
BRANCH  17  18
ATOM     18  CG  UNL     1       4.444  33.164  13.675  0.00  0.00    +0.000 C 
ATOM     19  CD1 UNL     1       3.847  33.362  15.069  0.00  0.00    +0.000 C 
ATOM     20  CD2 UNL     1       5.972  33.213  13.767  0.00  0.00    +0.000 C 
ENDBRANCH  17  18
ENDBRANCH   5  17
ENDBRANCH   2   5
BRANCH   3  21
ATOM     21  CA  UNL     1       0.512  28.837  14.672  0.00  0.00    +0.000 C 
BRANCH  21  23
ATOM     22  O   UNL     1       0.337  28.866  17.490  0.00  0.00    +0.000 OA
ATOM     23  N   UNL     1      -0.729  28.872  15.459  0.00  0.00    +0.000 N 
ATOM     24  C   ACE A   0      -0.688  28.846  16.828  0.00  0.00    +0.000 C 
ATOM     25  H   UNL     1      -1.565  28.503  15.029  0.00  0.00    +0.000 HD
BRANCH  24  26
ATOM     26  O   UNL     1      -1.912  28.683  17.385  0.00  0.00    +0.000 OA
BRANCH  26  27
ATOM     27  C   UNL     1      -2.143  27.412  18.007  0.00  0.00    +0.000 C 
BRANCH  27  28
ATOM     28  C   UNL     1      -2.677  26.437  16.986  0.00  0.00    +0.000 A 
ATOM     29  C   UNL     1      -2.071  25.184  16.816  0.00  0.00    +0.000 A 
ATOM     30  C   UNL     1      -3.747  26.789  16.150  0.00  0.00    +0.000 A 
ATOM     31  C   UNL     1      -2.543  24.293  15.849  0.00  0.00    +0.000 A 
ATOM     32  C   UNL     1      -4.218  25.898  15.185  0.00  0.00    +0.000 A 
ATOM     33  C   UNL     1      -3.616  24.650  15.035  0.00  0.00    +0.000 A 
ENDBRANCH  27  28
ENDBRANCH  26  27
ENDBRANCH  24  26
ENDBRANCH  21  23
BRANCH  21  34
ATOM     34  CB  UNL     1       0.326  27.927  13.445  0.00  0.00    +0.000 C 
BRANCH  34  35
ATOM     35  CG  UNL     1      -0.793  26.870  13.551  0.00  0.00    +0.000 C 
ATOM     36  CD1 UNL     1      -1.898  27.082  12.517  0.00  0.00    +0.000 C 
ATOM     37  CD2 UNL     1      -0.191  25.471  13.378  0.00  0.00    +0.000 C 
ENDBRANCH  34  35
ENDBRANCH  21  34
ENDBRANCH   3  21
TORSDOF 15
ENDMDL
MODEL 4
REMARK VINA RESULT:      -4.8     13.767     18.784
REMARK  Name = 
REMARK  21 active torsions:
REMARK  status: ('A' for Active; 'I' for Inactive)
REMARK    1  A    between atoms: O_3  and  C_27
REMARK    2  A    between atoms: O_3  and  C_28
REMARK    3  A    between atoms: N_6  and  CA_9
REMARK    4  A    between atoms: N_7  and  CA_15
REMARK    5  A    between atoms: N_8  and  CA_12
REMARK    6  A    between atoms: CA_9  and  CB_10
REMARK    7  A    between atoms: CA_9  and  C_16
REMARK    8  A    between atoms: CB_10  and  CG_11
REMARK    9  A    between atoms: CG_11  and  CD1_20
REMARK   10  A    between atoms: CG_11  and  CD2_21
REMARK   11  A    between atoms: CA_12  and  CB_13
REMARK   12  A    between atoms: CA_12  and  C_18
REMARK   13  A    between atoms: CB_13  and  CG_14
REMARK   14  A    between atoms: CG_14  and  CD1_22
REMARK   15  A    between atoms: CG_14  and  CD2_23
REMARK   16  A    between atoms: CA_15  and  CB_17
REMARK   17  A    between atoms: CA_15  and  C_26
REMARK   18  A    between atoms: CB_17  and  CG_19
REMARK   19  A    between atoms: CG_19  and  CD1_24
REMARK   20  A    between atoms: CG_19  and  CD2_25
REMARK   21  A    between atoms: C_28  and  C_29
REMARK                            x       y       z     vdW  Elec       q    Type
REMARK                         _______ _______ _______ _____ _____    ______ ____
ROOT
ATOM      1  O   UNL     1      11.061  20.057  32.668  0.00  0.00    +0.000 OA
ATOM      2  N   UNL     1      11.491  19.812  30.441  0.00  0.00    +0.000 N 
ATOM      3  C   UNL     1      10.670  20.137  31.508  0.00  0.00    +0.000 C 
ATOM      4  H   UNL     1      11.301  20.348  29.598  0.00  0.00    +0.000 HD
ENDROOT
BRANCH   2   5
ATOM      5  CA  UNL     1      12.898  19.493  30.684  0.00  0.00    +0.000 C 
BRANCH   5   8
ATOM      6  O   UNL     1      13.258  21.519  29.417  0.00  0.00    +0.000 OA
ATOM      7  N   UNL     1      14.827  21.113  30.942  0.00  0.00    +0.000 N 
ATOM      8  C   UNL     1      13.667  20.775  30.314  0.00  0.00    +0.000 C 
ATOM      9  H   UNL     1      15.182  21.999  30.597  0.00  0.00    +0.000 HD
BRANCH   7  10
ATOM     10  CA  UNL     1      15.351  20.653  32.228  0.00  0.00    +0.000 C 
BRANCH  10  12
ATOM     11  O   UNL     1      15.564  22.925  33.081  0.00  0.00    +0.000 OA
ATOM     12  C   UNL     1      15.224  21.761  33.273  0.00  0.00    +0.000 C 
ENDBRANCH  10  12
BRANCH  10  13
ATOM     13  CB  UNL     1      16.773  20.082  32.104  0.00  0.00    +0.000 C 
BRANCH  13  14
ATOM     14  CG  UNL     1      16.981  18.601  32.490  0.00  0.00    +0.000 C 
ATOM     15  CD1 UNL     1      15.986  18.095  33.533  0.00  0.00    +0.000 C 
ATOM     16  CD2 UNL     1      16.888  17.730  31.232  0.00  0.00    +0.000 C 
ENDBRANCH  13  14
ENDBRANCH  10  13
ENDBRANCH   7  10
ENDBRANCH   5   8
BRANCH   5  17
ATOM     17  CB  UNL     1      13.335  18.330  29.781  0.00  0.00    +0.000 C 
BRANCH  17  18
ATOM     18  CG  UNL     1      12.729  16.963  30.156  0.00  0.00    +0.000 C 
ATOM     19  CD1 UNL     1      11.582  16.561  29.228  0.00  0.00    +0.000 C 
ATOM     20  CD2 UNL     1      13.818  15.887  30.113  0.00  0.00    +0.000 C 
ENDBRANCH  17  18
ENDBRANCH   5  17
ENDBRANCH   2   5
BRANCH   3  21
ATOM     21  CA  UNL     1       9.275  20.679  31.109  0.00  0.00    +0.000 C 
BRANCH  21  23
ATOM     22  O   UNL     1       7.480  22.851  30.936  0.00  0.00    +0.000 OA
ATOM     23  N   UNL     1       9.428  21.857  30.245  0.00  0.00    +0.000 N 
ATOM     24  C   ACE A   0       8.469  22.834  30.220  0.00  0.00    +0.000 C 
ATOM     25  H   UNL     1       9.983  21.753  29.407  0.00  0.00    +0.000 HD
BRANCH  24  26
ATOM     26  O   UNL     1       8.667  23.739  29.232  0.00  0.00    +0.000 OA
BRANCH  26  27
ATOM     27  C   UNL     1       9.683  24.718  29.485  0.00  0.00    +0.000 C 
BRANCH  27  28
ATOM     28  C   UNL     1       9.692  25.739  28.375  0.00  0.00    +0.000 A 
ATOM     29  C   UNL     1      10.380  26.951  28.529  0.00  0.00    +0.000 A 
ATOM     30  C   UNL     1       8.965  25.521  27.195  0.00  0.00    +0.000 A 
ATOM     31  C   UNL     1      10.363  27.911  27.516  0.00  0.00    +0.000 A 
ATOM     32  C   UNL     1       8.948  26.482  26.183  0.00  0.00    +0.000 A 
ATOM     33  C   UNL     1       9.648  27.677  26.343  0.00  0.00    +0.000 A 
ENDBRANCH  27  28
ENDBRANCH  26  27
ENDBRANCH  24  26
ENDBRANCH  21  23
BRANCH  21  34
ATOM     34  CB  UNL     1       8.440  19.607  30.386  0.00  0.00    +0.000 C 
BRANCH  34  35
ATOM     35  CG  UNL     1       7.537  18.735  31.283  0.00  0.00    +0.000 C 
ATOM     36  CD1 UNL     1       8.164  17.376  31.598  0.00  0.00    +0.000 C 
ATOM     37  CD2 UNL     1       7.244  19.479  32.590  0.00  0.00    +0.000 C 
ENDBRANCH  34  35
ENDBRANCH  21  34
ENDBRANCH   3  21
TORSDOF 15
ENDMDL
MODEL 5
REMARK VINA RESULT:      -4.8      3.996      8.379
REMARK  Name = 
REMARK  21 active torsions:
REMARK  status: ('A' for Active; 'I' for Inactive)
REMARK    1  A    between atoms: O_3  and  C_27
REMARK    2  A    between atoms: O_3  and  C_28
REMARK    3  A    between atoms: N_6  and  CA_9
REMARK    4  A    between atoms: N_7  and  CA_15
REMARK    5  A    between atoms: N_8  and  CA_12
REMARK    6  A    between atoms: CA_9  and  CB_10
REMARK    7  A    between atoms: CA_9  and  C_16
REMARK    8  A    between atoms: CB_10  and  CG_11
REMARK    9  A    between atoms: CG_11  and  CD1_20
REMARK   10  A    between atoms: CG_11  and  CD2_21
REMARK   11  A    between atoms: CA_12  and  CB_13
REMARK   12  A    between atoms: CA_12  and  C_18
REMARK   13  A    between atoms: CB_13  and  CG_14
REMARK   14  A    between atoms: CG_14  and  CD1_22
REMARK   15  A    between atoms: CG_14  and  CD2_23
REMARK   16  A    between atoms: CA_15  and  CB_17
REMARK   17  A    between atoms: CA_15  and  C_26
REMARK   18  A    between atoms: CB_17  and  CG_19
REMARK   19  A    between atoms: CG_19  and  CD1_24
REMARK   20  A    between atoms: CG_19  and  CD2_25
REMARK   21  A    between atoms: C_28  and  C_29
REMARK                            x       y       z     vdW  Elec       q    Type
REMARK                         _______ _______ _______ _____ _____    ______ ____
ROOT
ATOM      1  O   UNL     1      24.799  15.218  27.268  0.00  0.00    +0.000 OA
ATOM      2  N   UNL     1      22.644  14.471  27.337  0.00  0.00    +0.000 N 
ATOM      3  C   UNL     1      23.598  15.465  27.201  0.00  0.00    +0.000 C 
ATOM      4  H   UNL     1      21.796  14.639  26.801  0.00  0.00    +0.000 HD
ENDROOT
BRANCH   2   5
ATOM      5  CA  UNL     1      23.067  13.073  27.431  0.00  0.00    +0.000 C 
BRANCH   5   8
ATOM      6  O   UNL     1      20.975  12.785  26.255  0.00  0.00    +0.000 OA
ATOM      7  N   UNL     1      22.352  11.044  26.094  0.00  0.00    +0.000 N 
ATOM      8  C   UNL     1      22.070  12.295  26.551  0.00  0.00    +0.000 C 
ATOM      9  H   UNL     1      21.602  10.694  25.507  0.00  0.00    +0.000 HD
BRANCH   7  10
ATOM     10  CA  UNL     1      23.647  10.373  25.974  0.00  0.00    +0.000 C 
BRANCH  10  12
ATOM     11  O   UNL     1      23.267  10.208  23.573  0.00  0.00    +0.000 OA
ATOM     12  C   UNL     1      24.063  10.293  24.505  0.00  0.00    +0.000 C 
ENDBRANCH  10  12
BRANCH  10  13
ATOM     13  CB  UNL     1      23.666   9.016  26.696  0.00  0.00    +0.000 C 
BRANCH  13  14
ATOM     14  CG  UNL     1      25.033   8.490  27.186  0.00  0.00    +0.000 C 
ATOM     15  CD1 UNL     1      25.049   8.115  28.666  0.00  0.00    +0.000 C 
ATOM     16  CD2 UNL     1      25.439   7.273  26.347  0.00  0.00    +0.000 C 
ENDBRANCH  13  14
ENDBRANCH  10  13
ENDBRANCH   7  10
ENDBRANCH   5   8
BRANCH   5  17
ATOM     17  CB  UNL     1      22.976  12.595  28.887  0.00  0.00    +0.000 C 
BRANCH  17  18
ATOM     18  CG  UNL     1      24.093  11.622  29.314  0.00  0.00    +0.000 C 
ATOM     19  CD1 UNL     1      25.471  12.068  28.824  0.00  0.00    +0.000 C 
ATOM     20  CD2 UNL     1      24.113  11.497  30.841  0.00  0.00    +0.000 C 
ENDBRANCH  17  18
ENDBRANCH   5  17
ENDBRANCH   2   5
BRANCH   3  21
ATOM     21  CA  UNL     1      23.028  16.868  26.878  0.00  0.00    +0.000 C 
BRANCH  21  23
ATOM     22  O   UNL     1      20.797  18.159  28.029  0.00  0.00    +0.000 OA
ATOM     23  N   UNL     1      23.043  17.701  28.089  0.00  0.00    +0.000 N 
ATOM     24  C   ACE A   0      21.899  18.308  28.533  0.00  0.00    +0.000 C 
ATOM     25  H   UNL     1      23.913  18.151  28.335  0.00  0.00    +0.000 HD
BRANCH  24  26
ATOM     26  O   UNL     1      22.128  19.190  29.535  0.00  0.00    +0.000 OA
BRANCH  26  27
ATOM     27  C   UNL     1      22.737  18.645  30.711  0.00  0.00    +0.000 C 
BRANCH  27  28
ATOM     28  C   UNL     1      21.711  17.870  31.501  0.00  0.00    +0.000 A 
ATOM     29  C   UNL     1      20.617  18.527  32.082  0.00  0.00    +0.000 A 
ATOM     30  C   UNL     1      21.864  16.493  31.718  0.00  0.00    +0.000 A 
ATOM     31  C   UNL     1      19.684  17.817  32.841  0.00  0.00    +0.000 A 
ATOM     32  C   UNL     1      20.931  15.784  32.476  0.00  0.00    +0.000 A 
ATOM     33  C   UNL     1      19.840  16.446  33.036  0.00  0.00    +0.000 A 
ENDBRANCH  27  28
ENDBRANCH  26  27
ENDBRANCH  24  26
ENDBRANCH  21  23
BRANCH  21  34
ATOM     34  CB  UNL     1      23.830  17.559  25.760  0.00  0.00    +0.000 C 
BRANCH  34  35
ATOM     35  CG  UNL     1      23.038  18.535  24.865  0.00  0.00    +0.000 C 
ATOM     36  CD1 UNL     1      21.553  18.179  24.782  0.00  0.00    +0.000 C 
ATOM     37  CD2 UNL     1      23.194  19.962  25.403  0.00  0.00    +0.000 C 
ENDBRANCH  34  35
ENDBRANCH  21  34
ENDBRANCH   3  21
TORSDOF 15
ENDMDL
MODEL 6
REMARK VINA RESULT:      -4.7     30.638     32.843
REMARK  Name = 
REMARK  21 active torsions:
REMARK  status: ('A' for Active; 'I' for Inactive)
REMARK    1  A    between atoms: O_3  and  C_27
REMARK    2  A    between atoms: O_3  and  C_28
REMARK    3  A    between atoms: N_6  and  CA_9
REMARK    4  A    between atoms: N_7  and  CA_15
REMARK    5  A    between atoms: N_8  and  CA_12
REMARK    6  A    between atoms: CA_9  and  CB_10
REMARK    7  A    between atoms: CA_9  and  C_16
REMARK    8  A    between atoms: CB_10  and  CG_11
REMARK    9  A    between atoms: CG_11  and  CD1_20
REMARK   10  A    between atoms: CG_11  and  CD2_21
REMARK   11  A    between atoms: CA_12  and  CB_13
REMARK   12  A    between atoms: CA_12  and  C_18
REMARK   13  A    between atoms: CB_13  and  CG_14
REMARK   14  A    between atoms: CG_14  and  CD1_22
REMARK   15  A    between atoms: CG_14  and  CD2_23
REMARK   16  A    between atoms: CA_15  and  CB_17
REMARK   17  A    between atoms: CA_15  and  C_26
REMARK   18  A    between atoms: CB_17  and  CG_19
REMARK   19  A    between atoms: CG_19  and  CD1_24
REMARK   20  A    between atoms: CG_19  and  CD2_25
REMARK   21  A    between atoms: C_28  and  C_29
REMARK                            x       y       z     vdW  Elec       q    Type
REMARK                         _______ _______ _______ _____ _____    ______ ____
ROOT
ATOM      1  O   UNL     1      -2.055  29.265  13.326  0.00  0.00    +0.000 OA
ATOM      2  N   UNL     1      -0.278  28.698  14.639  0.00  0.00    +0.000 N 
ATOM      3  C   UNL     1      -0.856  29.362  13.571  0.00  0.00    +0.000 C 
ATOM      4  H   UNL     1       0.513  29.189  15.049  0.00  0.00    +0.000 HD
ENDROOT
BRANCH   2   5
ATOM      5  CA  UNL     1      -1.127  27.969  15.582  0.00  0.00    +0.000 C 
BRANCH   5   8
ATOM      6  O   UNL     1       0.323  28.866  17.294  0.00  0.00    +0.000 OA
ATOM      7  N   UNL     1      -1.834  28.871  17.840  0.00  0.00    +0.000 N 
ATOM      8  C   UNL     1      -0.835  28.604  16.954  0.00  0.00    +0.000 C 
ATOM      9  H   UNL     1      -1.469  29.314  18.677  0.00  0.00    +0.000 HD
BRANCH   7  10
ATOM     10  CA  UNL     1      -3.271  29.005  17.601  0.00  0.00    +0.000 C 
BRANCH  10  12
ATOM     11  O   UNL     1      -2.873  31.270  16.796  0.00  0.00    +0.000 OA
ATOM     12  C   UNL     1      -3.626  30.470  17.345  0.00  0.00    +0.000 C 
ENDBRANCH  10  12
BRANCH  10  13
ATOM     13  CB  UNL     1      -4.108  28.352  18.712  0.00  0.00    +0.000 C 
BRANCH  13  14
ATOM     14  CG  UNL     1      -4.809  27.016  18.384  0.00  0.00    +0.000 C 
ATOM     15  CD1 UNL     1      -4.700  25.977  19.498  0.00  0.00    +0.000 C 
ATOM     16  CD2 UNL     1      -6.288  27.281  18.077  0.00  0.00    +0.000 C 
ENDBRANCH  13  14
ENDBRANCH  10  13
ENDBRANCH   7  10
ENDBRANCH   5   8
BRANCH   5  17
ATOM     17  CB  UNL     1      -0.744  26.482  15.590  0.00  0.00    +0.000 C 
BRANCH  17  18
ATOM     18  CG  UNL     1      -1.938  25.511  15.503  0.00  0.00    +0.000 C 
ATOM     19  CD1 UNL     1      -2.205  24.798  16.829  0.00  0.00    +0.000 C 
ATOM     20  CD2 UNL     1      -3.195  26.276  15.077  0.00  0.00    +0.000 C 
ENDBRANCH  17  18
ENDBRANCH   5  17
ENDBRANCH   2   5
BRANCH   3  21
ATOM     21  CA  UNL     1       0.108  30.283  12.783  0.00  0.00    +0.000 C 
BRANCH  21  23
ATOM     22  O   UNL     1       1.036  32.725  13.854  0.00  0.00    +0.000 OA
ATOM     23  N   UNL     1       1.348  30.473  13.546  0.00  0.00    +0.000 N 
ATOM     24  C   ACE A   0       1.714  31.718  13.986  0.00  0.00    +0.000 C 
ATOM     25  H   UNL     1       2.099  29.816  13.389  0.00  0.00    +0.000 HD
BRANCH  24  26
ATOM     26  O   UNL     1       2.970  31.747  14.493  0.00  0.00    +0.000 OA
BRANCH  26  27
ATOM     27  C   UNL     1       3.949  32.407  13.681  0.00  0.00    +0.000 C 
BRANCH  27  28
ATOM     28  C   UNL     1       4.799  33.308  14.543  0.00  0.00    +0.000 A 
ATOM     29  C   UNL     1       4.205  34.149  15.494  0.00  0.00    +0.000 A 
ATOM     30  C   UNL     1       6.190  33.364  14.367  0.00  0.00    +0.000 A 
ATOM     31  C   UNL     1       4.987  35.007  16.270  0.00  0.00    +0.000 A 
ATOM     32  C   UNL     1       6.971  34.222  15.143  0.00  0.00    +0.000 A 
ATOM     33  C   UNL     1       6.369  35.043  16.095  0.00  0.00    +0.000 A 
ENDBRANCH  27  28
ENDBRANCH  26  27
ENDBRANCH  24  26
ENDBRANCH  21  23
BRANCH  21  34
ATOM     34  CB  UNL     1       0.433  29.703  11.395  0.00  0.00    +0.000 C 
BRANCH  34  35
ATOM     35  CG  UNL     1       0.306  30.679  10.207  0.00  0.00    +0.000 C 
ATOM     36  CD1 UNL     1      -0.809  31.705  10.411  0.00  0.00    +0.000 C 
ATOM     37  CD2 UNL     1       1.638  31.405   9.997  0.00  0.00    +0.000 C 
ENDBRANCH  34  35
ENDBRANCH  21  34
ENDBRANCH   3  21
TORSDOF 15
ENDMDL
MODEL 7
REMARK VINA RESULT:      -4.6      2.031      3.045
REMARK  Name = 
REMARK  21 active torsions:
REMARK  status: ('A' for Active; 'I' for Inactive)
REMARK    1  A    between atoms: O_3  and  C_27
REMARK    2  A    between atoms: O_3  and  C_28
REMARK    3  A    between atoms: N_6  and  CA_9
REMARK    4  A    between atoms: N_7  and  CA_15
REMARK    5  A    between atoms: N_8  and  CA_12
REMARK    6  A    between atoms: CA_9  and  CB_10
REMARK    7  A    between atoms: CA_9  and  C_16
REMARK    8  A    between atoms: CB_10  and  CG_11
REMARK    9  A    between atoms: CG_11  and  CD1_20
REMARK   10  A    between atoms: CG_11  and  CD2_21
REMARK   11  A    between atoms: CA_12  and  CB_13
REMARK   12  A    between atoms: CA_12  and  C_18
REMARK   13  A    between atoms: CB_13  and  CG_14
REMARK   14  A    between atoms: CG_14  and  CD1_22
REMARK   15  A    between atoms: CG_14  and  CD2_23
REMARK   16  A    between atoms: CA_15  and  CB_17
REMARK   17  A    between atoms: CA_15  and  C_26
REMARK   18  A    between atoms: CB_17  and  CG_19
REMARK   19  A    between atoms: CG_19  and  CD1_24
REMARK   20  A    between atoms: CG_19  and  CD2_25
REMARK   21  A    between atoms: C_28  and  C_29
REMARK                            x       y       z     vdW  Elec       q    Type
REMARK                         _______ _______ _______ _____ _____    ______ ____
ROOT
ATOM      1  O   UNL     1      27.468  12.660  25.359  0.00  0.00    +0.000 OA
ATOM      2  N   UNL     1      25.206  12.690  25.067  0.00  0.00    +0.000 N 
ATOM      3  C   UNL     1      26.451  13.294  25.093  0.00  0.00    +0.000 C 
ATOM      4  H   UNL     1      24.562  13.105  24.398  0.00  0.00    +0.000 HD
ENDROOT
BRANCH   2   5
ATOM      5  CA  UNL     1      25.103  11.239  25.228  0.00  0.00    +0.000 C 
BRANCH   5   8
ATOM      6  O   UNL     1      23.717  11.465  23.261  0.00  0.00    +0.000 OA
ATOM      7  N   UNL     1      24.695   9.476  23.456  0.00  0.00    +0.000 N 
ATOM      8  C   UNL     1      24.468  10.737  23.917  0.00  0.00    +0.000 C 
ATOM      9  H   UNL     1      24.226   9.324  22.569  0.00  0.00    +0.000 HD
BRANCH   7  10
ATOM     10  CA  UNL     1      25.771   8.546  23.797  0.00  0.00    +0.000 C 
BRANCH  10  12
ATOM     11  O   UNL     1      27.209   8.867  21.856  0.00  0.00    +0.000 OA
ATOM     12  C   UNL     1      26.512   8.113  22.532  0.00  0.00    +0.000 C 
ENDBRANCH  10  12
BRANCH  10  13
ATOM     13  CB  UNL     1      25.273   7.370  24.652  0.00  0.00    +0.000 C 
BRANCH  13  14
ATOM     14  CG  UNL     1      25.889   7.202  26.059  0.00  0.00    +0.000 C 
ATOM     15  CD1 UNL     1      26.965   8.236  26.383  0.00  0.00    +0.000 C 
ATOM     16  CD2 UNL     1      24.777   7.274  27.112  0.00  0.00    +0.000 C 
ENDBRANCH  13  14
ENDBRANCH  10  13
ENDBRANCH   7  10
ENDBRANCH   5   8
BRANCH   5  17
ATOM     17  CB  UNL     1      24.195  10.907  26.421  0.00  0.00    +0.000 C 
BRANCH  17  18
ATOM     18  CG  UNL     1      23.544  12.132  27.092  0.00  0.00    +0.000 C 
ATOM     19  CD1 UNL     1      22.047  12.231  26.794  0.00  0.00    +0.000 C 
ATOM     20  CD2 UNL     1      23.755  12.063  28.608  0.00  0.00    +0.000 C 
ENDBRANCH  17  18
ENDBRANCH   5  17
ENDBRANCH   2   5
BRANCH   3  21
ATOM     21  CA  UNL     1      26.455  14.787  24.683  0.00  0.00    +0.000 C 
BRANCH  21  23
ATOM     22  O   UNL     1      28.289  16.740  23.793  0.00  0.00    +0.000 OA
ATOM     23  N   UNL     1      26.971  14.925  23.314  0.00  0.00    +0.000 N 
ATOM     24  C   ACE A   0      27.833  15.939  22.992  0.00  0.00    +0.000 C 
ATOM     25  H   UNL     1      26.400  14.567  22.561  0.00  0.00    +0.000 HD
BRANCH  24  26
ATOM     26  O   UNL     1      28.050  16.040  21.659  0.00  0.00    +0.000 OA
BRANCH  26  27
ATOM     27  C   UNL     1      29.348  15.628  21.211  0.00  0.00    +0.000 C 
BRANCH  27  28
ATOM     28  C   UNL     1      29.206  14.520  20.196  0.00  0.00    +0.000 A 
ATOM     29  C   UNL     1      28.852  13.226  20.602  0.00  0.00    +0.000 A 
ATOM     30  C   UNL     1      29.484  14.750  18.840  0.00  0.00    +0.000 A 
ATOM     31  C   UNL     1      28.753  12.192  19.669  0.00  0.00    +0.000 A 
ATOM     32  C   UNL     1      29.385  13.716  17.909  0.00  0.00    +0.000 A 
ATOM     33  C   UNL     1      29.018  12.437  18.323  0.00  0.00    +0.000 A 
ENDBRANCH  27  28
ENDBRANCH  26  27
ENDBRANCH  24  26
ENDBRANCH  21  23
BRANCH  21  34
ATOM     34  CB  UNL     1      25.046  15.400  24.773  0.00  0.00    +0.000 C 
BRANCH  34  35
ATOM     35  CG  UNL     1      24.836  16.452  25.883  0.00  0.00    +0.000 C 
ATOM     36  CD1 UNL     1      23.923  17.595  25.439  0.00  0.00    +0.000 C 
ATOM     37  CD2 UNL     1      24.245  15.775  27.123  0.00  0.00    +0.000 C 
ENDBRANCH  34  35
ENDBRANCH  21  34
ENDBRANCH   3  21
TORSDOF 15
ENDMDL
MODEL 8
REMARK VINA RESULT:      -4.6     16.749     21.910
REMARK  Name = 
REMARK  21 active torsions:
REMARK  status: ('A' for Active; 'I' for Inactive)
REMARK    1  A    between atoms: O_3  and  C_27
REMARK    2  A    between atoms: O_3  and  C_28
REMARK    3  A    between atoms: N_6  and  CA_9
REMARK    4  A    between atoms: N_7  and  CA_15
REMARK    5  A    between atoms: N_8  and  CA_12
REMARK    6  A    between atoms: CA_9  and  CB_10
REMARK    7  A    between atoms: CA_9  and  C_16
REMARK    8  A    between atoms: CB_10  and  CG_11
REMARK    9  A    between atoms: CG_11  and  CD1_20
REMARK   10  A    between atoms: CG_11  and  CD2_21
REMARK   11  A    between atoms: CA_12  and  CB_13
REMARK   12  A    between atoms: CA_12  and  C_18
REMARK   13  A    between atoms: CB_13  and  CG_14
REMARK   14  A    between atoms: CG_14  and  CD1_22
REMARK   15  A    between atoms: CG_14  and  CD2_23
REMARK   16  A    between atoms: CA_15  and  CB_17
REMARK   17  A    between atoms: CA_15  and  C_26
REMARK   18  A    between atoms: CB_17  and  CG_19
REMARK   19  A    between atoms: CG_19  and  CD1_24
REMARK   20  A    between atoms: CG_19  and  CD2_25
REMARK   21  A    between atoms: C_28  and  C_29
REMARK                            x       y       z     vdW  Elec       q    Type
REMARK                         _______ _______ _______ _____ _____    ______ ____
ROOT
ATOM      1  O   UNL     1      11.082  24.212  30.195  0.00  0.00    +0.000 OA
ATOM      2  N   UNL     1       9.074  23.136  30.316  0.00  0.00    +0.000 N 
ATOM      3  C   UNL     1       9.906  24.139  29.850  0.00  0.00    +0.000 C 
ATOM      4  H   UNL     1       8.353  22.859  29.653  0.00  0.00    +0.000 HD
ENDROOT
BRANCH   2   5
ATOM      5  CA  UNL     1       9.631  22.056  31.131  0.00  0.00    +0.000 C 
BRANCH   5   8
ATOM      6  O   UNL     1       7.878  20.760  30.088  0.00  0.00    +0.000 OA
ATOM      7  N   UNL     1       9.712  19.590  30.555  0.00  0.00    +0.000 N 
ATOM      8  C   UNL     1       9.023  20.764  30.552  0.00  0.00    +0.000 C 
ATOM      9  H   UNL     1       9.176  18.852  30.111  0.00  0.00    +0.000 HD
BRANCH   7  10
ATOM     10  CA  UNL     1      11.151  19.363  30.696  0.00  0.00    +0.000 C 
BRANCH  10  12
ATOM     11  O   UNL     1      11.000  18.162  28.581  0.00  0.00    +0.000 OA
ATOM     12  C   UNL     1      11.644  18.426  29.593  0.00  0.00    +0.000 C 
ENDBRANCH  10  12
BRANCH  10  13
ATOM     13  CB  UNL     1      11.531  18.903  32.112  0.00  0.00    +0.000 C 
BRANCH  13  14
ATOM     14  CG  UNL     1      12.836  19.465  32.717  0.00  0.00    +0.000 C 
ATOM     15  CD1 UNL     1      14.093  18.741  32.238  0.00  0.00    +0.000 C 
ATOM     16  CD2 UNL     1      12.949  20.957  32.385  0.00  0.00    +0.000 C 
ENDBRANCH  13  14
ENDBRANCH  10  13
ENDBRANCH   7  10
ENDBRANCH   5   8
BRANCH   5  17
ATOM     17  CB  UNL     1       9.208  22.233  32.596  0.00  0.00    +0.000 C 
BRANCH  17  18
ATOM     18  CG  UNL     1       7.896  23.018  32.795  0.00  0.00    +0.000 C 
ATOM     19  CD1 UNL     1       6.758  22.129  33.296  0.00  0.00    +0.000 C 
ATOM     20  CD2 UNL     1       8.124  24.160  33.791  0.00  0.00    +0.000 C 
ENDBRANCH  17  18
ENDBRANCH   5  17
ENDBRANCH   2   5
BRANCH   3  21
ATOM     21  CA  UNL     1       9.257  25.090  28.814  0.00  0.00    +0.000 C 
BRANCH  21  23
ATOM     22  O   UNL     1       6.689  24.039  28.297  0.00  0.00    +0.000 OA
ATOM     23  N   UNL     1       7.990  25.611  29.344  0.00  0.00    +0.000 N 
ATOM     24  C   ACE A   0       6.797  25.036  28.992  0.00  0.00    +0.000 C 
ATOM     25  H   UNL     1       7.957  26.587  29.602  0.00  0.00    +0.000 HD
BRANCH  24  26
ATOM     26  O   UNL     1       5.726  25.756  29.405  0.00  0.00    +0.000 OA
BRANCH  26  27
ATOM     27  C   UNL     1       4.717  25.017  30.104  0.00  0.00    +0.000 C 
BRANCH  27  28
ATOM     28  C   UNL     1       4.753  25.371  31.570  0.00  0.00    +0.000 A 
ATOM     29  C   UNL     1       5.462  26.496  32.012  0.00  0.00    +0.000 A 
ATOM     30  C   UNL     1       4.129  24.550  32.521  0.00  0.00    +0.000 A 
ATOM     31  C   UNL     1       5.524  26.808  33.372  0.00  0.00    +0.000 A 
ATOM     32  C   UNL     1       4.192  24.861  33.880  0.00  0.00    +0.000 A 
ATOM     33  C   UNL     1       4.888  25.991  34.305  0.00  0.00    +0.000 A 
ENDBRANCH  27  28
ENDBRANCH  26  27
ENDBRANCH  24  26
ENDBRANCH  21  23
BRANCH  21  34
ATOM     34  CB  UNL     1      10.193  26.259  28.458  0.00  0.00    +0.000 C 
BRANCH  34  35
ATOM     35  CG  UNL     1       9.611  27.324  27.505  0.00  0.00    +0.000 C 
ATOM     36  CD1 UNL     1      10.628  28.408  27.149  0.00  0.00    +0.000 C 
ATOM     37  CD2 UNL     1       9.115  26.646  26.223  0.00  0.00    +0.000 C 
ENDBRANCH  34  35
ENDBRANCH  21  34
ENDBRANCH   3  21
TORSDOF 15
ENDMDL
MODEL 9
REMARK VINA RESULT:      -4.5     15.649     20.608
REMARK  Name = 
REMARK  21 active torsions:
REMARK  status: ('A' for Active; 'I' for Inactive)
REMARK    1  A    between atoms: O_3  and  C_27
REMARK    2  A    between atoms: O_3  and  C_28
REMARK    3  A    between atoms: N_6  and  CA_9
REMARK    4  A    between atoms: N_7  and  CA_15
REMARK    5  A    between atoms: N_8  and  CA_12
REMARK    6  A    between atoms: CA_9  and  CB_10
REMARK    7  A    between atoms: CA_9  and  C_16
REMARK    8  A    between atoms: CB_10  and  CG_11
REMARK    9  A    between atoms: CG_11  and  CD1_20
REMARK   10  A    between atoms: CG_11  and  CD2_21
REMARK   11  A    between atoms: CA_12  and  CB_13
REMARK   12  A    between atoms: CA_12  and  C_18
REMARK   13  A    between atoms: CB_13  and  CG_14
REMARK   14  A    between atoms: CG_14  and  CD1_22
REMARK   15  A    between atoms: CG_14  and  CD2_23
REMARK   16  A    between atoms: CA_15  and  CB_17
REMARK   17  A    between atoms: CA_15  and  C_26
REMARK   18  A    between atoms: CB_17  and  CG_19
REMARK   19  A    between atoms: CG_19  and  CD1_24
REMARK   20  A    between atoms: CG_19  and  CD2_25
REMARK   21  A    between atoms: C_28  and  C_29
REMARK                            x       y       z     vdW  Elec       q    Type
REMARK                         _______ _______ _______ _____ _____    ______ ____
ROOT
ATOM      1  O   UNL     1      11.864  22.831  31.449  0.00  0.00    +0.000 OA
ATOM      2  N   UNL     1       9.866  22.017  30.707  0.00  0.00    +0.000 N 
ATOM      3  C   UNL     1      10.883  22.957  30.722  0.00  0.00    +0.000 C 
ATOM      4  H   UNL     1       9.405  21.924  29.805  0.00  0.00    +0.000 HD
ENDROOT
BRANCH   2   5
ATOM      5  CA  UNL     1      10.017  20.777  31.470  0.00  0.00    +0.000 C 
BRANCH   5   8
ATOM      6  O   UNL     1       8.728  19.551  29.834  0.00  0.00    +0.000 OA
ATOM      7  N   UNL     1      10.758  18.716  30.198  0.00  0.00    +0.000 N 
ATOM      8  C   UNL     1       9.797  19.649  30.445  0.00  0.00    +0.000 C 
ATOM      9  H   UNL     1      10.459  18.068  29.477  0.00  0.00    +0.000 HD
BRANCH   7  10
ATOM     10  CA  UNL     1      12.193  18.771  30.477  0.00  0.00    +0.000 C 
BRANCH  10  12
ATOM     11  O   UNL     1      13.202  20.689  29.365  0.00  0.00    +0.000 OA
ATOM     12  C   UNL     1      12.922  19.493  29.344  0.00  0.00    +0.000 C 
ENDBRANCH  10  12
BRANCH  10  13
ATOM     13  CB  UNL     1      12.775  17.385  30.800  0.00  0.00    +0.000 C 
BRANCH  13  14
ATOM     14  CG  UNL     1      12.514  16.250  29.786  0.00  0.00    +0.000 C 
ATOM     15  CD1 UNL     1      13.790  15.652  29.196  0.00  0.00    +0.000 C 
ATOM     16  CD2 UNL     1      11.697  15.143  30.461  0.00  0.00    +0.000 C 
ENDBRANCH  13  14
ENDBRANCH  10  13
ENDBRANCH   7  10
ENDBRANCH   5   8
BRANCH   5  17
ATOM     17  CB  UNL     1       8.951  20.709  32.574  0.00  0.00    +0.000 C 
BRANCH  17  18
ATOM     18  CG  UNL     1       7.793  21.713  32.411  0.00  0.00    +0.000 C 
ATOM     19  CD1 UNL     1       6.477  21.027  32.044  0.00  0.00    +0.000 C 
ATOM     20  CD2 UNL     1       7.608  22.502  33.711  0.00  0.00    +0.000 C 
ENDBRANCH  17  18
ENDBRANCH   5  17
ENDBRANCH   2   5
BRANCH   3  21
ATOM     21  CA  UNL     1      10.714  24.109  29.702  0.00  0.00    +0.000 C 
BRANCH  21  23
ATOM     22  O   UNL     1       9.045  24.845  27.547  0.00  0.00    +0.000 OA
ATOM     23  N   UNL     1       9.363  24.676  29.812  0.00  0.00    +0.000 N 
ATOM     24  C   ACE A   0       8.661  25.030  28.691  0.00  0.00    +0.000 C 
ATOM     25  H   UNL     1       9.134  25.176  30.660  0.00  0.00    +0.000 HD
BRANCH  24  26
ATOM     26  O   UNL     1       7.527  25.715  28.976  0.00  0.00    +0.000 OA
BRANCH  26  27
ATOM     27  C   UNL     1       7.147  25.732  30.357  0.00  0.00    +0.000 C 
BRANCH  27  28
ATOM     28  C   UNL     1       5.891  24.917  30.548  0.00  0.00    +0.000 A 
ATOM     29  C   UNL     1       5.328  24.767  31.823  0.00  0.00    +0.000 A 
ATOM     30  C   UNL     1       5.300  24.247  29.466  0.00  0.00    +0.000 A 
ATOM     31  C   UNL     1       4.184  23.987  32.007  0.00  0.00    +0.000 A 
ATOM     32  C   UNL     1       4.158  23.467  29.651  0.00  0.00    +0.000 A 
ATOM     33  C   UNL     1       3.599  23.338  30.921  0.00  0.00    +0.000 A 
ENDBRANCH  27  28
ENDBRANCH  26  27
ENDBRANCH  24  26
ENDBRANCH  21  23
BRANCH  21  34
ATOM     34  CB  UNL     1      11.763  25.214  29.921  0.00  0.00    +0.000 C 
BRANCH  34  35
ATOM     35  CG  UNL     1      11.212  26.646  30.088  0.00  0.00    +0.000 C 
ATOM     36  CD1 UNL     1      11.757  27.340  31.336  0.00  0.00    +0.000 C 
ATOM     37  CD2 UNL     1      11.560  27.475  28.847  0.00  0.00    +0.000 C 
ENDBRANCH  34  35
ENDBRANCH  21  34
ENDBRANCH   3  21
TORSDOF 15
ENDMDL
