MODEL 1
REMARK VINA RESULT:      -5.2      0.000      0.000
REMARK  Name = Monobenzone.pdbqt.pdb
REMARK  4 active torsions:
REMARK  status: ('A' for Active; 'I' for Inactive)
REMARK    1  A    between atoms: C_1  and  O_7
REMARK    2  A    between atoms: C_6  and  O_15
REMARK    3  A    between atoms: O_7  and  C_8
REMARK    4  A    between atoms: C_8  and  C_9
REMARK                            x       y       z     vdW  Elec       q    Type
REMARK                         _______ _______ _______ _____ _____    ______ ____
ROOT
ATOM      1  C   UNL     1       2.920  10.799   8.730  0.00  0.00    +0.000 A 
ATOM      2  C   UNL     1       1.652  10.905   9.306  0.00  0.00    +0.000 A 
ATOM      3  C   UNL     1       4.055  10.850   9.541  0.00  0.00    +0.000 A 
ATOM      4  C   UNL     1       1.517  11.060  10.683  0.00  0.00    +0.000 A 
ATOM      5  C   UNL     1       3.926  11.006  10.919  0.00  0.00    +0.000 A 
ATOM      6  C   UNL     1       2.657  11.109  11.479  0.00  0.00    +0.000 A 
ENDROOT
BRANCH   6   7
ATOM      7  O   UNL     1       2.555  11.260  12.831  0.00  0.00    +0.000 OA
ATOM      8  H   UNL     1       3.348  10.876  13.242  0.00  0.00    +0.000 HD
ENDBRANCH   6   7
BRANCH   1   9
ATOM      9  O   UNL     1       3.153  10.644   7.386  0.00  0.00    +0.000 OA
BRANCH   9  10
ATOM     10  C   UNL     1       3.423  11.771   6.732  0.00  0.00    +0.000 C 
BRANCH  10  11
ATOM     11  C   UNL     1       3.727  12.979   6.036  0.00  0.00    +0.000 A 
ATOM     12  C   UNL     1       2.710  13.884   5.741  0.00  0.00    +0.000 A 
ATOM     13  C   UNL     1       3.007  15.061   5.057  0.00  0.00    +0.000 A 
ATOM     14  C   UNL     1       4.317  15.330   4.671  0.00  0.00    +0.000 A 
ATOM     15  C   UNL     1       5.333  14.423   4.968  0.00  0.00    +0.000 A 
ATOM     16  C   UNL     1       5.038  13.247   5.651  0.00  0.00    +0.000 A 
ENDBRANCH  10  11
ENDBRANCH   9  10
ENDBRANCH   1   9
TORSDOF 4
ENDMDL
MODEL 2
REMARK VINA RESULT:      -4.9     23.519     24.302
REMARK  Name = Monobenzone.pdbqt.pdb
REMARK  4 active torsions:
REMARK  status: ('A' for Active; 'I' for Inactive)
REMARK    1  A    between atoms: C_1  and  O_7
REMARK    2  A    between atoms: C_6  and  O_15
REMARK    3  A    between atoms: O_7  and  C_8
REMARK    4  A    between atoms: C_8  and  C_9
REMARK                            x       y       z     vdW  Elec       q    Type
REMARK                         _______ _______ _______ _____ _____    ______ ____
ROOT
ATOM      1  C   UNL     1      11.897  16.470  29.343  0.00  0.00    +0.000 A 
ATOM      2  C   UNL     1      13.254  16.140  29.296  0.00  0.00    +0.000 A 
ATOM      3  C   UNL     1      10.991  15.588  29.933  0.00  0.00    +0.000 A 
ATOM      4  C   UNL     1      13.702  14.937  29.836  0.00  0.00    +0.000 A 
ATOM      5  C   UNL     1      11.434  14.384  30.474  0.00  0.00    +0.000 A 
ATOM      6  C   UNL     1      12.787  14.068  30.421  0.00  0.00    +0.000 A 
ENDROOT
BRANCH   6   7
ATOM      7  O   UNL     1      13.199  12.883  30.958  0.00  0.00    +0.000 OA
ATOM      8  H   UNL     1      12.906  12.164  30.372  0.00  0.00    +0.000 HD
ENDBRANCH   6   7
BRANCH   1   9
ATOM      9  O   UNL     1      11.362  17.629  28.839  0.00  0.00    +0.000 OA
BRANCH   9  10
ATOM     10  C   UNL     1      10.309  18.095  29.506  0.00  0.00    +0.000 C 
BRANCH  10  11
ATOM     11  C   UNL     1       9.189  18.607  30.226  0.00  0.00    +0.000 A 
ATOM     12  C   UNL     1       8.483  17.776  31.092  0.00  0.00    +0.000 A 
ATOM     13  C   UNL     1       7.386  18.275  31.791  0.00  0.00    +0.000 A 
ATOM     14  C   UNL     1       6.998  19.602  31.623  0.00  0.00    +0.000 A 
ATOM     15  C   UNL     1       7.707  20.432  30.757  0.00  0.00    +0.000 A 
ATOM     16  C   UNL     1       8.804  19.935  30.057  0.00  0.00    +0.000 A 
ENDBRANCH  10  11
ENDBRANCH   9  10
ENDBRANCH   1   9
TORSDOF 4
ENDMDL
MODEL 3
REMARK VINA RESULT:      -4.9     16.970     18.578
REMARK  Name = Monobenzone.pdbqt.pdb
REMARK  4 active torsions:
REMARK  status: ('A' for Active; 'I' for Inactive)
REMARK    1  A    between atoms: C_1  and  O_7
REMARK    2  A    between atoms: C_6  and  O_15
REMARK    3  A    between atoms: O_7  and  C_8
REMARK    4  A    between atoms: C_8  and  C_9
REMARK                            x       y       z     vdW  Elec       q    Type
REMARK                         _______ _______ _______ _____ _____    ______ ____
ROOT
ATOM      1  C   UNL     1       1.563  30.120  14.399  0.00  0.00    +0.000 A 
ATOM      2  C   UNL     1       1.161  29.952  13.072  0.00  0.00    +0.000 A 
ATOM      3  C   UNL     1       2.650  30.944  14.694  0.00  0.00    +0.000 A 
ATOM      4  C   UNL     1       1.839  30.604  12.046  0.00  0.00    +0.000 A 
ATOM      5  C   UNL     1       3.332  31.598  13.671  0.00  0.00    +0.000 A 
ATOM      6  C   UNL     1       2.920  31.423  12.354  0.00  0.00    +0.000 A 
ENDROOT
BRANCH   6   7
ATOM      7  O   UNL     1       3.603  32.074  11.369  0.00  0.00    +0.000 OA
ATOM      8  H   UNL     1       4.367  31.528  11.114  0.00  0.00    +0.000 HD
ENDBRANCH   6   7
BRANCH   1   9
ATOM      9  O   UNL     1       0.958  29.520  15.476  0.00  0.00    +0.000 OA
BRANCH   9  10
ATOM     10  C   UNL     1       0.426  28.326  15.225  0.00  0.00    +0.000 C 
BRANCH  10  11
ATOM     11  C   UNL     1      -0.155  27.049  14.968  0.00  0.00    +0.000 A 
ATOM     12  C   UNL     1       0.090  26.409  13.755  0.00  0.00    +0.000 A 
ATOM     13  C   UNL     1      -0.483  25.164  13.501  0.00  0.00    +0.000 A 
ATOM     14  C   UNL     1      -1.296  24.563  14.460  0.00  0.00    +0.000 A 
ATOM     15  C   UNL     1      -1.538  25.206  15.672  0.00  0.00    +0.000 A 
ATOM     16  C   UNL     1      -0.967  26.450  15.927  0.00  0.00    +0.000 A 
ENDBRANCH  10  11
ENDBRANCH   9  10
ENDBRANCH   1   9
TORSDOF 4
ENDMDL
MODEL 4
REMARK VINA RESULT:      -4.8     26.245     27.502
REMARK  Name = Monobenzone.pdbqt.pdb
REMARK  4 active torsions:
REMARK  status: ('A' for Active; 'I' for Inactive)
REMARK    1  A    between atoms: C_1  and  O_7
REMARK    2  A    between atoms: C_6  and  O_15
REMARK    3  A    between atoms: O_7  and  C_8
REMARK    4  A    between atoms: C_8  and  C_9
REMARK                            x       y       z     vdW  Elec       q    Type
REMARK                         _______ _______ _______ _____ _____    ______ ____
ROOT
ATOM      1  C   UNL     1      22.422  18.848  26.093  0.00  0.00    +0.000 A 
ATOM      2  C   UNL     1      22.782  20.129  26.519  0.00  0.00    +0.000 A 
ATOM      3  C   UNL     1      22.308  18.579  24.729  0.00  0.00    +0.000 A 
ATOM      4  C   UNL     1      23.027  21.135  25.587  0.00  0.00    +0.000 A 
ATOM      5  C   UNL     1      22.551  19.581  23.793  0.00  0.00    +0.000 A 
ATOM      6  C   UNL     1      22.910  20.852  24.230  0.00  0.00    +0.000 A 
ENDROOT
BRANCH   6   7
ATOM      7  O   UNL     1      23.144  21.818  23.296  0.00  0.00    +0.000 OA
ATOM      8  H   UNL     1      22.911  21.460  22.422  0.00  0.00    +0.000 HD
ENDBRANCH   6   7
BRANCH   1   9
ATOM      9  O   UNL     1      22.162  17.795  26.934  0.00  0.00    +0.000 OA
BRANCH   9  10
ATOM     10  C   UNL     1      22.703  16.637  26.564  0.00  0.00    +0.000 C 
BRANCH  10  11
ATOM     11  C   UNL     1      23.268  15.389  26.168  0.00  0.00    +0.000 A 
ATOM     12  C   UNL     1      22.596  14.202  26.453  0.00  0.00    +0.000 A 
ATOM     13  C   UNL     1      23.152  12.983  26.070  0.00  0.00    +0.000 A 
ATOM     14  C   UNL     1      24.375  12.953  25.406  0.00  0.00    +0.000 A 
ATOM     15  C   UNL     1      25.045  14.141  25.123  0.00  0.00    +0.000 A 
ATOM     16  C   UNL     1      24.492  15.360  25.504  0.00  0.00    +0.000 A 
ENDBRANCH  10  11
ENDBRANCH   9  10
ENDBRANCH   1   9
TORSDOF 4
ENDMDL
MODEL 5
REMARK VINA RESULT:      -4.8     23.658     25.467
REMARK  Name = Monobenzone.pdbqt.pdb
REMARK  4 active torsions:
REMARK  status: ('A' for Active; 'I' for Inactive)
REMARK    1  A    between atoms: C_1  and  O_7
REMARK    2  A    between atoms: C_6  and  O_15
REMARK    3  A    between atoms: O_7  and  C_8
REMARK    4  A    between atoms: C_8  and  C_9
REMARK                            x       y       z     vdW  Elec       q    Type
REMARK                         _______ _______ _______ _____ _____    ______ ____
ROOT
ATOM      1  C   UNL     1       9.032  24.409  29.623  0.00  0.00    +0.000 A 
ATOM      2  C   UNL     1       9.767  25.274  28.808  0.00  0.00    +0.000 A 
ATOM      3  C   UNL     1       7.778  23.964  29.205  0.00  0.00    +0.000 A 
ATOM      4  C   UNL     1       9.253  25.690  27.583  0.00  0.00    +0.000 A 
ATOM      5  C   UNL     1       7.258  24.377  27.981  0.00  0.00    +0.000 A 
ATOM      6  C   UNL     1       8.001  25.237  27.179  0.00  0.00    +0.000 A 
ENDROOT
BRANCH   6   7
ATOM      7  O   UNL     1       7.473  25.629  25.983  0.00  0.00    +0.000 OA
ATOM      8  H   UNL     1       6.735  26.238  26.160  0.00  0.00    +0.000 HD
ENDBRANCH   6   7
BRANCH   1   9
ATOM      9  O   UNL     1       9.455  23.946  30.844  0.00  0.00    +0.000 OA
BRANCH   9  10
ATOM     10  C   UNL     1       9.502  22.620  30.953  0.00  0.00    +0.000 C 
BRANCH  10  11
ATOM     11  C   UNL     1       9.536  21.199  31.065  0.00  0.00    +0.000 A 
ATOM     12  C   UNL     1      10.417  20.595  31.959  0.00  0.00    +0.000 A 
ATOM     13  C   UNL     1      10.454  19.206  32.064  0.00  0.00    +0.000 A 
ATOM     14  C   UNL     1       9.612  18.426  31.276  0.00  0.00    +0.000 A 
ATOM     15  C   UNL     1       8.732  19.032  30.382  0.00  0.00    +0.000 A 
ATOM     16  C   UNL     1       8.693  20.420  30.276  0.00  0.00    +0.000 A 
ENDBRANCH  10  11
ENDBRANCH   9  10
ENDBRANCH   1   9
TORSDOF 4
ENDMDL
MODEL 6
REMARK VINA RESULT:      -4.6     21.397     22.942
REMARK  Name = Monobenzone.pdbqt.pdb
REMARK  4 active torsions:
REMARK  status: ('A' for Active; 'I' for Inactive)
REMARK    1  A    between atoms: C_1  and  O_7
REMARK    2  A    between atoms: C_6  and  O_15
REMARK    3  A    between atoms: O_7  and  C_8
REMARK    4  A    between atoms: C_8  and  C_9
REMARK                            x       y       z     vdW  Elec       q    Type
REMARK                         _______ _______ _______ _____ _____    ______ ____
ROOT
ATOM      1  C   UNL     1      18.687  -2.174  13.770  0.00  0.00    +0.000 A 
ATOM      2  C   UNL     1      18.842  -3.469  13.269  0.00  0.00    +0.000 A 
ATOM      3  C   UNL     1      18.897  -1.079  12.931  0.00  0.00    +0.000 A 
ATOM      4  C   UNL     1      19.203  -3.669  11.939  0.00  0.00    +0.000 A 
ATOM      5  C   UNL     1      19.259  -1.273  11.600  0.00  0.00    +0.000 A 
ATOM      6  C   UNL     1      19.409  -2.568  11.115  0.00  0.00    +0.000 A 
ENDROOT
BRANCH   6   7
ATOM      7  O   UNL     1      19.763  -2.734   9.808  0.00  0.00    +0.000 OA
ATOM      8  H   UNL     1      20.722  -2.591   9.731  0.00  0.00    +0.000 HD
ENDBRANCH   6   7
BRANCH   1   9
ATOM      9  O   UNL     1      18.334  -1.878  15.063  0.00  0.00    +0.000 OA
BRANCH   9  10
ATOM     10  C   UNL     1      19.217  -1.137  15.728  0.00  0.00    +0.000 C 
BRANCH  10  11
ATOM     11  C   UNL     1      20.152  -0.340  16.452  0.00  0.00    +0.000 A 
ATOM     12  C   UNL     1      21.023   0.502  15.765  0.00  0.00    +0.000 A 
ATOM     13  C   UNL     1      21.941   1.277  16.472  0.00  0.00    +0.000 A 
ATOM     14  C   UNL     1      21.984   1.208  17.863  0.00  0.00    +0.000 A 
ATOM     15  C   UNL     1      21.111   0.366  18.548  0.00  0.00    +0.000 A 
ATOM     16  C   UNL     1      20.194  -0.409  17.843  0.00  0.00    +0.000 A 
ENDBRANCH  10  11
ENDBRANCH   9  10
ENDBRANCH   1   9
TORSDOF 4
ENDMDL
MODEL 7
REMARK VINA RESULT:      -4.5     21.803     22.979
REMARK  Name = Monobenzone.pdbqt.pdb
REMARK  4 active torsions:
REMARK  status: ('A' for Active; 'I' for Inactive)
REMARK    1  A    between atoms: C_1  and  O_7
REMARK    2  A    between atoms: C_6  and  O_15
REMARK    3  A    between atoms: O_7  and  C_8
REMARK    4  A    between atoms: C_8  and  C_9
REMARK                            x       y       z     vdW  Elec       q    Type
REMARK                         _______ _______ _______ _____ _____    ______ ____
ROOT
ATOM      1  C   UNL     1      19.957   0.066  15.956  0.00  0.00    +0.000 A 
ATOM      2  C   UNL     1      21.140   0.776  16.179  0.00  0.00    +0.000 A 
ATOM      3  C   UNL     1      19.345  -0.607  17.015  0.00  0.00    +0.000 A 
ATOM      4  C   UNL     1      21.706   0.816  17.450  0.00  0.00    +0.000 A 
ATOM      5  C   UNL     1      19.908  -0.571  18.289  0.00  0.00    +0.000 A 
ATOM      6  C   UNL     1      21.085   0.141  18.496  0.00  0.00    +0.000 A 
ENDROOT
BRANCH   6   7
ATOM      7  O   UNL     1      21.617   0.163  19.752  0.00  0.00    +0.000 OA
ATOM      8  H   UNL     1      22.303  -0.525  19.804  0.00  0.00    +0.000 HD
ENDBRANCH   6   7
BRANCH   1   9
ATOM      9  O   UNL     1      19.326  -0.031  14.742  0.00  0.00    +0.000 OA
BRANCH   9  10
ATOM     10  C   UNL     1      18.870  -1.245  14.443  0.00  0.00    +0.000 C 
BRANCH  10  11
ATOM     11  C   UNL     1      18.396  -2.552  14.125  0.00  0.00    +0.000 A 
ATOM     12  C   UNL     1      19.027  -3.295  13.131  0.00  0.00    +0.000 A 
ATOM     13  C   UNL     1      18.561  -4.570  12.817  0.00  0.00    +0.000 A 
ATOM     14  C   UNL     1      17.466  -5.098  13.497  0.00  0.00    +0.000 A 
ATOM     15  C   UNL     1      16.837  -4.353  14.492  0.00  0.00    +0.000 A 
ATOM     16  C   UNL     1      17.302  -3.079  14.807  0.00  0.00    +0.000 A 
ENDBRANCH  10  11
ENDBRANCH   9  10
ENDBRANCH   1   9
TORSDOF 4
ENDMDL
MODEL 8
REMARK VINA RESULT:      -4.5     23.745     24.923
REMARK  Name = Monobenzone.pdbqt.pdb
REMARK  4 active torsions:
REMARK  status: ('A' for Active; 'I' for Inactive)
REMARK    1  A    between atoms: C_1  and  O_7
REMARK    2  A    between atoms: C_6  and  O_15
REMARK    3  A    between atoms: O_7  and  C_8
REMARK    4  A    between atoms: C_8  and  C_9
REMARK                            x       y       z     vdW  Elec       q    Type
REMARK                         _______ _______ _______ _____ _____    ______ ____
ROOT
ATOM      1  C   UNL     1       5.185  23.856  29.769  0.00  0.00    +0.000 A 
ATOM      2  C   UNL     1       4.088  22.997  29.673  0.00  0.00    +0.000 A 
ATOM      3  C   UNL     1       4.988  25.193  30.119  0.00  0.00    +0.000 A 
ATOM      4  C   UNL     1       2.803  23.469  29.925  0.00  0.00    +0.000 A 
ATOM      5  C   UNL     1       3.704  25.670  30.372  0.00  0.00    +0.000 A 
ATOM      6  C   UNL     1       2.621  24.803  30.273  0.00  0.00    +0.000 A 
ENDROOT
BRANCH   6   7
ATOM      7  O   UNL     1       1.373  25.292  30.526  0.00  0.00    +0.000 OA
ATOM      8  H   UNL     1       1.379  25.705  31.407  0.00  0.00    +0.000 HD
ENDBRANCH   6   7
BRANCH   1   9
ATOM      9  O   UNL     1       6.486  23.484  29.540  0.00  0.00    +0.000 OA
BRANCH   9  10
ATOM     10  C   UNL     1       7.224  24.391  28.905  0.00  0.00    +0.000 C 
BRANCH  10  11
ATOM     11  C   UNL     1       8.006  25.375  28.231  0.00  0.00    +0.000 A 
ATOM     12  C   UNL     1       8.091  25.360  26.841  0.00  0.00    +0.000 A 
ATOM     13  C   UNL     1       8.860  26.319  26.183  0.00  0.00    +0.000 A 
ATOM     14  C   UNL     1       9.540  27.288  26.916  0.00  0.00    +0.000 A 
ATOM     15  C   UNL     1       9.453  27.301  28.306  0.00  0.00    +0.000 A 
ATOM     16  C   UNL     1       8.686  26.344  28.965  0.00  0.00    +0.000 A 
ENDBRANCH  10  11
ENDBRANCH   9  10
ENDBRANCH   1   9
TORSDOF 4
ENDMDL
MODEL 9
REMARK VINA RESULT:      -4.4     16.039     17.031
REMARK  Name = Monobenzone.pdbqt.pdb
REMARK  4 active torsions:
REMARK  status: ('A' for Active; 'I' for Inactive)
REMARK    1  A    between atoms: C_1  and  O_7
REMARK    2  A    between atoms: C_6  and  O_15
REMARK    3  A    between atoms: O_7  and  C_8
REMARK    4  A    between atoms: C_8  and  C_9
REMARK                            x       y       z     vdW  Elec       q    Type
REMARK                         _______ _______ _______ _____ _____    ______ ____
ROOT
ATOM      1  C   UNL     1      -0.845  26.481  15.613  0.00  0.00    +0.000 A 
ATOM      2  C   UNL     1      -0.455  25.814  14.449  0.00  0.00    +0.000 A 
ATOM      3  C   UNL     1      -1.902  25.980  16.374  0.00  0.00    +0.000 A 
ATOM      4  C   UNL     1      -1.114  24.656  14.049  0.00  0.00    +0.000 A 
ATOM      5  C   UNL     1      -2.566  24.822  15.978  0.00  0.00    +0.000 A 
ATOM      6  C   UNL     1      -2.166  24.168  14.818  0.00  0.00    +0.000 A 
ENDROOT
BRANCH   6   7
ATOM      7  O   UNL     1      -2.830  23.035  14.449  0.00  0.00    +0.000 OA
ATOM      8  H   UNL     1      -3.688  23.293  14.071  0.00  0.00    +0.000 HD
ENDBRANCH   6   7
BRANCH   1   9
ATOM      9  O   UNL     1      -0.257  27.627  16.087  0.00  0.00    +0.000 OA
BRANCH   9  10
ATOM     10  C   UNL     1       0.326  28.381  15.158  0.00  0.00    +0.000 C 
BRANCH  10  11
ATOM     11  C   UNL     1       0.943  29.181  14.151  0.00  0.00    +0.000 A 
ATOM     12  C   UNL     1       0.622  28.978  12.811  0.00  0.00    +0.000 A 
ATOM     13  C   UNL     1       1.230  29.755  11.827  0.00  0.00    +0.000 A 
ATOM     14  C   UNL     1       2.155  30.733  12.185  0.00  0.00    +0.000 A 
ATOM     15  C   UNL     1       2.474  30.934  13.526  0.00  0.00    +0.000 A 
ATOM     16  C   UNL     1       1.868  30.158  14.511  0.00  0.00    +0.000 A 
ENDBRANCH  10  11
ENDBRANCH   9  10
ENDBRANCH   1   9
TORSDOF 4
ENDMDL
