MODEL 1
REMARK VINA RESULT:      -5.5      0.000      0.000
REMARK  Name = 
REMARK  5 active torsions:
REMARK  status: ('A' for Active; 'I' for Inactive)
REMARK    1  A    between atoms: O_4  and  C_15
REMARK    2  A    between atoms: C_6  and  C_13
REMARK    3  A    between atoms: C_7  and  C_12
REMARK    4  A    between atoms: C_8  and  C_14
REMARK    5  A    between atoms: C_12  and  C_15
REMARK                            x       y       z     vdW  Elec       q    Type
REMARK                         _______ _______ _______ _____ _____    ______ ____
ROOT
ATOM      1  C   UNL     1       2.122  30.648  13.673  0.00  0.00    +0.000 A 
ATOM      2  C   UNL     1       0.765  28.821  14.581  0.00  0.00    +0.000 A 
ATOM      3  C   UNL     1       1.647  30.352  12.377  0.00  0.00    +0.000 A 
ATOM      4  C   UNL     1       1.672  29.873  14.761  0.00  0.00    +0.000 A 
ATOM      5  C   UNL     1       0.312  28.532  13.291  0.00  0.00    +0.000 A 
ATOM      6  C   UNL     1       0.746  29.291  12.203  0.00  0.00    +0.000 A 
ATOM      7  C   UNL     1       2.094  31.140  11.175  0.00  0.00    +0.000 C 
ENDROOT
BRANCH   1  11
ATOM      8  F   UNL     1       3.477  31.872  15.225  0.00  0.00    +0.000 F 
ATOM      9  F   UNL     1       4.265  31.651  13.217  0.00  0.00    +0.000 F 
ATOM     10  F   UNL     1       2.602  32.998  13.581  0.00  0.00    +0.000 F 
ATOM     11  C   UNL     1       3.102  31.776  13.918  0.00  0.00    +0.000 C 
ENDBRANCH   1  11
BRANCH   2  12
ATOM     12  C   UNL     1       0.309  27.990  15.758  0.00  0.00    +0.000 C 
BRANCH  12  14
ATOM     13  O   UNL     1      -1.278  29.423  16.974  0.00  0.00    +0.000 OA
ATOM     14  C   UNL     1      -0.229  28.804  16.909  0.00  0.00    +0.000 C 
BRANCH  14  15
ATOM     15  O   UNL     1       0.605  28.780  17.971  0.00  0.00    +0.000 OA
ATOM     16  H   UNL     1       1.496  28.862  17.569  0.00  0.00    +0.000 HD
ENDBRANCH  14  15
ENDBRANCH  12  14
ENDBRANCH   2  12
TORSDOF 4
ENDMDL
MODEL 2
REMARK VINA RESULT:      -4.9      5.444      7.033
REMARK  Name = 
REMARK  5 active torsions:
REMARK  status: ('A' for Active; 'I' for Inactive)
REMARK    1  A    between atoms: O_4  and  C_15
REMARK    2  A    between atoms: C_6  and  C_13
REMARK    3  A    between atoms: C_7  and  C_12
REMARK    4  A    between atoms: C_8  and  C_14
REMARK    5  A    between atoms: C_12  and  C_15
REMARK                            x       y       z     vdW  Elec       q    Type
REMARK                         _______ _______ _______ _____ _____    ______ ____
ROOT
ATOM      1  C   UNL     1      -2.360  25.351  16.223  0.00  0.00    +0.000 A 
ATOM      2  C   UNL     1      -0.454  26.653  15.401  0.00  0.00    +0.000 A 
ATOM      3  C   UNL     1      -2.215  24.460  15.138  0.00  0.00    +0.000 A 
ATOM      4  C   UNL     1      -1.473  26.440  16.338  0.00  0.00    +0.000 A 
ATOM      5  C   UNL     1      -0.330  25.769  14.325  0.00  0.00    +0.000 A 
ATOM      6  C   UNL     1      -1.199  24.685  14.197  0.00  0.00    +0.000 A 
ATOM      7  C   UNL     1      -3.134  23.282  14.957  0.00  0.00    +0.000 C 
ENDROOT
BRANCH   1  11
ATOM      8  F   UNL     1      -4.699  25.236  16.733  0.00  0.00    +0.000 F 
ATOM      9  F   UNL     1      -3.390  23.956  17.897  0.00  0.00    +0.000 F 
ATOM     10  F   UNL     1      -3.401  26.098  18.252  0.00  0.00    +0.000 F 
ATOM     11  C   UNL     1      -3.445  25.162  17.263  0.00  0.00    +0.000 C 
ENDBRANCH   1  11
BRANCH   2  12
ATOM     12  C   UNL     1       0.476  27.836  15.532  0.00  0.00    +0.000 C 
BRANCH  12  14
ATOM     13  O   UNL     1      -0.903  29.758  16.208  0.00  0.00    +0.000 OA
ATOM     14  C   UNL     1      -0.043  28.925  16.439  0.00  0.00    +0.000 C 
BRANCH  14  15
ATOM     15  O   UNL     1       0.556  28.895  17.649  0.00  0.00    +0.000 OA
ATOM     16  H   UNL     1       1.180  28.140  17.581  0.00  0.00    +0.000 HD
ENDBRANCH  14  15
ENDBRANCH  12  14
ENDBRANCH   2  12
TORSDOF 4
ENDMDL
MODEL 3
REMARK VINA RESULT:      -4.9     21.099     22.259
REMARK  Name = 
REMARK  5 active torsions:
REMARK  status: ('A' for Active; 'I' for Inactive)
REMARK    1  A    between atoms: O_4  and  C_15
REMARK    2  A    between atoms: C_6  and  C_13
REMARK    3  A    between atoms: C_7  and  C_12
REMARK    4  A    between atoms: C_8  and  C_14
REMARK    5  A    between atoms: C_12  and  C_15
REMARK                            x       y       z     vdW  Elec       q    Type
REMARK                         _______ _______ _______ _____ _____    ______ ____
ROOT
ATOM      1  C   UNL     1      10.215  19.273  30.285  0.00  0.00    +0.000 A 
ATOM      2  C   UNL     1      11.756  17.533  29.507  0.00  0.00    +0.000 A 
ATOM      3  C   UNL     1      11.302  20.161  30.439  0.00  0.00    +0.000 A 
ATOM      4  C   UNL     1      10.460  17.965  29.819  0.00  0.00    +0.000 A 
ATOM      5  C   UNL     1      12.823  18.419  29.676  0.00  0.00    +0.000 A 
ATOM      6  C   UNL     1      12.598  19.718  30.134  0.00  0.00    +0.000 A 
ATOM      7  C   UNL     1      11.105  21.567  30.937  0.00  0.00    +0.000 C 
ENDROOT
BRANCH   1  11
ATOM      8  F   UNL     1       8.678  20.222  31.859  0.00  0.00    +0.000 F 
ATOM      9  F   UNL     1       8.304  20.645  29.765  0.00  0.00    +0.000 F 
ATOM     10  F   UNL     1       7.910  18.661  30.552  0.00  0.00    +0.000 F 
ATOM     11  C   UNL     1       8.797  19.694  30.608  0.00  0.00    +0.000 C 
ENDBRANCH   1  11
BRANCH   2  12
ATOM     12  C   UNL     1      12.000  16.121  29.027  0.00  0.00    +0.000 C 
BRANCH  12  14
ATOM     13  O   UNL     1      13.769  15.241  30.493  0.00  0.00    +0.000 OA
ATOM     14  C   UNL     1      13.359  15.577  29.394  0.00  0.00    +0.000 C 
BRANCH  14  15
ATOM     15  O   UNL     1      14.159  15.459  28.313  0.00  0.00    +0.000 OA
ATOM     16  H   UNL     1      14.908  14.913  28.637  0.00  0.00    +0.000 HD
ENDBRANCH  14  15
ENDBRANCH  12  14
ENDBRANCH   2  12
TORSDOF 4
ENDMDL
MODEL 4
REMARK VINA RESULT:      -4.7     21.605     22.927
REMARK  Name = 
REMARK  5 active torsions:
REMARK  status: ('A' for Active; 'I' for Inactive)
REMARK    1  A    between atoms: O_4  and  C_15
REMARK    2  A    between atoms: C_6  and  C_13
REMARK    3  A    between atoms: C_7  and  C_12
REMARK    4  A    between atoms: C_8  and  C_14
REMARK    5  A    between atoms: C_12  and  C_15
REMARK                            x       y       z     vdW  Elec       q    Type
REMARK                         _______ _______ _______ _____ _____    ______ ____
ROOT
ATOM      1  C   UNL     1      23.610  27.671   5.611  0.00  0.00    +0.000 A 
ATOM      2  C   UNL     1      21.502  28.816   6.112  0.00  0.00    +0.000 A 
ATOM      3  C   UNL     1      23.041  27.148   4.429  0.00  0.00    +0.000 A 
ATOM      4  C   UNL     1      22.827  28.500   6.439  0.00  0.00    +0.000 A 
ATOM      5  C   UNL     1      20.948  28.282   4.945  0.00  0.00    +0.000 A 
ATOM      6  C   UNL     1      21.709  27.460   4.113  0.00  0.00    +0.000 A 
ATOM      7  C   UNL     1      23.823  26.252   3.508  0.00  0.00    +0.000 C 
ENDROOT
BRANCH   1  11
ATOM      8  F   UNL     1      25.342  27.794   7.263  0.00  0.00    +0.000 F 
ATOM      9  F   UNL     1      25.327  26.027   6.004  0.00  0.00    +0.000 F 
ATOM     10  F   UNL     1      25.956  27.934   5.180  0.00  0.00    +0.000 F 
ATOM     11  C   UNL     1      25.038  27.360   6.006  0.00  0.00    +0.000 C 
ENDBRANCH   1  11
BRANCH   2  12
ATOM     12  C   UNL     1      20.674  29.692   7.022  0.00  0.00    +0.000 C 
BRANCH  12  14
ATOM     13  O   UNL     1      20.626  28.317   9.062  0.00  0.00    +0.000 OA
ATOM     14  C   UNL     1      20.062  28.956   8.190  0.00  0.00    +0.000 C 
BRANCH  14  15
ATOM     15  O   UNL     1      18.717  29.085   8.212  0.00  0.00    +0.000 OA
ATOM     16  H   UNL     1      18.416  28.494   7.489  0.00  0.00    +0.000 HD
ENDBRANCH  14  15
ENDBRANCH  12  14
ENDBRANCH   2  12
TORSDOF 4
ENDMDL
MODEL 5
REMARK VINA RESULT:      -4.7     21.035     22.380
REMARK  Name = 
REMARK  5 active torsions:
REMARK  status: ('A' for Active; 'I' for Inactive)
REMARK    1  A    between atoms: O_4  and  C_15
REMARK    2  A    between atoms: C_6  and  C_13
REMARK    3  A    between atoms: C_7  and  C_12
REMARK    4  A    between atoms: C_8  and  C_14
REMARK    5  A    between atoms: C_12  and  C_15
REMARK                            x       y       z     vdW  Elec       q    Type
REMARK                         _______ _______ _______ _____ _____    ______ ____
ROOT
ATOM      1  C   UNL     1      11.114  19.861  30.564  0.00  0.00    +0.000 A 
ATOM      2  C   UNL     1      12.563  18.045  29.785  0.00  0.00    +0.000 A 
ATOM      3  C   UNL     1       9.977  19.098  30.217  0.00  0.00    +0.000 A 
ATOM      4  C   UNL     1      12.396  19.320  30.341  0.00  0.00    +0.000 A 
ATOM      5  C   UNL     1      11.429  17.306  29.435  0.00  0.00    +0.000 A 
ATOM      6  C   UNL     1      10.152  17.826  29.651  0.00  0.00    +0.000 A 
ATOM      7  C   UNL     1       8.583  19.623  30.426  0.00  0.00    +0.000 C 
ENDROOT
BRANCH   1  11
ATOM      8  F   UNL     1      12.193  21.829  31.404  0.00  0.00    +0.000 F 
ATOM      9  F   UNL     1      10.305  22.123  30.378  0.00  0.00    +0.000 F 
ATOM     10  F   UNL     1      10.329  21.243  32.363  0.00  0.00    +0.000 F 
ATOM     11  C   UNL     1      10.985  21.243  31.168  0.00  0.00    +0.000 C 
ENDBRANCH   1  11
BRANCH   2  12
ATOM     12  C   UNL     1      13.946  17.491  29.536  0.00  0.00    +0.000 C 
BRANCH  12  14
ATOM     13  O   UNL     1      13.906  15.244  30.536  0.00  0.00    +0.000 OA
ATOM     14  C   UNL     1      14.016  15.984  29.574  0.00  0.00    +0.000 C 
BRANCH  14  15
ATOM     15  O   UNL     1      14.210  15.462  28.343  0.00  0.00    +0.000 OA
ATOM     16  H   UNL     1      14.702  16.165  27.867  0.00  0.00    +0.000 HD
ENDBRANCH  14  15
ENDBRANCH  12  14
ENDBRANCH   2  12
TORSDOF 4
ENDMDL
MODEL 6
REMARK VINA RESULT:      -4.7      4.091      5.788
REMARK  Name = 
REMARK  5 active torsions:
REMARK  status: ('A' for Active; 'I' for Inactive)
REMARK    1  A    between atoms: O_4  and  C_15
REMARK    2  A    between atoms: C_6  and  C_13
REMARK    3  A    between atoms: C_7  and  C_12
REMARK    4  A    between atoms: C_8  and  C_14
REMARK    5  A    between atoms: C_12  and  C_15
REMARK                            x       y       z     vdW  Elec       q    Type
REMARK                         _______ _______ _______ _____ _____    ______ ____
ROOT
ATOM      1  C   UNL     1      -1.378  27.331  16.293  0.00  0.00    +0.000 A 
ATOM      2  C   UNL     1       0.040  27.922  14.384  0.00  0.00    +0.000 A 
ATOM      3  C   UNL     1      -1.329  25.974  15.905  0.00  0.00    +0.000 A 
ATOM      4  C   UNL     1      -0.690  28.289  15.522  0.00  0.00    +0.000 A 
ATOM      5  C   UNL     1       0.070  26.577  14.005  0.00  0.00    +0.000 A 
ATOM      6  C   UNL     1      -0.605  25.615  14.758  0.00  0.00    +0.000 A 
ATOM      7  C   UNL     1      -2.048  24.906  16.683  0.00  0.00    +0.000 C 
ENDROOT
BRANCH   1  11
ATOM      8  F   UNL     1      -1.706  27.191  18.663  0.00  0.00    +0.000 F 
ATOM      9  F   UNL     1      -2.084  29.119  17.745  0.00  0.00    +0.000 F 
ATOM     10  F   UNL     1      -3.481  27.486  17.439  0.00  0.00    +0.000 F 
ATOM     11  C   UNL     1      -2.152  27.777  17.516  0.00  0.00    +0.000 C 
ENDBRANCH   1  11
BRANCH   2  12
ATOM     12  C   UNL     1       0.756  28.967  13.560  0.00  0.00    +0.000 C 
BRANCH  12  14
ATOM     13  O   UNL     1       0.535  31.273  14.387  0.00  0.00    +0.000 OA
ATOM     14  C   UNL     1       1.127  30.208  14.335  0.00  0.00    +0.000 C 
BRANCH  14  15
ATOM     15  O   UNL     1       2.259  30.032  15.050  0.00  0.00    +0.000 OA
ATOM     16  H   UNL     1       2.553  30.947  15.248  0.00  0.00    +0.000 HD
ENDBRANCH  14  15
ENDBRANCH  12  14
ENDBRANCH   2  12
TORSDOF 4
ENDMDL
MODEL 7
REMARK VINA RESULT:      -4.6     25.821     26.575
REMARK  Name = 
REMARK  5 active torsions:
REMARK  status: ('A' for Active; 'I' for Inactive)
REMARK    1  A    between atoms: O_4  and  C_15
REMARK    2  A    between atoms: C_6  and  C_13
REMARK    3  A    between atoms: C_7  and  C_12
REMARK    4  A    between atoms: C_8  and  C_14
REMARK    5  A    between atoms: C_12  and  C_15
REMARK                            x       y       z     vdW  Elec       q    Type
REMARK                         _______ _______ _______ _____ _____    ______ ____
ROOT
ATOM      1  C   UNL     1      22.626  19.855  25.473  0.00  0.00    +0.000 A 
ATOM      2  C   UNL     1      23.416  22.160  25.732  0.00  0.00    +0.000 A 
ATOM      3  C   UNL     1      22.502  19.744  26.875  0.00  0.00    +0.000 A 
ATOM      4  C   UNL     1      23.084  21.067  24.921  0.00  0.00    +0.000 A 
ATOM      5  C   UNL     1      23.299  22.032  27.119  0.00  0.00    +0.000 A 
ATOM      6  C   UNL     1      22.845  20.839  27.683  0.00  0.00    +0.000 A 
ATOM      7  C   UNL     1      22.024  18.473  27.526  0.00  0.00    +0.000 C 
ENDROOT
BRANCH   1  11
ATOM      8  F   UNL     1      23.095  17.625  24.732  0.00  0.00    +0.000 F 
ATOM      9  F   UNL     1      21.012  18.229  24.725  0.00  0.00    +0.000 F 
ATOM     10  F   UNL     1      22.373  19.028  23.235  0.00  0.00    +0.000 F 
ATOM     11  C   UNL     1      22.280  18.702  24.554  0.00  0.00    +0.000 C 
ENDBRANCH   1  11
BRANCH   2  12
ATOM     12  C   UNL     1      23.922  23.446  25.121  0.00  0.00    +0.000 C 
BRANCH  12  14
ATOM     13  O   UNL     1      24.650  23.132  22.793  0.00  0.00    +0.000 OA
ATOM     14  C   UNL     1      24.891  23.242  23.983  0.00  0.00    +0.000 C 
BRANCH  14  15
ATOM     15  O   UNL     1      26.171  23.205  24.415  0.00  0.00    +0.000 OA
ATOM     16  H   UNL     1      26.309  24.096  24.806  0.00  0.00    +0.000 HD
ENDBRANCH  14  15
ENDBRANCH  12  14
ENDBRANCH   2  12
TORSDOF 4
ENDMDL
MODEL 8
REMARK VINA RESULT:      -4.6     22.555     23.633
REMARK  Name = 
REMARK  5 active torsions:
REMARK  status: ('A' for Active; 'I' for Inactive)
REMARK    1  A    between atoms: O_4  and  C_15
REMARK    2  A    between atoms: C_6  and  C_13
REMARK    3  A    between atoms: C_7  and  C_12
REMARK    4  A    between atoms: C_8  and  C_14
REMARK    5  A    between atoms: C_12  and  C_15
REMARK                            x       y       z     vdW  Elec       q    Type
REMARK                         _______ _______ _______ _____ _____    ______ ____
ROOT
ATOM      1  C   UNL     1       9.314  15.968  30.534  0.00  0.00    +0.000 A 
ATOM      2  C   UNL     1      11.395  16.433  29.325  0.00  0.00    +0.000 A 
ATOM      3  C   UNL     1       9.060  17.354  30.622  0.00  0.00    +0.000 A 
ATOM      4  C   UNL     1      10.484  15.527  29.884  0.00  0.00    +0.000 A 
ATOM      5  C   UNL     1      11.136  17.803  29.430  0.00  0.00    +0.000 A 
ATOM      6  C   UNL     1       9.981  18.257  30.069  0.00  0.00    +0.000 A 
ATOM      7  C   UNL     1       7.831  17.887  31.309  0.00  0.00    +0.000 C 
ENDROOT
BRANCH   1  11
ATOM      8  F   UNL     1       8.768  13.665  30.912  0.00  0.00    +0.000 F 
ATOM      9  F   UNL     1       8.203  15.063  32.471  0.00  0.00    +0.000 F 
ATOM     10  F   UNL     1       7.105  15.033  30.599  0.00  0.00    +0.000 F 
ATOM     11  C   UNL     1       8.361  14.949  31.121  0.00  0.00    +0.000 C 
ENDBRANCH   1  11
BRANCH   2  12
ATOM     12  C   UNL     1      12.652  15.941  28.648  0.00  0.00    +0.000 C 
BRANCH  12  14
ATOM     13  O   UNL     1      14.038  15.338  30.589  0.00  0.00    +0.000 OA
ATOM     14  C   UNL     1      13.514  15.063  29.522  0.00  0.00    +0.000 C 
BRANCH  14  15
ATOM     15  O   UNL     1      13.662  13.827  28.999  0.00  0.00    +0.000 OA
ATOM     16  H   UNL     1      14.178  13.346  29.682  0.00  0.00    +0.000 HD
ENDBRANCH  14  15
ENDBRANCH  12  14
ENDBRANCH   2  12
TORSDOF 4
ENDMDL
MODEL 9
REMARK VINA RESULT:      -4.5      3.900      5.361
REMARK  Name = 
REMARK  5 active torsions:
REMARK  status: ('A' for Active; 'I' for Inactive)
REMARK    1  A    between atoms: O_4  and  C_15
REMARK    2  A    between atoms: C_6  and  C_13
REMARK    3  A    between atoms: C_7  and  C_12
REMARK    4  A    between atoms: C_8  and  C_14
REMARK    5  A    between atoms: C_12  and  C_15
REMARK                            x       y       z     vdW  Elec       q    Type
REMARK                         _______ _______ _______ _____ _____    ______ ____
ROOT
ATOM      1  C   UNL     1      -0.582  27.089  15.726  0.00  0.00    +0.000 A 
ATOM      2  C   UNL     1      -2.299  26.846  17.458  0.00  0.00    +0.000 A 
ATOM      3  C   UNL     1      -0.996  25.868  15.150  0.00  0.00    +0.000 A 
ATOM      4  C   UNL     1      -1.244  27.561  16.877  0.00  0.00    +0.000 A 
ATOM      5  C   UNL     1      -2.690  25.633  16.883  0.00  0.00    +0.000 A 
ATOM      6  C   UNL     1      -2.047  25.152  15.742  0.00  0.00    +0.000 A 
ATOM      7  C   UNL     1      -0.325  25.308  13.924  0.00  0.00    +0.000 C 
ENDROOT
BRANCH   1  11
ATOM      8  F   UNL     1       0.379  28.157  13.808  0.00  0.00    +0.000 F 
ATOM      9  F   UNL     1       0.717  29.118  15.724  0.00  0.00    +0.000 F 
ATOM     10  F   UNL     1       1.760  27.276  15.241  0.00  0.00    +0.000 F 
ATOM     11  C   UNL     1       0.553  27.898  15.136  0.00  0.00    +0.000 C 
ENDBRANCH   1  11
BRANCH   2  12
ATOM     12  C   UNL     1      -2.984  27.360  18.702  0.00  0.00    +0.000 C 
BRANCH  12  14
ATOM     13  O   UNL     1      -5.368  26.758  18.625  0.00  0.00    +0.000 OA
ATOM     14  C   UNL     1      -4.240  26.607  19.065  0.00  0.00    +0.000 C 
BRANCH  14  15
ATOM     15  O   UNL     1      -4.001  25.648  19.986  0.00  0.00    +0.000 OA
ATOM     16  H   UNL     1      -4.887  25.466  20.367  0.00  0.00    +0.000 HD
ENDBRANCH  14  15
ENDBRANCH  12  14
ENDBRANCH   2  12
TORSDOF 4
ENDMDL
