MODEL 1
REMARK VINA RESULT:      -6.2      0.000      0.000
REMARK  Name = OTSSP167.pdbqt.pdb
REMARK  7 active torsions:
REMARK  status: ('A' for Active; 'I' for Inactive)
REMARK    1  A    between atoms: C_5  and  N_19
REMARK    2  A    between atoms: C_7  and  C_31
REMARK    3  A    between atoms: C_11  and  C_13
REMARK    4  A    between atoms: C_18  and  O_34
REMARK    5  A    between atoms: N_19  and  C_21
REMARK    6  A    between atoms: C_24  and  C_27
REMARK    7  A    between atoms: C_27  and  N_28
REMARK                            x       y       z     vdW  Elec       q    Type
REMARK                         _______ _______ _______ _____ _____    ______ ____
ROOT
ATOM      1  N   UNL     1       9.570  19.690  29.996  0.00  0.00    +0.000 NA
ATOM      2  N   UNL     1       9.293  16.150  30.857  0.00  0.00    +0.000 NA
ATOM      3  C   UNL     1      11.128  17.865  29.585  0.00  0.00    +0.000 A 
ATOM      4  C   UNL     1       9.912  18.382  30.105  0.00  0.00    +0.000 A 
ATOM      5  C   UNL     1      11.378  16.484  29.721  0.00  0.00    +0.000 A 
ATOM      6  C   UNL     1       9.040  17.462  30.726  0.00  0.00    +0.000 A 
ATOM      7  C   UNL     1      10.451  15.686  30.352  0.00  0.00    +0.000 A 
ATOM      8  C   UNL     1       7.848  17.953  31.227  0.00  0.00    +0.000 A 
ATOM      9  C   UNL     1       8.399  20.146  30.504  0.00  0.00    +0.000 A 
ATOM     10  C   UNL     1       7.508  19.294  31.128  0.00  0.00    +0.000 A 
ENDROOT
BRANCH   9  13
ATOM     11 CL   UNL     1       4.973  23.949  29.799  0.00  0.00    +0.000 Cl
ATOM     12 CL   UNL     1      10.308  24.945  30.284  0.00  0.00    +0.000 Cl
ATOM     13  C   UNL     1       8.151  21.583  30.364  0.00  0.00    +0.000 A 
ATOM     14  C   UNL     1       9.194  22.517  30.386  0.00  0.00    +0.000 A 
ATOM     15  C   UNL     1       6.851  22.074  30.188  0.00  0.00    +0.000 A 
ATOM     16  C   UNL     1       6.599  23.435  30.035  0.00  0.00    +0.000 A 
ATOM     17  C   UNL     1       8.953  23.883  30.240  0.00  0.00    +0.000 A 
ATOM     18  C   UNL     1       7.650  24.350  30.062  0.00  0.00    +0.000 A 
BRANCH  18  19
ATOM     19  O   UNL     1       7.420  25.692  29.915  0.00  0.00    +0.000 OA
ATOM     20  H   UNL     1       6.490  25.816  29.647  0.00  0.00    +0.000 HD
ENDBRANCH  18  19
ENDBRANCH   9  13
BRANCH   5  21
ATOM     21  C   UNL     1      12.572  15.833  29.185  0.00  0.00    +0.000 C 
ATOM     22  O   UNL     1      12.915  15.855  28.014  0.00  0.00    +0.000 OA
ATOM     23  C   UNL     1      13.512  15.004  30.005  0.00  0.00    +0.000 C 
ENDBRANCH   5  21
BRANCH   3  24
ATOM     24  N   UNL     1      12.151  18.694  29.023  0.00  0.00    +0.000 N 
ATOM     25  H   UNL     1      12.048  18.876  28.021  0.00  0.00    +0.000 HD
BRANCH  24  26
ATOM     26  C   UNL     1      12.930  19.616  29.666  0.00  0.00    +0.000 A 
ATOM     27  C   UNL     1      12.911  19.618  31.106  0.00  0.00    +0.000 A 
ATOM     28  C   UNL     1      12.892  20.871  32.019  0.00  0.00    +0.000 A 
ATOM     29  C   UNL     1      12.881  22.235  31.548  0.00  0.00    +0.000 A 
ATOM     30  C   UNL     1      12.873  22.237  30.107  0.00  0.00    +0.000 A 
ATOM     31  C   UNL     1      12.891  20.982  29.200  0.00  0.00    +0.000 A 
BRANCH  29  32
ATOM     32  C   UNL     1      13.002  23.383  32.363  0.00  0.00    +0.000 C 
BRANCH  32  33
ATOM     33  N   UNL     1      13.138  24.571  33.187  0.00  0.00    +0.000 NA
ATOM     34  C   UNL     1      11.818  24.898  33.701  0.00  0.00    +0.000 C 
ATOM     35  C   UNL     1      13.538  25.662  32.314  0.00  0.00    +0.000 C 
ENDBRANCH  32  33
ENDBRANCH  29  32
ENDBRANCH  24  26
ENDBRANCH   3  24
TORSDOF 7
ENDMDL
MODEL 2
REMARK VINA RESULT:      -6.1      3.534      5.247
REMARK  Name = OTSSP167.pdbqt.pdb
REMARK  7 active torsions:
REMARK  status: ('A' for Active; 'I' for Inactive)
REMARK    1  A    between atoms: C_5  and  N_19
REMARK    2  A    between atoms: C_7  and  C_31
REMARK    3  A    between atoms: C_11  and  C_13
REMARK    4  A    between atoms: C_18  and  O_34
REMARK    5  A    between atoms: N_19  and  C_21
REMARK    6  A    between atoms: C_24  and  C_27
REMARK    7  A    between atoms: C_27  and  N_28
REMARK                            x       y       z     vdW  Elec       q    Type
REMARK                         _______ _______ _______ _____ _____    ______ ____
ROOT
ATOM      1  N   UNL     1       8.503  23.797  29.264  0.00  0.00    +0.000 NA
ATOM      2  N   UNL     1       5.726  21.851  30.626  0.00  0.00    +0.000 NA
ATOM      3  C   UNL     1       8.530  21.668  30.445  0.00  0.00    +0.000 A 
ATOM      4  C   UNL     1       7.853  22.793  29.903  0.00  0.00    +0.000 A 
ATOM      5  C   UNL     1       7.761  20.660  31.063  0.00  0.00    +0.000 A 
ATOM      6  C   UNL     1       6.447  22.814  30.029  0.00  0.00    +0.000 A 
ATOM      7  C   UNL     1       6.393  20.796  31.128  0.00  0.00    +0.000 A 
ATOM      8  C   UNL     1       5.777  23.899  29.495  0.00  0.00    +0.000 A 
ATOM      9  C   UNL     1       7.821  24.855  28.758  0.00  0.00    +0.000 A 
ATOM     10  C   UNL     1       6.446  24.933  28.856  0.00  0.00    +0.000 A 
ENDROOT
BRANCH   9  13
ATOM     11 CL   UNL     1      10.793  29.041  29.335  0.00  0.00    +0.000 Cl
ATOM     12 CL   UNL     1       9.635  26.998  24.418  0.00  0.00    +0.000 Cl
ATOM     13  C   UNL     1       8.629  25.900  28.125  0.00  0.00    +0.000 A 
ATOM     14  C   UNL     1       8.768  25.983  26.735  0.00  0.00    +0.000 A 
ATOM     15  C   UNL     1       9.284  26.868  28.898  0.00  0.00    +0.000 A 
ATOM     16  C   UNL     1      10.041  27.879  28.312  0.00  0.00    +0.000 A 
ATOM     17  C   UNL     1       9.529  26.989  26.137  0.00  0.00    +0.000 A 
ATOM     18  C   UNL     1      10.170  27.944  26.925  0.00  0.00    +0.000 A 
BRANCH  18  19
ATOM     19  O   UNL     1      10.912  28.932  26.333  0.00  0.00    +0.000 OA
ATOM     20  H   UNL     1      11.152  28.638  25.434  0.00  0.00    +0.000 HD
ENDBRANCH  18  19
ENDBRANCH   9  13
BRANCH   5  21
ATOM     21  C   UNL     1       8.343  19.438  31.613  0.00  0.00    +0.000 C 
ATOM     22  O   UNL     1       9.235  19.400  32.444  0.00  0.00    +0.000 OA
ATOM     23  C   UNL     1       7.947  18.057  31.186  0.00  0.00    +0.000 C 
ENDBRANCH   5  21
BRANCH   3  24
ATOM     24  N   UNL     1       9.957  21.562  30.483  0.00  0.00    +0.000 N 
ATOM     25  H   UNL     1      10.365  21.036  29.704  0.00  0.00    +0.000 HD
BRANCH  24  26
ATOM     26  C   UNL     1      10.845  22.401  31.096  0.00  0.00    +0.000 A 
ATOM     27  C   UNL     1      10.367  23.179  32.211  0.00  0.00    +0.000 A 
ATOM     28  C   UNL     1      10.707  24.663  32.503  0.00  0.00    +0.000 A 
ATOM     29  C   UNL     1      11.556  25.493  31.681  0.00  0.00    +0.000 A 
ATOM     30  C   UNL     1      12.015  24.725  30.551  0.00  0.00    +0.000 A 
ATOM     31  C   UNL     1      11.671  23.242  30.264  0.00  0.00    +0.000 A 
BRANCH  29  32
ATOM     32  C   UNL     1      11.984  26.799  32.005  0.00  0.00    +0.000 C 
BRANCH  32  33
ATOM     33  N   UNL     1      12.417  28.149  32.321  0.00  0.00    +0.000 NA
ATOM     34  C   UNL     1      13.638  28.400  31.572  0.00  0.00    +0.000 C 
ATOM     35  C   UNL     1      12.770  28.172  33.730  0.00  0.00    +0.000 C 
ENDBRANCH  32  33
ENDBRANCH  29  32
ENDBRANCH  24  26
ENDBRANCH   3  24
TORSDOF 7
ENDMDL
MODEL 3
REMARK VINA RESULT:      -6.0      2.224      5.138
REMARK  Name = OTSSP167.pdbqt.pdb
REMARK  7 active torsions:
REMARK  status: ('A' for Active; 'I' for Inactive)
REMARK    1  A    between atoms: C_5  and  N_19
REMARK    2  A    between atoms: C_7  and  C_31
REMARK    3  A    between atoms: C_11  and  C_13
REMARK    4  A    between atoms: C_18  and  O_34
REMARK    5  A    between atoms: N_19  and  C_21
REMARK    6  A    between atoms: C_24  and  C_27
REMARK    7  A    between atoms: C_27  and  N_28
REMARK                            x       y       z     vdW  Elec       q    Type
REMARK                         _______ _______ _______ _____ _____    ______ ____
ROOT
ATOM      1  N   UNL     1      11.992  21.490  30.344  0.00  0.00    +0.000 NA
ATOM      2  N   UNL     1      15.343  21.123  31.754  0.00  0.00    +0.000 NA
ATOM      3  C   UNL     1      13.390  19.505  30.532  0.00  0.00    +0.000 A 
ATOM      4  C   UNL     1      13.152  20.893  30.715  0.00  0.00    +0.000 A 
ATOM      5  C   UNL     1      14.616  18.973  30.979  0.00  0.00    +0.000 A 
ATOM      6  C   UNL     1      14.176  21.639  31.338  0.00  0.00    +0.000 A 
ATOM      7  C   UNL     1      15.541  19.805  31.570  0.00  0.00    +0.000 A 
ATOM      8  C   UNL     1      13.950  22.990  31.531  0.00  0.00    +0.000 A 
ATOM      9  C   UNL     1      11.801  22.818  30.538  0.00  0.00    +0.000 A 
ATOM     10  C   UNL     1      12.769  23.601  31.136  0.00  0.00    +0.000 A 
ENDROOT
BRANCH   9  13
ATOM     11 CL   UNL     1       9.325  26.557  27.971  0.00  0.00    +0.000 Cl
ATOM     12 CL   UNL     1       6.653  22.422  30.307  0.00  0.00    +0.000 Cl
ATOM     13  C   UNL     1      10.527  23.363  30.063  0.00  0.00    +0.000 A 
ATOM     14  C   UNL     1       9.307  22.740  30.348  0.00  0.00    +0.000 A 
ATOM     15  C   UNL     1      10.487  24.545  29.312  0.00  0.00    +0.000 A 
ATOM     16  C   UNL     1       9.284  25.088  28.868  0.00  0.00    +0.000 A 
ATOM     17  C   UNL     1       8.096  23.270  29.902  0.00  0.00    +0.000 A 
ATOM     18  C   UNL     1       8.079  24.451  29.159  0.00  0.00    +0.000 A 
BRANCH  18  19
ATOM     19  O   UNL     1       6.886  24.970  28.728  0.00  0.00    +0.000 OA
ATOM     20  H   UNL     1       7.051  25.482  27.915  0.00  0.00    +0.000 HD
ENDBRANCH  18  19
ENDBRANCH   9  13
BRANCH   5  21
ATOM     21  C   UNL     1      14.951  17.554  30.886  0.00  0.00    +0.000 C 
ATOM     22  O   UNL     1      14.205  16.637  31.187  0.00  0.00    +0.000 OA
ATOM     23  C   UNL     1      16.289  17.037  30.449  0.00  0.00    +0.000 C 
ENDBRANCH   5  21
BRANCH   3  24
ATOM     24  N   UNL     1      12.488  18.647  29.823  0.00  0.00    +0.000 N 
ATOM     25  H   UNL     1      12.933  18.058  29.114  0.00  0.00    +0.000 HD
BRANCH  24  26
ATOM     26  C   UNL     1      11.277  18.173  30.244  0.00  0.00    +0.000 A 
ATOM     27  C   UNL     1      10.095  18.732  29.639  0.00  0.00    +0.000 A 
ATOM     28  C   UNL     1       8.779  19.101  30.372  0.00  0.00    +0.000 A 
ATOM     29  C   UNL     1       8.552  18.943  31.788  0.00  0.00    +0.000 A 
ATOM     30  C   UNL     1       9.742  18.408  32.401  0.00  0.00    +0.000 A 
ATOM     31  C   UNL     1      11.054  18.042  31.664  0.00  0.00    +0.000 A 
BRANCH  29  32
ATOM     32  C   UNL     1       7.318  19.144  32.446  0.00  0.00    +0.000 C 
BRANCH  32  33
ATOM     33  N   UNL     1       6.045  19.365  33.110  0.00  0.00    +0.000 NA
ATOM     34  C   UNL     1       4.996  19.090  32.142  0.00  0.00    +0.000 C 
ATOM     35  C   UNL     1       5.965  20.780  33.434  0.00  0.00    +0.000 C 
ENDBRANCH  32  33
ENDBRANCH  29  32
ENDBRANCH  24  26
ENDBRANCH   3  24
TORSDOF 7
ENDMDL
MODEL 4
REMARK VINA RESULT:      -6.0      2.559      5.753
REMARK  Name = OTSSP167.pdbqt.pdb
REMARK  7 active torsions:
REMARK  status: ('A' for Active; 'I' for Inactive)
REMARK    1  A    between atoms: C_5  and  N_19
REMARK    2  A    between atoms: C_7  and  C_31
REMARK    3  A    between atoms: C_11  and  C_13
REMARK    4  A    between atoms: C_18  and  O_34
REMARK    5  A    between atoms: N_19  and  C_21
REMARK    6  A    between atoms: C_24  and  C_27
REMARK    7  A    between atoms: C_27  and  N_28
REMARK                            x       y       z     vdW  Elec       q    Type
REMARK                         _______ _______ _______ _____ _____    ______ ____
ROOT
ATOM      1  N   UNL     1      12.236  18.639  30.642  0.00  0.00    +0.000 NA
ATOM      2  N   UNL     1      13.432  15.187  30.569  0.00  0.00    +0.000 NA
ATOM      3  C   UNL     1      10.988  16.568  30.354  0.00  0.00    +0.000 A 
ATOM      4  C   UNL     1      12.199  17.287  30.537  0.00  0.00    +0.000 A 
ATOM      5  C   UNL     1      11.050  15.161  30.288  0.00  0.00    +0.000 A 
ATOM      6  C   UNL     1      13.383  16.527  30.640  0.00  0.00    +0.000 A 
ATOM      7  C   UNL     1      12.270  14.531  30.398  0.00  0.00    +0.000 A 
ATOM      8  C   UNL     1      14.567  17.217  30.830  0.00  0.00    +0.000 A 
ATOM      9  C   UNL     1      13.411  19.290  30.818  0.00  0.00    +0.000 A 
ATOM     10  C   UNL     1      14.604  18.601  30.920  0.00  0.00    +0.000 A 
ENDROOT
BRANCH   9  13
ATOM     11 CL   UNL     1      15.600  23.727  32.306  0.00  0.00    +0.000 Cl
ATOM     12 CL   UNL     1      10.774  23.613  29.778  0.00  0.00    +0.000 Cl
ATOM     13  C   UNL     1      13.337  20.752  30.878  0.00  0.00    +0.000 A 
ATOM     14  C   UNL     1      12.239  21.455  30.368  0.00  0.00    +0.000 A 
ATOM     15  C   UNL     1      14.365  21.500  31.465  0.00  0.00    +0.000 A 
ATOM     16  C   UNL     1      14.303  22.889  31.546  0.00  0.00    +0.000 A 
ATOM     17  C   UNL     1      12.168  22.847  30.438  0.00  0.00    +0.000 A 
ATOM     18  C   UNL     1      13.202  23.572  31.030  0.00  0.00    +0.000 A 
BRANCH  18  19
ATOM     19  O   UNL     1      13.126  24.938  31.100  0.00  0.00    +0.000 OA
ATOM     20  H   UNL     1      13.122  25.292  30.191  0.00  0.00    +0.000 HD
ENDBRANCH  18  19
ENDBRANCH   9  13
BRANCH   5  21
ATOM     21  C   UNL     1       9.866  14.316  30.148  0.00  0.00    +0.000 C 
ATOM     22  O   UNL     1       8.860  14.618  29.529  0.00  0.00    +0.000 OA
ATOM     23  C   UNL     1       9.716  12.973  30.796  0.00  0.00    +0.000 C 
ENDBRANCH   5  21
BRANCH   3  24
ATOM     24  N   UNL     1       9.727  17.209  30.129  0.00  0.00    +0.000 N 
ATOM     25  H   UNL     1       9.054  16.649  29.598  0.00  0.00    +0.000 HD
BRANCH  24  26
ATOM     26  C   UNL     1       9.144  18.198  30.873  0.00  0.00    +0.000 A 
ATOM     27  C   UNL     1       7.857  17.922  31.458  0.00  0.00    +0.000 A 
ATOM     28  C   UNL     1       6.660  18.904  31.537  0.00  0.00    +0.000 A 
ATOM     29  C   UNL     1       6.661  20.251  31.020  0.00  0.00    +0.000 A 
ATOM     30  C   UNL     1       7.939  20.521  30.410  0.00  0.00    +0.000 A 
ATOM     31  C   UNL     1       9.131  19.536  30.332  0.00  0.00    +0.000 A 
BRANCH  29  32
ATOM     32  C   UNL     1       5.631  21.199  31.205  0.00  0.00    +0.000 C 
BRANCH  32  33
ATOM     33  N   UNL     1       4.581  22.187  31.383  0.00  0.00    +0.000 NA
ATOM     34  C   UNL     1       3.420  21.726  30.638  0.00  0.00    +0.000 C 
ATOM     35  C   UNL     1       5.031  23.417  30.753  0.00  0.00    +0.000 C 
ENDBRANCH  32  33
ENDBRANCH  29  32
ENDBRANCH  24  26
ENDBRANCH   3  24
TORSDOF 7
ENDMDL
MODEL 5
REMARK VINA RESULT:      -5.7     16.048     19.826
REMARK  Name = OTSSP167.pdbqt.pdb
REMARK  7 active torsions:
REMARK  status: ('A' for Active; 'I' for Inactive)
REMARK    1  A    between atoms: C_5  and  N_19
REMARK    2  A    between atoms: C_7  and  C_31
REMARK    3  A    between atoms: C_11  and  C_13
REMARK    4  A    between atoms: C_18  and  O_34
REMARK    5  A    between atoms: N_19  and  C_21
REMARK    6  A    between atoms: C_24  and  C_27
REMARK    7  A    between atoms: C_27  and  N_28
REMARK                            x       y       z     vdW  Elec       q    Type
REMARK                         _______ _______ _______ _____ _____    ______ ____
ROOT
ATOM      1  N   UNL     1      27.206  12.104  21.811  0.00  0.00    +0.000 NA
ATOM      2  N   UNL     1      27.028   8.521  22.504  0.00  0.00    +0.000 NA
ATOM      3  C   UNL     1      25.635  10.867  23.200  0.00  0.00    +0.000 A 
ATOM      4  C   UNL     1      26.750  10.934  22.323  0.00  0.00    +0.000 A 
ATOM      5  C   UNL     1      25.258   9.605  23.705  0.00  0.00    +0.000 A 
ATOM      6  C   UNL     1      27.401   9.718  22.023  0.00  0.00    +0.000 A 
ATOM      7  C   UNL     1      25.970   8.486  23.334  0.00  0.00    +0.000 A 
ATOM      8  C   UNL     1      28.495   9.774  21.179  0.00  0.00    +0.000 A 
ATOM      9  C   UNL     1      28.275  12.129  20.978  0.00  0.00    +0.000 A 
ATOM     10  C   UNL     1      28.949  10.970  20.643  0.00  0.00    +0.000 A 
ENDROOT
BRANCH   9  13
ATOM     11 CL   UNL     1      30.117  14.896  17.023  0.00  0.00    +0.000 Cl
ATOM     12 CL   UNL     1      28.794  17.209  21.776  0.00  0.00    +0.000 Cl
ATOM     13  C   UNL     1      28.654  13.443  20.453  0.00  0.00    +0.000 A 
ATOM     14  C   UNL     1      28.568  14.601  21.234  0.00  0.00    +0.000 A 
ATOM     15  C   UNL     1      29.134  13.581  19.144  0.00  0.00    +0.000 A 
ATOM     16  C   UNL     1      29.516  14.820  18.634  0.00  0.00    +0.000 A 
ATOM     17  C   UNL     1      28.942  15.848  20.731  0.00  0.00    +0.000 A 
ATOM     18  C   UNL     1      29.421  15.963  19.426  0.00  0.00    +0.000 A 
BRANCH  18  19
ATOM     19  O   UNL     1      29.790  17.189  18.940  0.00  0.00    +0.000 OA
ATOM     20  H   UNL     1      30.582  17.072  18.382  0.00  0.00    +0.000 HD
ENDBRANCH  18  19
ENDBRANCH   9  13
BRANCH   5  21
ATOM     21  C   UNL     1      24.158   9.420  24.648  0.00  0.00    +0.000 C 
ATOM     22  O   UNL     1      23.011   9.796  24.469  0.00  0.00    +0.000 OA
ATOM     23  C   UNL     1      24.310   8.780  25.995  0.00  0.00    +0.000 C 
ENDBRANCH   5  21
BRANCH   3  24
ATOM     24  N   UNL     1      24.818  12.001  23.510  0.00  0.00    +0.000 N 
ATOM     25  H   UNL     1      23.875  11.966  23.112  0.00  0.00    +0.000 HD
BRANCH  24  26
ATOM     26  C   UNL     1      24.926  12.846  24.579  0.00  0.00    +0.000 A 
ATOM     27  C   UNL     1      23.758  13.033  25.402  0.00  0.00    +0.000 A 
ATOM     28  C   UNL     1      23.271  14.376  26.006  0.00  0.00    +0.000 A 
ATOM     29  C   UNL     1      23.922  15.650  25.817  0.00  0.00    +0.000 A 
ATOM     30  C   UNL     1      25.076  15.470  24.972  0.00  0.00    +0.000 A 
ATOM     31  C   UNL     1      25.557  14.127  24.371  0.00  0.00    +0.000 A 
BRANCH  29  32
ATOM     32  C   UNL     1      23.570  16.853  26.469  0.00  0.00    +0.000 C 
BRANCH  32  33
ATOM     33  N   UNL     1      23.200  18.096  27.123  0.00  0.00    +0.000 NA
ATOM     34  C   UNL     1      21.748  18.150  27.165  0.00  0.00    +0.000 C 
ATOM     35  C   UNL     1      23.643  19.184  26.268  0.00  0.00    +0.000 C 
ENDBRANCH  32  33
ENDBRANCH  29  32
ENDBRANCH  24  26
ENDBRANCH   3  24
TORSDOF 7
ENDMDL
MODEL 6
REMARK VINA RESULT:      -5.7      3.383      6.429
REMARK  Name = OTSSP167.pdbqt.pdb
REMARK  7 active torsions:
REMARK  status: ('A' for Active; 'I' for Inactive)
REMARK    1  A    between atoms: C_5  and  N_19
REMARK    2  A    between atoms: C_7  and  C_31
REMARK    3  A    between atoms: C_11  and  C_13
REMARK    4  A    between atoms: C_18  and  O_34
REMARK    5  A    between atoms: N_19  and  C_21
REMARK    6  A    between atoms: C_24  and  C_27
REMARK    7  A    between atoms: C_27  and  N_28
REMARK                            x       y       z     vdW  Elec       q    Type
REMARK                         _______ _______ _______ _____ _____    ______ ____
ROOT
ATOM      1  N   UNL     1      11.917  17.701  31.155  0.00  0.00    +0.000 NA
ATOM      2  N   UNL     1      11.175  14.224  30.311  0.00  0.00    +0.000 NA
ATOM      3  C   UNL     1       9.815  16.480  31.305  0.00  0.00    +0.000 A 
ATOM      4  C   UNL     1      11.196  16.565  30.981  0.00  0.00    +0.000 A 
ATOM      5  C   UNL     1       9.161  15.245  31.118  0.00  0.00    +0.000 A 
ATOM      6  C   UNL     1      11.811  15.393  30.492  0.00  0.00    +0.000 A 
ATOM      7  C   UNL     1       9.869  14.170  30.628  0.00  0.00    +0.000 A 
ATOM      8  C   UNL     1      13.157  15.462  30.184  0.00  0.00    +0.000 A 
ATOM      9  C   UNL     1      13.234  17.743  30.836  0.00  0.00    +0.000 A 
ATOM     10  C   UNL     1      13.888  16.630  30.347  0.00  0.00    +0.000 A 
ENDROOT
BRANCH   9  13
ATOM     11 CL   UNL     1      17.368  20.316  32.562  0.00  0.00    +0.000 Cl
ATOM     12 CL   UNL     1      13.106  22.887  30.343  0.00  0.00    +0.000 Cl
ATOM     13  C   UNL     1      13.902  19.033  31.026  0.00  0.00    +0.000 A 
ATOM     14  C   UNL     1      13.299  20.239  30.650  0.00  0.00    +0.000 A 
ATOM     15  C   UNL     1      15.174  19.103  31.610  0.00  0.00    +0.000 A 
ATOM     16  C   UNL     1      15.817  20.321  31.816  0.00  0.00    +0.000 A 
ATOM     17  C   UNL     1      13.937  21.465  30.845  0.00  0.00    +0.000 A 
ATOM     18  C   UNL     1      15.201  21.511  31.432  0.00  0.00    +0.000 A 
BRANCH  18  19
ATOM     19  O   UNL     1      15.820  22.718  31.625  0.00  0.00    +0.000 OA
ATOM     20  H   UNL     1      16.434  22.631  32.378  0.00  0.00    +0.000 HD
ENDBRANCH  18  19
ENDBRANCH   9  13
BRANCH   5  21
ATOM     21  C   UNL     1       7.757  15.026  31.460  0.00  0.00    +0.000 C 
ATOM     22  O   UNL     1       7.281  15.150  32.576  0.00  0.00    +0.000 OA
ATOM     23  C   UNL     1       6.720  14.570  30.479  0.00  0.00    +0.000 C 
ENDBRANCH   5  21
BRANCH   3  24
ATOM     24  N   UNL     1       9.039  17.612  31.711  0.00  0.00    +0.000 N 
ATOM     25  H   UNL     1       9.380  18.080  32.556  0.00  0.00    +0.000 HD
BRANCH  24  26
ATOM     26  C   UNL     1       8.243  18.407  30.934  0.00  0.00    +0.000 A 
ATOM     27  C   UNL     1       8.867  19.513  30.253  0.00  0.00    +0.000 A 
ATOM     28  C   UNL     1       8.277  20.938  30.092  0.00  0.00    +0.000 A 
ATOM     29  C   UNL     1       7.003  21.368  30.617  0.00  0.00    +0.000 A 
ATOM     30  C   UNL     1       6.388  20.270  31.321  0.00  0.00    +0.000 A 
ATOM     31  C   UNL     1       6.983  18.849  31.480  0.00  0.00    +0.000 A 
BRANCH  29  32
ATOM     32  C   UNL     1       6.393  22.616  30.363  0.00  0.00    +0.000 C 
BRANCH  32  33
ATOM     33  N   UNL     1       5.773  23.900  30.084  0.00  0.00    +0.000 NA
ATOM     34  C   UNL     1       4.405  23.641  29.666  0.00  0.00    +0.000 C 
ATOM     35  C   UNL     1       6.466  24.476  28.944  0.00  0.00    +0.000 C 
ENDBRANCH  32  33
ENDBRANCH  29  32
ENDBRANCH  24  26
ENDBRANCH   3  24
TORSDOF 7
ENDMDL
MODEL 7
REMARK VINA RESULT:      -5.7     11.972     14.544
REMARK  Name = OTSSP167.pdbqt.pdb
REMARK  7 active torsions:
REMARK  status: ('A' for Active; 'I' for Inactive)
REMARK    1  A    between atoms: C_5  and  N_19
REMARK    2  A    between atoms: C_7  and  C_31
REMARK    3  A    between atoms: C_11  and  C_13
REMARK    4  A    between atoms: C_18  and  O_34
REMARK    5  A    between atoms: N_19  and  C_21
REMARK    6  A    between atoms: C_24  and  C_27
REMARK    7  A    between atoms: C_27  and  N_28
REMARK                            x       y       z     vdW  Elec       q    Type
REMARK                         _______ _______ _______ _____ _____    ______ ____
ROOT
ATOM      1  N   UNL     1      22.416  18.224  28.927  0.00  0.00    +0.000 NA
ATOM      2  N   UNL     1      21.364  17.783  32.398  0.00  0.00    +0.000 NA
ATOM      3  C   UNL     1      22.598  16.270  30.369  0.00  0.00    +0.000 A 
ATOM      4  C   UNL     1      22.225  17.619  30.126  0.00  0.00    +0.000 A 
ATOM      5  C   UNL     1      22.328  15.722  31.640  0.00  0.00    +0.000 A 
ATOM      6  C   UNL     1      21.609  18.313  31.189  0.00  0.00    +0.000 A 
ATOM      7  C   UNL     1      21.724  16.502  32.601  0.00  0.00    +0.000 A 
ATOM      8  C   UNL     1      21.232  19.624  30.960  0.00  0.00    +0.000 A 
ATOM      9  C   UNL     1      22.046  19.513  28.733  0.00  0.00    +0.000 A 
ATOM     10  C   UNL     1      21.444  20.245  29.737  0.00  0.00    +0.000 A 
ENDROOT
BRANCH   9  13
ATOM     11 CL   UNL     1      22.473  18.736  23.643  0.00  0.00    +0.000 Cl
ATOM     12 CL   UNL     1      23.435  23.604  25.894  0.00  0.00    +0.000 Cl
ATOM     13  C   UNL     1      22.337  20.075  27.411  0.00  0.00    +0.000 A 
ATOM     14  C   UNL     1      22.706  21.416  27.246  0.00  0.00    +0.000 A 
ATOM     15  C   UNL     1      22.268  19.279  26.261  0.00  0.00    +0.000 A 
ATOM     16  C   UNL     1      22.559  19.792  24.999  0.00  0.00    +0.000 A 
ATOM     17  C   UNL     1      22.993  21.942  25.986  0.00  0.00    +0.000 A 
ATOM     18  C   UNL     1      22.922  21.130  24.854  0.00  0.00    +0.000 A 
BRANCH  18  19
ATOM     19  O   UNL     1      23.210  21.651  23.620  0.00  0.00    +0.000 OA
ATOM     20  H   UNL     1      23.866  21.073  23.188  0.00  0.00    +0.000 HD
ENDBRANCH  18  19
ENDBRANCH   9  13
BRANCH   5  21
ATOM     21  C   UNL     1      22.624  14.334  31.990  0.00  0.00    +0.000 C 
ATOM     22  O   UNL     1      23.743  13.873  32.138  0.00  0.00    +0.000 OA
ATOM     23  C   UNL     1      21.578  13.275  32.165  0.00  0.00    +0.000 C 
ENDBRANCH   5  21
BRANCH   3  24
ATOM     24  N   UNL     1      23.323  15.479  29.422  0.00  0.00    +0.000 N 
ATOM     25  H   UNL     1      24.267  15.217  29.722  0.00  0.00    +0.000 HD
BRANCH  24  26
ATOM     26  C   UNL     1      22.817  14.666  28.445  0.00  0.00    +0.000 A 
ATOM     27  C   UNL     1      23.270  13.299  28.414  0.00  0.00    +0.000 A 
ATOM     28  C   UNL     1      23.621  12.481  27.145  0.00  0.00    +0.000 A 
ATOM     29  C   UNL     1      23.552  12.983  25.794  0.00  0.00    +0.000 A 
ATOM     30  C   UNL     1      23.124  14.359  25.823  0.00  0.00    +0.000 A 
ATOM     31  C   UNL     1      22.776  15.172  27.095  0.00  0.00    +0.000 A 
BRANCH  29  32
ATOM     32  C   UNL     1      23.736  12.213  24.624  0.00  0.00    +0.000 C 
BRANCH  32  33
ATOM     33  N   UNL     1      23.940  11.414  23.429  0.00  0.00    +0.000 NA
ATOM     34  C   UNL     1      23.923  10.017  23.831  0.00  0.00    +0.000 C 
ATOM     35  C   UNL     1      25.278  11.700  22.939  0.00  0.00    +0.000 C 
ENDBRANCH  32  33
ENDBRANCH  29  32
ENDBRANCH  24  26
ENDBRANCH   3  24
TORSDOF 7
ENDMDL
MODEL 8
REMARK VINA RESULT:      -5.6     22.083     23.783
REMARK  Name = OTSSP167.pdbqt.pdb
REMARK  7 active torsions:
REMARK  status: ('A' for Active; 'I' for Inactive)
REMARK    1  A    between atoms: C_5  and  N_19
REMARK    2  A    between atoms: C_7  and  C_31
REMARK    3  A    between atoms: C_11  and  C_13
REMARK    4  A    between atoms: C_18  and  O_34
REMARK    5  A    between atoms: N_19  and  C_21
REMARK    6  A    between atoms: C_24  and  C_27
REMARK    7  A    between atoms: C_27  and  N_28
REMARK                            x       y       z     vdW  Elec       q    Type
REMARK                         _______ _______ _______ _____ _____    ______ ____
ROOT
ATOM      1  N   UNL     1      15.875  33.419  11.020  0.00  0.00    +0.000 NA
ATOM      2  N   UNL     1      16.876  30.359   9.292  0.00  0.00    +0.000 NA
ATOM      3  C   UNL     1      17.763  33.021   9.534  0.00  0.00    +0.000 A 
ATOM      4  C   UNL     1      16.607  32.588  10.237  0.00  0.00    +0.000 A 
ATOM      5  C   UNL     1      18.438  32.088   8.720  0.00  0.00    +0.000 A 
ATOM      6  C   UNL     1      16.221  31.241  10.064  0.00  0.00    +0.000 A 
ATOM      7  C   UNL     1      17.966  30.797   8.635  0.00  0.00    +0.000 A 
ATOM      8  C   UNL     1      15.091  30.812  10.736  0.00  0.00    +0.000 A 
ATOM      9  C   UNL     1      14.776  32.969  11.674  0.00  0.00    +0.000 A 
ATOM     10  C   UNL     1      14.354  31.660  11.549  0.00  0.00    +0.000 A 
ENDROOT
BRANCH   9  13
ATOM     11 CL   UNL     1      10.651  34.106  14.569  0.00  0.00    +0.000 Cl
ATOM     12 CL   UNL     1      14.695  37.677  13.806  0.00  0.00    +0.000 Cl
ATOM     13  C   UNL     1      14.086  33.944  12.523  0.00  0.00    +0.000 A 
ATOM     14  C   UNL     1      14.619  35.215  12.768  0.00  0.00    +0.000 A 
ATOM     15  C   UNL     1      12.852  33.637  13.111  0.00  0.00    +0.000 A 
ATOM     16  C   UNL     1      12.174  34.558  13.906  0.00  0.00    +0.000 A 
ATOM     17  C   UNL     1      13.951  36.143  13.568  0.00  0.00    +0.000 A 
ATOM     18  C   UNL     1      12.721  35.818  14.141  0.00  0.00    +0.000 A 
BRANCH  18  19
ATOM     19  O   UNL     1      12.068  36.735  14.921  0.00  0.00    +0.000 OA
ATOM     20  H   UNL     1      12.666  37.491  15.073  0.00  0.00    +0.000 HD
ENDBRANCH  18  19
ENDBRANCH   9  13
BRANCH   5  21
ATOM     21  C   UNL     1      19.608  32.431   7.916  0.00  0.00    +0.000 C 
ATOM     22  O   UNL     1      19.655  33.334   7.098  0.00  0.00    +0.000 OA
ATOM     23  C   UNL     1      20.903  31.677   7.959  0.00  0.00    +0.000 C 
ENDBRANCH   5  21
BRANCH   3  24
ATOM     24  N   UNL     1      18.329  34.326   9.695  0.00  0.00    +0.000 N 
ATOM     25  H   UNL     1      17.852  35.064   9.169  0.00  0.00    +0.000 HD
BRANCH  24  26
ATOM     26  C   UNL     1      19.066  34.797  10.747  0.00  0.00    +0.000 A 
ATOM     27  C   UNL     1      19.790  33.835  11.538  0.00  0.00    +0.000 A 
ATOM     28  C   UNL     1      19.928  33.840  13.082  0.00  0.00    +0.000 A 
ATOM     29  C   UNL     1      19.333  34.817  13.961  0.00  0.00    +0.000 A 
ATOM     30  C   UNL     1      18.585  35.766  13.174  0.00  0.00    +0.000 A 
ATOM     31  C   UNL     1      18.450  35.756  11.632  0.00  0.00    +0.000 A 
BRANCH  29  32
ATOM     32  C   UNL     1      19.561  34.914  15.352  0.00  0.00    +0.000 C 
BRANCH  32  33
ATOM     33  N   UNL     1      19.779  35.004  16.785  0.00  0.00    +0.000 NA
ATOM     34  C   UNL     1      18.751  35.878  17.327  0.00  0.00    +0.000 C 
ATOM     35  C   UNL     1      21.055  35.671  16.988  0.00  0.00    +0.000 C 
ENDBRANCH  32  33
ENDBRANCH  29  32
ENDBRANCH  24  26
ENDBRANCH   3  24
TORSDOF 7
ENDMDL
MODEL 9
REMARK VINA RESULT:      -5.5     10.836     13.979
REMARK  Name = OTSSP167.pdbqt.pdb
REMARK  7 active torsions:
REMARK  status: ('A' for Active; 'I' for Inactive)
REMARK    1  A    between atoms: C_5  and  N_19
REMARK    2  A    between atoms: C_7  and  C_31
REMARK    3  A    between atoms: C_11  and  C_13
REMARK    4  A    between atoms: C_18  and  O_34
REMARK    5  A    between atoms: N_19  and  C_21
REMARK    6  A    between atoms: C_24  and  C_27
REMARK    7  A    between atoms: C_27  and  N_28
REMARK                            x       y       z     vdW  Elec       q    Type
REMARK                         _______ _______ _______ _____ _____    ______ ____
ROOT
ATOM      1  N   UNL     1      23.198  20.604  26.580  0.00  0.00    +0.000 NA
ATOM      2  N   UNL     1      23.758  22.174  23.329  0.00  0.00    +0.000 NA
ATOM      3  C   UNL     1      24.343  22.683  26.036  0.00  0.00    +0.000 A 
ATOM      4  C   UNL     1      23.637  21.506  25.668  0.00  0.00    +0.000 A 
ATOM      5  C   UNL     1      24.730  23.575  25.015  0.00  0.00    +0.000 A 
ATOM      6  C   UNL     1      23.378  21.321  24.293  0.00  0.00    +0.000 A 
ATOM      7  C   UNL     1      24.422  23.282  23.706  0.00  0.00    +0.000 A 
ATOM      8  C   UNL     1      22.682  20.183  23.925  0.00  0.00    +0.000 A 
ATOM      9  C   UNL     1      22.526  19.493  26.191  0.00  0.00    +0.000 A 
ATOM     10  C   UNL     1      22.247  19.254  24.859  0.00  0.00    +0.000 A 
ENDROOT
BRANCH   9  13
ATOM     11 CL   UNL     1      20.188  18.806  30.747  0.00  0.00    +0.000 Cl
ATOM     12 CL   UNL     1      22.568  14.686  28.090  0.00  0.00    +0.000 Cl
ATOM     13  C   UNL     1      22.134  18.568  27.258  0.00  0.00    +0.000 A 
ATOM     14  C   UNL     1      22.471  17.210  27.216  0.00  0.00    +0.000 A 
ATOM     15  C   UNL     1      21.415  19.021  28.372  0.00  0.00    +0.000 A 
ATOM     16  C   UNL     1      21.050  18.160  29.404  0.00  0.00    +0.000 A 
ATOM     17  C   UNL     1      22.105  16.337  28.242  0.00  0.00    +0.000 A 
ATOM     18  C   UNL     1      21.392  16.810  29.344  0.00  0.00    +0.000 A 
BRANCH  18  19
ATOM     19  O   UNL     1      21.040  15.949  30.349  0.00  0.00    +0.000 OA
ATOM     20  H   UNL     1      20.811  16.476  31.138  0.00  0.00    +0.000 HD
ENDBRANCH  18  19
ENDBRANCH   9  13
BRANCH   5  21
ATOM     21  C   UNL     1      25.418  24.837  25.278  0.00  0.00    +0.000 C 
ATOM     22  O   UNL     1      26.503  24.942  25.826  0.00  0.00    +0.000 OA
ATOM     23  C   UNL     1      24.850  26.184  24.948  0.00  0.00    +0.000 C 
ENDBRANCH   5  21
BRANCH   3  24
ATOM     24  N   UNL     1      24.766  22.950  27.377  0.00  0.00    +0.000 N 
ATOM     25  H   UNL     1      25.756  23.194  27.469  0.00  0.00    +0.000 HD
BRANCH  24  26
ATOM     26  C   UNL     1      24.002  23.373  28.430  0.00  0.00    +0.000 A 
ATOM     27  C   UNL     1      23.817  22.460  29.529  0.00  0.00    +0.000 A 
ATOM     28  C   UNL     1      22.497  22.222  30.308  0.00  0.00    +0.000 A 
ATOM     29  C   UNL     1      21.245  22.885  30.032  0.00  0.00    +0.000 A 
ATOM     30  C   UNL     1      21.421  23.780  28.916  0.00  0.00    +0.000 A 
ATOM     31  C   UNL     1      22.741  24.013  28.140  0.00  0.00    +0.000 A 
BRANCH  29  32
ATOM     32  C   UNL     1      20.075  22.782  30.815  0.00  0.00    +0.000 C 
BRANCH  32  33
ATOM     33  N   UNL     1      18.877  22.691  31.632  0.00  0.00    +0.000 NA
ATOM     34  C   UNL     1      17.954  21.796  30.953  0.00  0.00    +0.000 C 
ATOM     35  C   UNL     1      18.261  24.007  31.648  0.00  0.00    +0.000 C 
ENDBRANCH  32  33
ENDBRANCH  29  32
ENDBRANCH  24  26
ENDBRANCH   3  24
TORSDOF 7
ENDMDL
