MODEL 1
REMARK VINA RESULT:      -5.6      0.000      0.000
REMARK  Name = 
REMARK  0 active torsions:
REMARK  status: ('A' for Active; 'I' for Inactive)
REMARK                            x       y       z     vdW  Elec       q    Type
REMARK                         _______ _______ _______ _____ _____    ______ ____
ROOT
ATOM      1  O   UNL     1      -2.490  26.678  13.894  0.00  0.00    +0.000 OA
ATOM      2  O   UNL     1      -2.777  30.960  16.849  0.00  0.00    +0.000 OA
ATOM      3  N   UNL     1      -1.388  25.975  14.297  0.00  0.00    +0.000 N 
ATOM      4  N   UNL     1      -2.372  28.683  16.747  0.00  0.00    +0.000 N 
ATOM      5  C   UNL     1      -0.839  26.451  15.656  0.00  0.00    +0.000 C 
ATOM      6  C   UNL     1      -1.836  26.252  16.814  0.00  0.00    +0.000 C 
ATOM      7  C   UNL     1      -0.307  27.889  15.621  0.00  0.00    +0.000 C 
ATOM      8  C   UNL     1      -2.960  27.326  16.816  0.00  0.00    +0.000 C 
ATOM      9  C   UNL     1      -2.310  24.787  16.843  0.00  0.00    +0.000 C 
ATOM     10  C   UNL     1      -1.438  28.916  15.641  0.00  0.00    +0.000 C 
ATOM     11  C   UNL     1      -1.775  24.516  14.406  0.00  0.00    +0.000 C 
ATOM     12  C   UNL     1       0.671  28.105  14.459  0.00  0.00    +0.000 C 
ATOM     13  C   UNL     1      -0.308  26.132  13.247  0.00  0.00    +0.000 C 
ATOM     14  C   UNL     1      -2.821  24.299  15.494  0.00  0.00    +0.000 C 
ATOM     15  C   UNL     1       0.148  27.580  13.127  0.00  0.00    +0.000 C 
ATOM     16  C   UNL     1      -3.876  27.155  18.038  0.00  0.00    +0.000 C 
ATOM     17  C   UNL     1      -4.858  28.308  18.124  0.00  0.00    +0.000 C 
ATOM     18  C   UNL     1      -3.059  29.812  17.198  0.00  0.00    +0.000 C 
ATOM     19  C   UNL     1      -4.089  29.599  18.285  0.00  0.00    +0.000 C 
ENDROOT
TORSDOF 0
ENDMDL
MODEL 2
REMARK VINA RESULT:      -5.4     20.850     21.743
REMARK  Name = 
REMARK  0 active torsions:
REMARK  status: ('A' for Active; 'I' for Inactive)
REMARK                            x       y       z     vdW  Elec       q    Type
REMARK                         _______ _______ _______ _____ _____    ______ ____
ROOT
ATOM      1  O   UNL     1      10.824  17.561  28.829  0.00  0.00    +0.000 OA
ATOM      2  O   UNL     1      13.624  21.921  29.371  0.00  0.00    +0.000 OA
ATOM      3  N   UNL     1      11.073  16.777  29.921  0.00  0.00    +0.000 N 
ATOM      4  N   UNL     1      12.271  20.335  30.375  0.00  0.00    +0.000 N 
ATOM      5  C   UNL     1      11.760  17.544  31.066  0.00  0.00    +0.000 C 
ATOM      6  C   UNL     1      10.893  18.686  31.634  0.00  0.00    +0.000 C 
ATOM      7  C   UNL     1      13.165  18.042  30.702  0.00  0.00    +0.000 C 
ATOM      8  C   UNL     1      10.885  19.936  30.709  0.00  0.00    +0.000 C 
ATOM      9  C   UNL     1       9.510  18.137  32.030  0.00  0.00    +0.000 C 
ATOM     10  C   UNL     1      13.116  19.280  29.807  0.00  0.00    +0.000 C 
ATOM     11  C   UNL     1       9.752  16.229  30.418  0.00  0.00    +0.000 C 
ATOM     12  C   UNL     1      14.030  16.919  30.116  0.00  0.00    +0.000 C 
ATOM     13  C   UNL     1      11.963  15.628  29.494  0.00  0.00    +0.000 C 
ATOM     14  C   UNL     1       8.841  17.346  30.915  0.00  0.00    +0.000 C 
ATOM     15  C   UNL     1      13.325  16.124  29.023  0.00  0.00    +0.000 C 
ATOM     16  C   UNL     1      10.093  21.085  31.353  0.00  0.00    +0.000 C 
ATOM     17  C   UNL     1      10.237  22.349  30.528  0.00  0.00    +0.000 C 
ATOM     18  C   UNL     1      12.593  21.636  29.983  0.00  0.00    +0.000 C 
ATOM     19  C   UNL     1      11.696  22.745  30.485  0.00  0.00    +0.000 C 
ENDROOT
TORSDOF 0
ENDMDL
MODEL 3
REMARK VINA RESULT:      -5.2     21.808     22.983
REMARK  Name = 
REMARK  0 active torsions:
REMARK  status: ('A' for Active; 'I' for Inactive)
REMARK                            x       y       z     vdW  Elec       q    Type
REMARK                         _______ _______ _______ _____ _____    ______ ____
ROOT
ATOM      1  O   UNL     1      11.746  19.197  32.693  0.00  0.00    +0.000 OA
ATOM      2  O   UNL     1      15.662  16.608  30.432  0.00  0.00    +0.000 OA
ATOM      3  N   UNL     1      11.320  20.148  31.808  0.00  0.00    +0.000 N 
ATOM      4  N   UNL     1      13.566  17.564  30.204  0.00  0.00    +0.000 N 
ATOM      5  C   UNL     1      11.846  19.916  30.379  0.00  0.00    +0.000 C 
ATOM      6  C   UNL     1      11.345  18.597  29.757  0.00  0.00    +0.000 C 
ATOM      7  C   UNL     1      13.371  20.038  30.270  0.00  0.00    +0.000 C 
ATOM      8  C   UNL     1      12.104  17.358  30.312  0.00  0.00    +0.000 C 
ATOM      9  C   UNL     1       9.809  18.535  29.844  0.00  0.00    +0.000 C 
ATOM     10  C   UNL     1      14.081  18.796  30.808  0.00  0.00    +0.000 C 
ATOM     11  C   UNL     1       9.806  20.125  31.786  0.00  0.00    +0.000 C 
ATOM     12  C   UNL     1      13.884  21.337  30.904  0.00  0.00    +0.000 C 
ATOM     13  C   UNL     1      11.794  21.502  32.293  0.00  0.00    +0.000 C 
ATOM     14  C   UNL     1       9.280  18.800  31.248  0.00  0.00    +0.000 C 
ATOM     15  C   UNL     1      13.315  21.592  32.294  0.00  0.00    +0.000 C 
ATOM     16  C   UNL     1      11.647  16.075  29.599  0.00  0.00    +0.000 C 
ATOM     17  C   UNL     1      12.512  14.904  30.021  0.00  0.00    +0.000 C 
ATOM     18  C   UNL     1      14.463  16.494  30.168  0.00  0.00    +0.000 C 
ATOM     19  C   UNL     1      13.944  15.182  29.624  0.00  0.00    +0.000 C 
ENDROOT
TORSDOF 0
ENDMDL
MODEL 4
REMARK VINA RESULT:      -5.2     32.139     33.610
REMARK  Name = 
REMARK  0 active torsions:
REMARK  status: ('A' for Active; 'I' for Inactive)
REMARK                            x       y       z     vdW  Elec       q    Type
REMARK                         _______ _______ _______ _____ _____    ______ ____
ROOT
ATOM      1  O   UNL     1      30.451  15.678  13.646  0.00  0.00    +0.000 OA
ATOM      2  O   UNL     1      27.841  11.382  15.015  0.00  0.00    +0.000 OA
ATOM      3  N   UNL     1      29.609  16.741  13.819  0.00  0.00    +0.000 N 
ATOM      4  N   UNL     1      28.346  13.591  15.486  0.00  0.00    +0.000 N 
ATOM      5  C   UNL     1      28.369  16.392  14.664  0.00  0.00    +0.000 C 
ATOM      6  C   UNL     1      28.719  15.974  16.106  0.00  0.00    +0.000 C 
ATOM      7  C   UNL     1      27.452  15.362  13.993  0.00  0.00    +0.000 C 
ATOM      8  C   UNL     1      29.265  14.520  16.182  0.00  0.00    +0.000 C 
ATOM      9  C   UNL     1      29.601  17.054  16.759  0.00  0.00    +0.000 C 
ATOM     10  C   UNL     1      28.012  13.944  14.103  0.00  0.00    +0.000 C 
ATOM     11  C   UNL     1      30.380  17.846  14.509  0.00  0.00    +0.000 C 
ATOM     12  C   UNL     1      27.113  15.757  12.550  0.00  0.00    +0.000 C 
ATOM     13  C   UNL     1      29.156  17.221  12.455  0.00  0.00    +0.000 C 
ATOM     14  C   UNL     1      30.808  17.431  15.911  0.00  0.00    +0.000 C 
ATOM     15  C   UNL     1      28.336  16.158  11.734  0.00  0.00    +0.000 C 
ATOM     16  C   UNL     1      29.509  14.105  17.641  0.00  0.00    +0.000 C 
ATOM     17  C   UNL     1      29.873  12.634  17.716  0.00  0.00    +0.000 C 
ATOM     18  C   UNL     1      28.309  12.226  15.782  0.00  0.00    +0.000 C 
ATOM     19  C   UNL     1      28.723  11.815  17.176  0.00  0.00    +0.000 C 
ENDROOT
TORSDOF 0
ENDMDL
MODEL 5
REMARK VINA RESULT:      -5.2     35.552     36.456
REMARK  Name = 
REMARK  0 active torsions:
REMARK  status: ('A' for Active; 'I' for Inactive)
REMARK                            x       y       z     vdW  Elec       q    Type
REMARK                         _______ _______ _______ _____ _____    ______ ____
ROOT
ATOM      1  O   UNL     1      21.606  -2.354  17.798  0.00  0.00    +0.000 OA
ATOM      2  O   UNL     1      20.961  -0.556  12.950  0.00  0.00    +0.000 OA
ATOM      3  N   UNL     1      20.989  -1.476  18.645  0.00  0.00    +0.000 N 
ATOM      4  N   UNL     1      20.020  -0.941  15.029  0.00  0.00    +0.000 N 
ATOM      5  C   UNL     1      20.042  -0.504  17.915  0.00  0.00    +0.000 C 
ATOM      6  C   UNL     1      18.865  -1.216  17.219  0.00  0.00    +0.000 C 
ATOM      7  C   UNL     1      20.771   0.439  16.951  0.00  0.00    +0.000 C 
ATOM      8  C   UNL     1      19.295  -1.902  15.891  0.00  0.00    +0.000 C 
ATOM      9  C   UNL     1      18.132  -2.116  18.230  0.00  0.00    +0.000 C 
ATOM     10  C   UNL     1      21.161  -0.265  15.652  0.00  0.00    +0.000 C 
ATOM     11  C   UNL     1      20.193  -2.276  19.654  0.00  0.00    +0.000 C 
ATOM     12  C   UNL     1      21.957   1.138  17.628  0.00  0.00    +0.000 C 
ATOM     13  C   UNL     1      22.055  -0.677  19.366  0.00  0.00    +0.000 C 
ATOM     14  C   UNL     1      19.068  -3.054  18.981  0.00  0.00    +0.000 C 
ATOM     15  C   UNL     1      22.859   0.181  18.397  0.00  0.00    +0.000 C 
ATOM     16  C   UNL     1      18.080  -2.516  15.177  0.00  0.00    +0.000 C 
ATOM     17  C   UNL     1      18.479  -3.027  13.805  0.00  0.00    +0.000 C 
ATOM     18  C   UNL     1      20.103  -1.105  13.644  0.00  0.00    +0.000 C 
ATOM     19  C   UNL     1      18.982  -1.867  12.976  0.00  0.00    +0.000 C 
ENDROOT
TORSDOF 0
ENDMDL
MODEL 6
REMARK VINA RESULT:      -5.1     21.423     22.349
REMARK  Name = 
REMARK  0 active torsions:
REMARK  status: ('A' for Active; 'I' for Inactive)
REMARK                            x       y       z     vdW  Elec       q    Type
REMARK                         _______ _______ _______ _____ _____    ______ ____
ROOT
ATOM      1  O   UNL     1      11.443  17.920  28.813  0.00  0.00    +0.000 OA
ATOM      2  O   UNL     1       7.034  16.989  31.429  0.00  0.00    +0.000 OA
ATOM      3  N   UNL     1      12.465  17.918  29.720  0.00  0.00    +0.000 N 
ATOM      4  N   UNL     1       9.267  16.464  31.120  0.00  0.00    +0.000 N 
ATOM      5  C   UNL     1      12.062  17.307  31.076  0.00  0.00    +0.000 C 
ATOM      6  C   UNL     1      11.668  15.820  30.975  0.00  0.00    +0.000 C 
ATOM      7  C   UNL     1      10.986  18.118  31.807  0.00  0.00    +0.000 C 
ATOM      8  C   UNL     1      10.242  15.626  30.386  0.00  0.00    +0.000 C 
ATOM      9  C   UNL     1      12.793  15.032  30.278  0.00  0.00    +0.000 C 
ATOM     10  C   UNL     1       9.597  17.890  31.212  0.00  0.00    +0.000 C 
ATOM     11  C   UNL     1      13.609  17.114  29.138  0.00  0.00    +0.000 C 
ATOM     12  C   UNL     1      11.357  19.605  31.895  0.00  0.00    +0.000 C 
ATOM     13  C   UNL     1      12.916  19.347  29.939  0.00  0.00    +0.000 C 
ATOM     14  C   UNL     1      13.222  15.652  28.954  0.00  0.00    +0.000 C 
ATOM     15  C   UNL     1      11.811  20.190  30.564  0.00  0.00    +0.000 C 
ATOM     16  C   UNL     1       9.847  14.141  30.393  0.00  0.00    +0.000 C 
ATOM     17  C   UNL     1       8.396  13.981  29.982  0.00  0.00    +0.000 C 
ATOM     18  C   UNL     1       7.904  16.162  31.148  0.00  0.00    +0.000 C 
ATOM     19  C   UNL     1       7.520  14.709  30.976  0.00  0.00    +0.000 C 
ENDROOT
TORSDOF 0
ENDMDL
MODEL 7
REMARK VINA RESULT:      -5.0     13.689     16.299
REMARK  Name = 
REMARK  0 active torsions:
REMARK  status: ('A' for Active; 'I' for Inactive)
REMARK                            x       y       z     vdW  Elec       q    Type
REMARK                         _______ _______ _______ _____ _____    ______ ____
ROOT
ATOM      1  O   UNL     1      -0.069  14.235   6.833  0.00  0.00    +0.000 OA
ATOM      2  O   UNL     1       0.672  11.667  11.306  0.00  0.00    +0.000 OA
ATOM      3  N   UNL     1       0.574  15.436   6.940  0.00  0.00    +0.000 N 
ATOM      4  N   UNL     1       1.585  12.994   9.644  0.00  0.00    +0.000 N 
ATOM      5  C   UNL     1       1.561  15.485   8.122  0.00  0.00    +0.000 C 
ATOM      6  C   UNL     1       2.715  14.472   7.987  0.00  0.00    +0.000 C 
ATOM      7  C   UNL     1       0.873  15.367   9.487  0.00  0.00    +0.000 C 
ATOM      8  C   UNL     1       2.269  13.022   8.331  0.00  0.00    +0.000 C 
ATOM      9  C   UNL     1       3.408  14.654   6.625  0.00  0.00    +0.000 C 
ATOM     10  C   UNL     1       0.465  13.927   9.797  0.00  0.00    +0.000 C 
ATOM     11  C   UNL     1       1.334  15.680   5.653  0.00  0.00    +0.000 C 
ATOM     12  C   UNL     1      -0.291  16.357   9.625  0.00  0.00    +0.000 C 
ATOM     13  C   UNL     1      -0.466  16.522   7.121  0.00  0.00    +0.000 C 
ATOM     14  C   UNL     1       2.434  14.644   5.454  0.00  0.00    +0.000 C 
ATOM     15  C   UNL     1      -1.233  16.347   8.426  0.00  0.00    +0.000 C 
ATOM     16  C   UNL     1       3.465  12.058   8.282  0.00  0.00    +0.000 C 
ATOM     17  C   UNL     1       3.056  10.688   8.786  0.00  0.00    +0.000 C 
ATOM     18  C   UNL     1       1.505  11.830  10.412  0.00  0.00    +0.000 C 
ATOM     19  C   UNL     1       2.602  10.807  10.223  0.00  0.00    +0.000 C 
ENDROOT
TORSDOF 0
ENDMDL
MODEL 8
REMARK VINA RESULT:      -4.9      2.117      4.785
REMARK  Name = 
REMARK  0 active torsions:
REMARK  status: ('A' for Active; 'I' for Inactive)
REMARK                            x       y       z     vdW  Elec       q    Type
REMARK                         _______ _______ _______ _____ _____    ______ ____
ROOT
ATOM      1  O   UNL     1      -3.702  26.384  18.754  0.00  0.00    +0.000 OA
ATOM      2  O   UNL     1       0.347  29.142  16.982  0.00  0.00    +0.000 OA
ATOM      3  N   UNL     1      -4.834  26.921  18.207  0.00  0.00    +0.000 N 
ATOM      4  N   UNL     1      -1.677  28.125  16.508  0.00  0.00    +0.000 N 
ATOM      5  C   UNL     1      -4.539  27.866  17.025  0.00  0.00    +0.000 C 
ATOM      6  C   UNL     1      -3.868  27.151  15.835  0.00  0.00    +0.000 C 
ATOM      7  C   UNL     1      -3.755  29.118  17.435  0.00  0.00    +0.000 C 
ATOM      8  C   UNL     1      -2.357  26.880  16.085  0.00  0.00    +0.000 C 
ATOM      9  C   UNL     1      -4.708  25.928  15.424  0.00  0.00    +0.000 C 
ATOM     10  C   UNL     1      -2.273  28.817  17.656  0.00  0.00    +0.000 C 
ATOM     11  C   UNL     1      -5.708  25.784  17.722  0.00  0.00    +0.000 C 
ATOM     12  C   UNL     1      -4.401  29.826  18.633  0.00  0.00    +0.000 C 
ATOM     13  C   UNL     1      -5.567  27.695  19.283  0.00  0.00    +0.000 C 
ATOM     14  C   UNL     1      -5.035  25.010  16.595  0.00  0.00    +0.000 C 
ATOM     15  C   UNL     1      -4.746  28.879  19.777  0.00  0.00    +0.000 C 
ATOM     16  C   UNL     1      -1.702  26.258  14.842  0.00  0.00    +0.000 C 
ATOM     17  C   UNL     1      -0.201  26.160  15.033  0.00  0.00    +0.000 C 
ATOM     18  C   UNL     1      -0.302  28.309  16.346  0.00  0.00    +0.000 C 
ATOM     19  C   UNL     1       0.363  27.550  15.221  0.00  0.00    +0.000 C 
ENDROOT
TORSDOF 0
ENDMDL
MODEL 9
REMARK VINA RESULT:      -4.9     14.912     17.862
REMARK  Name = 
REMARK  0 active torsions:
REMARK  status: ('A' for Active; 'I' for Inactive)
REMARK                            x       y       z     vdW  Elec       q    Type
REMARK                         _______ _______ _______ _____ _____    ______ ____
ROOT
ATOM      1  O   UNL     1       0.498  12.935   7.816  0.00  0.00    +0.000 OA
ATOM      2  O   UNL     1       4.184  11.055   4.649  0.00  0.00    +0.000 OA
ATOM      3  N   UNL     1       1.108  13.296   8.985  0.00  0.00    +0.000 N 
ATOM      4  N   UNL     1       3.571  12.676   6.183  0.00  0.00    +0.000 N 
ATOM      5  C   UNL     1       2.642  13.377   8.861  0.00  0.00    +0.000 C 
ATOM      6  C   UNL     1       3.110  14.456   7.864  0.00  0.00    +0.000 C 
ATOM      7  C   UNL     1       3.296  12.023   8.562  0.00  0.00    +0.000 C 
ATOM      8  C   UNL     1       2.946  14.003   6.385  0.00  0.00    +0.000 C 
ATOM      9  C   UNL     1       2.469  15.808   8.225  0.00  0.00    +0.000 C 
ATOM     10  C   UNL     1       3.128  11.620   7.098  0.00  0.00    +0.000 C 
ATOM     11  C   UNL     1       0.575  14.652   9.396  0.00  0.00    +0.000 C 
ATOM     12  C   UNL     1       2.821  10.936   9.536  0.00  0.00    +0.000 C 
ATOM     13  C   UNL     1       0.754  12.275  10.046  0.00  0.00    +0.000 C 
ATOM     14  C   UNL     1       0.957  15.727   8.386  0.00  0.00    +0.000 C 
ATOM     15  C   UNL     1       1.306  10.897   9.701  0.00  0.00    +0.000 C 
ATOM     16  C   UNL     1       3.513  15.061   5.425  0.00  0.00    +0.000 C 
ATOM     17  C   UNL     1       3.507  14.536   4.002  0.00  0.00    +0.000 C 
ATOM     18  C   UNL     1       3.995  12.242   4.926  0.00  0.00    +0.000 C 
ATOM     19  C   UNL     1       4.385  13.308   3.927  0.00  0.00    +0.000 C 
ENDROOT
TORSDOF 0
ENDMDL
