MODEL 1
REMARK VINA RESULT:      -5.8      0.000      0.000
REMARK  Name = 
REMARK  23 active torsions:
REMARK  status: ('A' for Active; 'I' for Inactive)
REMARK    1  A    between atoms: O_2  and  C_17
REMARK    2  A    between atoms: O_2  and  C_36
REMARK    3  A    between atoms: O_3  and  C_20
REMARK    4  A    between atoms: O_3  and  C_37
REMARK    5  A    between atoms: O_4  and  C_21
REMARK    6  A    between atoms: O_5  and  C_22
REMARK    7  A    between atoms: O_6  and  C_30
REMARK    8  A    between atoms: O_6  and  C_39
REMARK    9  A    between atoms: O_8  and  C_31
REMARK   10  A    between atoms: O_8  and  C_40
REMARK   11  A    between atoms: O_13  and  C_42
REMARK   12  A    between atoms: N_15  and  C_46
REMARK   13  A    between atoms: C_18  and  C_29
REMARK   14  A    between atoms: C_24  and  C_33
REMARK   15  A    between atoms: C_24  and  C_34
REMARK   16  A    between atoms: C_32  and  C_35
REMARK   17  A    between atoms: C_36  and  C_38
REMARK   18  A    between atoms: C_37  and  C_41
REMARK   19  A    between atoms: C_39  and  C_43
REMARK   20  A    between atoms: C_40  and  C_42
REMARK   21  A    between atoms: C_42  and  C_46
REMARK   22  A    between atoms: C_46  and  C_50
REMARK   23  A    between atoms: C_53  and  C_56
REMARK                            x       y       z     vdW  Elec       q    Type
REMARK                         _______ _______ _______ _____ _____    ______ ____
ROOT
ATOM      1  O   UNL     1       9.375  30.794  33.994  0.00  0.00    +0.000 OA
ATOM      2  O   UNL     1       9.643  24.477  36.112  0.00  0.00    +0.000 OA
ATOM      3  C   UNL     1      10.112  27.562  33.072  0.00  0.00    +0.000 C 
ATOM      4  C   UNL     1       9.318  28.899  33.001  0.00  0.00    +0.000 C 
ATOM      5  C   UNL     1       9.282  26.494  34.402  0.00  0.00    +0.000 C 
ATOM      6  C   UNL     1       9.723  29.450  34.428  0.00  0.00    +0.000 C 
ATOM      7  C   UNL     1      10.510  26.896  31.376  0.00  0.00    +0.000 C 
ATOM      8  C   UNL     1      11.323  25.416  30.518  0.00  0.00    +0.000 C 
ATOM      9  C   UNL     1       9.409  27.357  35.727  0.00  0.00    +0.000 C 
ATOM     10  C   UNL     1       8.983  28.851  35.602  0.00  0.00    +0.000 C 
ATOM     11  C   UNL     1      11.826  23.868  31.222  0.00  0.00    +0.000 C 
ATOM     12  C   UNL     1       9.804  30.359  32.646  0.00  0.00    +0.000 C 
ATOM     13  C   UNL     1       9.722  24.731  34.891  0.00  0.00    +0.000 C 
ATOM     14  C   UNL     1      10.259  24.895  29.447  0.00  0.00    +0.000 C 
ATOM     15  C   UNL     1      10.625  23.154  32.013  0.00  0.00    +0.000 C 
ATOM     16  C   UNL     1       7.713  26.384  34.202  0.00  0.00    +0.000 C 
ATOM     17  C   UNL     1      10.297  23.277  33.776  0.00  0.00    +0.000 C 
ATOM     18  C   UNL     1       9.307  23.680  29.853  0.00  0.00    +0.000 C 
ATOM     19  C   UNL     1       9.566  22.877  31.180  0.00  0.00    +0.000 C 
ATOM     20  C   UNL     1      12.215  22.913  29.985  0.00  0.00    +0.000 C 
ATOM     21  C   UNL     1      13.222  23.764  31.918  0.00  0.00    +0.000 C 
ATOM     22  C   UNL     1       8.423  21.983  31.593  0.00  0.00    +0.000 C 
ENDROOT
BRANCH   9  23
ATOM     23  O   UNL     1      10.769  27.347  36.159  0.00  0.00    +0.000 OA
ATOM     24  H   UNL     1      10.749  27.223  37.129  0.00  0.00    +0.000 HD
ENDBRANCH   9  23
BRANCH   8  25
ATOM     25  O   UNL     1      12.426  25.962  29.769  0.00  0.00    +0.000 OA
ATOM     26  H   UNL     1      12.484  26.917  29.948  0.00  0.00    +0.000 HD
ENDBRANCH   8  25
BRANCH  18  27
ATOM     27  O   UNL     1       7.943  24.187  29.937  0.00  0.00    +0.000 OA
BRANCH  27  29
ATOM     28  O   UNL     1       7.583  23.706  27.755  0.00  0.00    +0.000 OA
ATOM     29  C   UNL     1       7.136  23.958  28.869  0.00  0.00    +0.000 C 
BRANCH  29  30
ATOM     30  C   UNL     1       5.647  24.200  29.136  0.00  0.00    +0.000 C 
BRANCH  30  31
ATOM     31  O   UNL     1       5.229  25.569  29.080  0.00  0.00    +0.000 OA
ATOM     32  H   UNL     1       6.034  26.090  28.904  0.00  0.00    +0.000 HD
ENDBRANCH  30  31
BRANCH  30  33
ATOM     33  C   UNL     1       5.297  23.580  30.517  0.00  0.00    +0.000 C 
BRANCH  33  34
ATOM     34  C   UNL     1       4.494  22.298  30.342  0.00  0.00    +0.000 A 
ATOM     35  C   UNL     1       3.270  22.339  29.652  0.00  0.00    +0.000 A 
ATOM     36  C   UNL     1       4.921  21.073  30.878  0.00  0.00    +0.000 A 
ATOM     37  C   UNL     1       2.505  21.184  29.487  0.00  0.00    +0.000 A 
ATOM     38  C   UNL     1       4.156  19.918  30.710  0.00  0.00    +0.000 A 
ATOM     39  C   UNL     1       2.950  19.973  30.013  0.00  0.00    +0.000 A 
ENDBRANCH  33  34
BRANCH  33  41
ATOM     40  O   UNL     1       4.244  25.721  33.235  0.00  0.00    +0.000 OA
ATOM     41  N   UNL     1       4.567  24.549  31.345  0.00  0.00    +0.000 N 
ATOM     42  C   UNL     1       4.506  24.644  32.708  0.00  0.00    +0.000 C 
ATOM     43  H   UNL     1       4.305  25.405  30.864  0.00  0.00    +0.000 HD
BRANCH  42  44
ATOM     44  C   UNL     1       4.800  23.467  33.557  0.00  0.00    +0.000 A 
ATOM     45  C   UNL     1       6.104  23.169  33.963  0.00  0.00    +0.000 A 
ATOM     46  C   UNL     1       3.750  22.605  33.891  0.00  0.00    +0.000 A 
ATOM     47  C   UNL     1       6.346  22.044  34.755  0.00  0.00    +0.000 A 
ATOM     48  C   UNL     1       3.994  21.480  34.679  0.00  0.00    +0.000 A 
ATOM     49  C   UNL     1       5.290  21.207  35.118  0.00  0.00    +0.000 A 
ENDBRANCH  42  44
ENDBRANCH  33  41
ENDBRANCH  30  33
ENDBRANCH  29  30
ENDBRANCH  27  29
ENDBRANCH  18  27
BRANCH  17  50
ATOM     50  O   UNL     1      11.367  22.512  34.372  0.00  0.00    +0.000 OA
BRANCH  50  52
ATOM     51  O   UNL     1      12.133  20.669  35.384  0.00  0.00    +0.000 OA
ATOM     52  C   UNL     1      11.176  21.310  34.961  0.00  0.00    +0.000 C 
ATOM     53  C   UNL     1       9.782  20.760  34.996  0.00  0.00    +0.000 C 
ENDBRANCH  50  52
ENDBRANCH  17  50
BRANCH   7  54
ATOM     54  O   UNL     1       9.413  26.178  31.502  0.00  0.00    +0.000 OA
BRANCH  54  56
ATOM     55  O   UNL     1       7.587  26.663  30.820  0.00  0.00    +0.000 OA
ATOM     56  C   UNL     1       8.749  27.000  30.622  0.00  0.00    +0.000 C 
BRANCH  56  57
ATOM     57  C   UNL     1       9.612  28.064  29.285  0.00  0.00    +0.000 A 
ATOM     58  C   UNL     1      10.223  29.372  29.511  0.00  0.00    +0.000 A 
ATOM     59  C   UNL     1       9.900  27.697  27.935  0.00  0.00    +0.000 A 
ATOM     60  C   UNL     1      10.967  30.143  28.584  0.00  0.00    +0.000 A 
ATOM     61  C   UNL     1      10.644  28.457  26.989  0.00  0.00    +0.000 A 
ATOM     62  C   UNL     1      11.182  29.680  27.311  0.00  0.00    +0.000 A 
ENDBRANCH  56  57
ENDBRANCH  54  56
ENDBRANCH   7  54
BRANCH   4  63
ATOM     63  O   UNL     1       7.897  28.685  32.825  0.00  0.00    +0.000 OA
BRANCH  63  65
ATOM     64  O   UNL     1       6.957  29.860  31.171  0.00  0.00    +0.000 OA
ATOM     65  C   UNL     1       7.031  29.620  32.375  0.00  0.00    +0.000 C 
ATOM     66  C   UNL     1       6.256  30.437  33.359  0.00  0.00    +0.000 C 
ENDBRANCH  63  65
ENDBRANCH   4  63
TORSDOF 17
ENDMDL
MODEL 2
REMARK VINA RESULT:      -5.7     14.534     19.780
REMARK  Name = 
REMARK  23 active torsions:
REMARK  status: ('A' for Active; 'I' for Inactive)
REMARK    1  A    between atoms: O_2  and  C_17
REMARK    2  A    between atoms: O_2  and  C_36
REMARK    3  A    between atoms: O_3  and  C_20
REMARK    4  A    between atoms: O_3  and  C_37
REMARK    5  A    between atoms: O_4  and  C_21
REMARK    6  A    between atoms: O_5  and  C_22
REMARK    7  A    between atoms: O_6  and  C_30
REMARK    8  A    between atoms: O_6  and  C_39
REMARK    9  A    between atoms: O_8  and  C_31
REMARK   10  A    between atoms: O_8  and  C_40
REMARK   11  A    between atoms: O_13  and  C_42
REMARK   12  A    between atoms: N_15  and  C_46
REMARK   13  A    between atoms: C_18  and  C_29
REMARK   14  A    between atoms: C_24  and  C_33
REMARK   15  A    between atoms: C_24  and  C_34
REMARK   16  A    between atoms: C_32  and  C_35
REMARK   17  A    between atoms: C_36  and  C_38
REMARK   18  A    between atoms: C_37  and  C_41
REMARK   19  A    between atoms: C_39  and  C_43
REMARK   20  A    between atoms: C_40  and  C_42
REMARK   21  A    between atoms: C_42  and  C_46
REMARK   22  A    between atoms: C_46  and  C_50
REMARK   23  A    between atoms: C_53  and  C_56
REMARK                            x       y       z     vdW  Elec       q    Type
REMARK                         _______ _______ _______ _____ _____    ______ ____
ROOT
ATOM      1  O   UNL     1       2.486   7.426  27.094  0.00  0.00    +0.000 OA
ATOM      2  O   UNL     1      -3.851   7.288  25.028  0.00  0.00    +0.000 OA
ATOM      3  C   UNL     1       0.366   8.248  24.512  0.00  0.00    +0.000 C 
ATOM      4  C   UNL     1       1.377   8.557  25.655  0.00  0.00    +0.000 C 
ATOM      5  C   UNL     1      -1.362   8.211  25.294  0.00  0.00    +0.000 C 
ATOM      6  C   UNL     1       1.203   7.199  26.450  0.00  0.00    +0.000 C 
ATOM      7  C   UNL     1       0.733   9.234  22.972  0.00  0.00    +0.000 C 
ATOM      8  C   UNL     1       0.073   9.556  21.226  0.00  0.00    +0.000 C 
ATOM      9  C   UNL     1      -1.275   7.049  26.369  0.00  0.00    +0.000 C 
ATOM     10  C   UNL     1      -0.035   7.093  27.312  0.00  0.00    +0.000 C 
ATOM     11  C   UNL     1      -1.490   9.087  20.530  0.00  0.00    +0.000 C 
ATOM     12  C   UNL     1       2.880   8.106  25.841  0.00  0.00    +0.000 C 
ATOM     13  C   UNL     1      -3.009   7.978  24.415  0.00  0.00    +0.000 C 
ATOM     14  C   UNL     1      -0.033  11.144  21.087  0.00  0.00    +0.000 C 
ATOM     15  C   UNL     1      -2.719   9.591  21.431  0.00  0.00    +0.000 C 
ATOM     16  C   UNL     1      -1.655   9.492  26.182  0.00  0.00    +0.000 C 
ATOM     17  C   UNL     1      -3.564   8.635  22.697  0.00  0.00    +0.000 C 
ATOM     18  C   UNL     1      -1.444  11.837  21.362  0.00  0.00    +0.000 C 
ATOM     19  C   UNL     1      -2.738  10.962  21.541  0.00  0.00    +0.000 C 
ATOM     20  C   UNL     1      -1.599   9.843  19.112  0.00  0.00    +0.000 C 
ATOM     21  C   UNL     1      -1.659   7.653  19.932  0.00  0.00    +0.000 C 
ATOM     22  C   UNL     1      -3.919  11.713  22.104  0.00  0.00    +0.000 C 
ENDROOT
BRANCH   9  23
ATOM     23  O   UNL     1      -1.239   5.792  25.694  0.00  0.00    +0.000 OA
ATOM     24  H   UNL     1      -2.147   5.629  25.367  0.00  0.00    +0.000 HD
ENDBRANCH   9  23
BRANCH   8  25
ATOM     25  O   UNL     1       1.121   9.134  20.332  0.00  0.00    +0.000 OA
ATOM     26  H   UNL     1       0.790   8.399  19.787  0.00  0.00    +0.000 HD
ENDBRANCH   8  25
BRANCH  18  27
ATOM     27  O   UNL     1      -1.320  12.642  22.571  0.00  0.00    +0.000 OA
BRANCH  27  29
ATOM     28  O   UNL     1      -2.025  14.638  23.370  0.00  0.00    +0.000 OA
ATOM     29  C   UNL     1      -1.562  13.973  22.450  0.00  0.00    +0.000 C 
BRANCH  29  30
ATOM     30  C   UNL     1      -1.362  14.528  21.036  0.00  0.00    +0.000 C 
BRANCH  30  31
ATOM     31  O   UNL     1       0.001  14.652  20.614  0.00  0.00    +0.000 OA
ATOM     32  H   UNL     1      -0.025  14.758  19.645  0.00  0.00    +0.000 HD
ENDBRANCH  30  31
BRANCH  30  33
ATOM     33  C   UNL     1      -2.087  15.900  20.950  0.00  0.00    +0.000 C 
BRANCH  33  34
ATOM     34  C   UNL     1      -3.221  15.845  19.936  0.00  0.00    +0.000 A 
ATOM     35  C   UNL     1      -3.544  14.620  19.327  0.00  0.00    +0.000 A 
ATOM     36  C   UNL     1      -3.942  16.990  19.563  0.00  0.00    +0.000 A 
ATOM     37  C   UNL     1      -4.570  14.540  18.384  0.00  0.00    +0.000 A 
ATOM     38  C   UNL     1      -4.969  16.908  18.621  0.00  0.00    +0.000 A 
ATOM     39  C   UNL     1      -5.284  15.684  18.034  0.00  0.00    +0.000 A 
ENDBRANCH  33  34
BRANCH  33  41
ATOM     40  O   UNL     1       0.485  18.436  21.132  0.00  0.00    +0.000 OA
ATOM     41  N   UNL     1      -1.132  16.964  20.614  0.00  0.00    +0.000 N 
ATOM     42  C   UNL     1      -0.591  17.924  21.425  0.00  0.00    +0.000 C 
ATOM     43  H   UNL     1      -0.604  16.806  19.761  0.00  0.00    +0.000 HD
BRANCH  42  44
ATOM     44  C   UNL     1      -1.271  18.316  22.680  0.00  0.00    +0.000 A 
ATOM     45  C   UNL     1      -2.405  19.133  22.671  0.00  0.00    +0.000 A 
ATOM     46  C   UNL     1      -0.712  17.910  23.898  0.00  0.00    +0.000 A 
ATOM     47  C   UNL     1      -3.014  19.491  23.875  0.00  0.00    +0.000 A 
ATOM     48  C   UNL     1      -1.321  18.272  25.100  0.00  0.00    +0.000 A 
ATOM     49  C   UNL     1      -2.477  19.054  25.086  0.00  0.00    +0.000 A 
ENDBRANCH  42  44
ENDBRANCH  33  41
ENDBRANCH  30  33
ENDBRANCH  29  30
ENDBRANCH  27  29
ENDBRANCH  18  27
BRANCH  17  50
ATOM     50  O   UNL     1      -4.303   7.651  21.942  0.00  0.00    +0.000 OA
BRANCH  50  52
ATOM     51  O   UNL     1      -6.321   8.262  22.695  0.00  0.00    +0.000 OA
ATOM     52  C   UNL     1      -5.654   7.628  21.882  0.00  0.00    +0.000 C 
ATOM     53  C   UNL     1      -6.295   6.740  20.858  0.00  0.00    +0.000 C 
ENDBRANCH  50  52
ENDBRANCH  17  50
BRANCH   7  54
ATOM     54  O   UNL     1      -0.145  10.100  23.429  0.00  0.00    +0.000 OA
BRANCH  54  56
ATOM     55  O   UNL     1       1.843  10.371  23.344  0.00  0.00    +0.000 OA
ATOM     56  C   UNL     1       0.855  11.005  23.697  0.00  0.00    +0.000 C 
BRANCH  56  57
ATOM     57  C   UNL     1       0.603  12.626  24.682  0.00  0.00    +0.000 A 
ATOM     58  C   UNL     1      -0.334  12.805  25.789  0.00  0.00    +0.000 A 
ATOM     59  C   UNL     1       1.362  13.831  24.580  0.00  0.00    +0.000 A 
ATOM     60  C   UNL     1      -0.475  13.946  26.617  0.00  0.00    +0.000 A 
ATOM     61  C   UNL     1       1.234  14.988  25.400  0.00  0.00    +0.000 A 
ATOM     62  C   UNL     1       0.318  15.047  26.422  0.00  0.00    +0.000 A 
ENDBRANCH  56  57
ENDBRANCH  54  56
ENDBRANCH   7  54
BRANCH   4  63
ATOM     63  O   UNL     1       1.012   9.739  26.405  0.00  0.00    +0.000 OA
BRANCH  63  65
ATOM     64  O   UNL     1       1.534  10.095  28.550  0.00  0.00    +0.000 OA
ATOM     65  C   UNL     1       1.779  10.306  27.364  0.00  0.00    +0.000 C 
ATOM     66  C   UNL     1       2.845  11.278  26.971  0.00  0.00    +0.000 C 
ENDBRANCH  63  65
ENDBRANCH   4  63
TORSDOF 17
ENDMDL
MODEL 3
REMARK VINA RESULT:      -5.7     20.159     25.486
REMARK  Name = 
REMARK  23 active torsions:
REMARK  status: ('A' for Active; 'I' for Inactive)
REMARK    1  A    between atoms: O_2  and  C_17
REMARK    2  A    between atoms: O_2  and  C_36
REMARK    3  A    between atoms: O_3  and  C_20
REMARK    4  A    between atoms: O_3  and  C_37
REMARK    5  A    between atoms: O_4  and  C_21
REMARK    6  A    between atoms: O_5  and  C_22
REMARK    7  A    between atoms: O_6  and  C_30
REMARK    8  A    between atoms: O_6  and  C_39
REMARK    9  A    between atoms: O_8  and  C_31
REMARK   10  A    between atoms: O_8  and  C_40
REMARK   11  A    between atoms: O_13  and  C_42
REMARK   12  A    between atoms: N_15  and  C_46
REMARK   13  A    between atoms: C_18  and  C_29
REMARK   14  A    between atoms: C_24  and  C_33
REMARK   15  A    between atoms: C_24  and  C_34
REMARK   16  A    between atoms: C_32  and  C_35
REMARK   17  A    between atoms: C_36  and  C_38
REMARK   18  A    between atoms: C_37  and  C_41
REMARK   19  A    between atoms: C_39  and  C_43
REMARK   20  A    between atoms: C_40  and  C_42
REMARK   21  A    between atoms: C_42  and  C_46
REMARK   22  A    between atoms: C_46  and  C_50
REMARK   23  A    between atoms: C_53  and  C_56
REMARK                            x       y       z     vdW  Elec       q    Type
REMARK                         _______ _______ _______ _____ _____    ______ ____
ROOT
ATOM      1  O   UNL     1      24.558   4.955  27.493  0.00  0.00    +0.000 OA
ATOM      2  O   UNL     1      26.986  10.140  30.911  0.00  0.00    +0.000 OA
ATOM      3  C   UNL     1      24.466   8.379  27.824  0.00  0.00    +0.000 C 
ATOM      4  C   UNL     1      24.746   7.045  27.072  0.00  0.00    +0.000 C 
ATOM      5  C   UNL     1      26.031   8.796  28.812  0.00  0.00    +0.000 C 
ATOM      6  C   UNL     1      24.815   6.106  28.344  0.00  0.00    +0.000 C 
ATOM      7  C   UNL     1      23.623   9.633  26.731  0.00  0.00    +0.000 C 
ATOM      8  C   UNL     1      22.991  11.418  26.739  0.00  0.00    +0.000 C 
ATOM      9  C   UNL     1      26.211   7.563  29.793  0.00  0.00    +0.000 C 
ATOM     10  C   UNL     1      26.104   6.155  29.132  0.00  0.00    +0.000 C 
ATOM     11  C   UNL     1      23.282  12.690  27.941  0.00  0.00    +0.000 C 
ATOM     12  C   UNL     1      23.763   5.880  26.656  0.00  0.00    +0.000 C 
ATOM     13  C   UNL     1      26.350  10.331  29.852  0.00  0.00    +0.000 C 
ATOM     14  C   UNL     1      23.630  12.112  25.450  0.00  0.00    +0.000 C 
ATOM     15  C   UNL     1      24.849  12.908  28.211  0.00  0.00    +0.000 C 
ATOM     16  C   UNL     1      27.344   8.737  27.926  0.00  0.00    +0.000 C 
ATOM     17  C   UNL     1      25.814  12.146  29.523  0.00  0.00    +0.000 C 
ATOM     18  C   UNL     1      24.968  12.963  25.630  0.00  0.00    +0.000 C 
ATOM     19  C   UNL     1      25.511  13.295  27.069  0.00  0.00    +0.000 C 
ATOM     20  C   UNL     1      22.715  14.056  27.301  0.00  0.00    +0.000 C 
ATOM     21  C   UNL     1      22.382  12.754  29.217  0.00  0.00    +0.000 C 
ATOM     22  C   UNL     1      26.926  13.817  27.090  0.00  0.00    +0.000 C 
ENDROOT
BRANCH   9  23
ATOM     23  O   UNL     1      25.208   7.623  30.806  0.00  0.00    +0.000 OA
ATOM     24  H   UNL     1      24.354   7.454  30.358  0.00  0.00    +0.000 HD
ENDBRANCH   9  23
BRANCH   8  25
ATOM     25  O   UNL     1      21.574  11.328  26.497  0.00  0.00    +0.000 OA
ATOM     26  H   UNL     1      21.247  12.203  26.223  0.00  0.00    +0.000 HD
ENDBRANCH   8  25
BRANCH  18  27
ATOM     27  O   UNL     1      26.042  12.264  24.936  0.00  0.00    +0.000 OA
BRANCH  27  29
ATOM     28  O   UNL     1      25.915  12.235  22.677  0.00  0.00    +0.000 OA
ATOM     29  C   UNL     1      26.377  12.723  23.703  0.00  0.00    +0.000 C 
BRANCH  29  30
ATOM     30  C   UNL     1      27.489  13.776  23.698  0.00  0.00    +0.000 C 
BRANCH  30  31
ATOM     31  O   UNL     1      27.071  15.106  23.370  0.00  0.00    +0.000 OA
ATOM     32  H   UNL     1      27.736  15.453  22.747  0.00  0.00    +0.000 HD
ENDBRANCH  30  31
BRANCH  30  33
ATOM     33  C   UNL     1      28.602  13.299  22.725  0.00  0.00    +0.000 C 
BRANCH  33  34
ATOM     34  C   UNL     1      29.759  12.678  23.495  0.00  0.00    +0.000 A 
ATOM     35  C   UNL     1      30.833  12.109  22.788  0.00  0.00    +0.000 A 
ATOM     36  C   UNL     1      29.776  12.624  24.898  0.00  0.00    +0.000 A 
ATOM     37  C   UNL     1      31.901  11.520  23.467  0.00  0.00    +0.000 A 
ATOM     38  C   UNL     1      30.846  12.037  25.574  0.00  0.00    +0.000 A 
ATOM     39  C   UNL     1      31.909  11.487  24.859  0.00  0.00    +0.000 A 
ENDBRANCH  33  34
BRANCH  33  41
ATOM     40  O   UNL     1      29.022  15.668  20.025  0.00  0.00    +0.000 OA
ATOM     41  N   UNL     1      29.065  14.415  21.889  0.00  0.00    +0.000 N 
ATOM     42  C   UNL     1      29.018  14.549  20.528  0.00  0.00    +0.000 C 
ATOM     43  H   UNL     1      29.179  15.295  22.382  0.00  0.00    +0.000 HD
BRANCH  42  44
ATOM     44  C   UNL     1      28.915  13.355  19.659  0.00  0.00    +0.000 A 
ATOM     45  C   UNL     1      29.304  13.394  18.317  0.00  0.00    +0.000 A 
ATOM     46  C   UNL     1      28.347  12.190  20.189  0.00  0.00    +0.000 A 
ATOM     47  C   UNL     1      29.182  12.251  17.525  0.00  0.00    +0.000 A 
ATOM     48  C   UNL     1      28.224  11.051  19.394  0.00  0.00    +0.000 A 
ATOM     49  C   UNL     1      28.651  11.080  18.066  0.00  0.00    +0.000 A 
ENDBRANCH  42  44
ENDBRANCH  33  41
ENDBRANCH  30  33
ENDBRANCH  29  30
ENDBRANCH  27  29
ENDBRANCH  18  27
BRANCH  17  50
ATOM     50  O   UNL     1      25.344  12.810  30.716  0.00  0.00    +0.000 OA
BRANCH  50  52
ATOM     51  O   UNL     1      26.735  13.331  32.390  0.00  0.00    +0.000 OA
ATOM     52  C   UNL     1      26.093  13.696  31.411  0.00  0.00    +0.000 C 
ATOM     53  C   UNL     1      26.036  15.137  30.998  0.00  0.00    +0.000 C 
ENDBRANCH  50  52
ENDBRANCH  17  50
BRANCH   7  54
ATOM     54  O   UNL     1      24.832  10.096  26.489  0.00  0.00    +0.000 OA
BRANCH  54  56
ATOM     55  O   UNL     1      23.634   9.195  25.151  0.00  0.00    +0.000 OA
ATOM     56  C   UNL     1      24.797   9.577  25.216  0.00  0.00    +0.000 C 
BRANCH  56  57
ATOM     57  C   UNL     1      26.345   9.303  24.125  0.00  0.00    +0.000 A 
ATOM     58  C   UNL     1      27.730   9.431  24.575  0.00  0.00    +0.000 A 
ATOM     59  C   UNL     1      26.387   8.815  22.783  0.00  0.00    +0.000 A 
ATOM     60  C   UNL     1      28.903   9.130  23.839  0.00  0.00    +0.000 A 
ATOM     61  C   UNL     1      27.554   8.509  22.027  0.00  0.00    +0.000 A 
ATOM     62  C   UNL     1      28.814   8.662  22.554  0.00  0.00    +0.000 A 
ENDBRANCH  56  57
ENDBRANCH  54  56
ENDBRANCH   7  54
BRANCH   4  63
ATOM     63  O   UNL     1      25.969   7.096  26.301  0.00  0.00    +0.000 OA
BRANCH  63  65
ATOM     64  O   UNL     1      25.634   5.924  24.426  0.00  0.00    +0.000 OA
ATOM     65  C   UNL     1      26.347   6.161  25.399  0.00  0.00    +0.000 C 
ATOM     66  C   UNL     1      27.571   5.343  25.659  0.00  0.00    +0.000 C 
ENDBRANCH  63  65
ENDBRANCH   4  63
TORSDOF 17
ENDMDL
MODEL 4
REMARK VINA RESULT:      -5.6      3.145      8.089
REMARK  Name = 
REMARK  23 active torsions:
REMARK  status: ('A' for Active; 'I' for Inactive)
REMARK    1  A    between atoms: O_2  and  C_17
REMARK    2  A    between atoms: O_2  and  C_36
REMARK    3  A    between atoms: O_3  and  C_20
REMARK    4  A    between atoms: O_3  and  C_37
REMARK    5  A    between atoms: O_4  and  C_21
REMARK    6  A    between atoms: O_5  and  C_22
REMARK    7  A    between atoms: O_6  and  C_30
REMARK    8  A    between atoms: O_6  and  C_39
REMARK    9  A    between atoms: O_8  and  C_31
REMARK   10  A    between atoms: O_8  and  C_40
REMARK   11  A    between atoms: O_13  and  C_42
REMARK   12  A    between atoms: N_15  and  C_46
REMARK   13  A    between atoms: C_18  and  C_29
REMARK   14  A    between atoms: C_24  and  C_33
REMARK   15  A    between atoms: C_24  and  C_34
REMARK   16  A    between atoms: C_32  and  C_35
REMARK   17  A    between atoms: C_36  and  C_38
REMARK   18  A    between atoms: C_37  and  C_41
REMARK   19  A    between atoms: C_39  and  C_43
REMARK   20  A    between atoms: C_40  and  C_42
REMARK   21  A    between atoms: C_42  and  C_46
REMARK   22  A    between atoms: C_46  and  C_50
REMARK   23  A    between atoms: C_53  and  C_56
REMARK                            x       y       z     vdW  Elec       q    Type
REMARK                         _______ _______ _______ _____ _____    ______ ____
ROOT
ATOM      1  O   UNL     1       3.296  23.716  30.730  0.00  0.00    +0.000 OA
ATOM      2  O   UNL     1       7.638  27.188  34.411  0.00  0.00    +0.000 OA
ATOM      3  C   UNL     1       6.415  25.170  30.749  0.00  0.00    +0.000 C 
ATOM      4  C   UNL     1       5.419  23.977  30.656  0.00  0.00    +0.000 C 
ATOM      5  C   UNL     1       6.801  25.427  32.589  0.00  0.00    +0.000 C 
ATOM      6  C   UNL     1       4.185  24.690  31.344  0.00  0.00    +0.000 C 
ATOM      7  C   UNL     1       7.761  25.057  29.463  0.00  0.00    +0.000 C 
ATOM      8  C   UNL     1       9.332  25.940  28.881  0.00  0.00    +0.000 C 
ATOM      9  C   UNL     1       5.390  25.750  33.239  0.00  0.00    +0.000 C 
ATOM     10  C   UNL     1       4.232  24.782  32.852  0.00  0.00    +0.000 C 
ATOM     11  C   UNL     1      10.241  27.229  29.692  0.00  0.00    +0.000 C 
ATOM     12  C   UNL     1       4.267  23.685  29.615  0.00  0.00    +0.000 C 
ATOM     13  C   UNL     1       8.009  26.657  33.342  0.00  0.00    +0.000 C 
ATOM     14  C   UNL     1      10.463  24.814  28.811  0.00  0.00    +0.000 C 
ATOM     15  C   UNL     1      10.643  26.824  31.192  0.00  0.00    +0.000 C 
ATOM     16  C   UNL     1       7.224  24.083  33.315  0.00  0.00    +0.000 C 
ATOM     17  C   UNL     1       9.720  27.227  32.681  0.00  0.00    +0.000 C 
ATOM     18  C   UNL     1      11.447  24.647  30.056  0.00  0.00    +0.000 C 
ATOM     19  C   UNL     1      11.447  25.708  31.217  0.00  0.00    +0.000 C 
ATOM     20  C   UNL     1      11.612  27.406  28.864  0.00  0.00    +0.000 C 
ATOM     21  C   UNL     1       9.783  28.713  29.514  0.00  0.00    +0.000 C 
ATOM     22  C   UNL     1      12.179  25.265  32.459  0.00  0.00    +0.000 C 
ENDROOT
BRANCH   9  23
ATOM     23  O   UNL     1       4.986  27.061  32.845  0.00  0.00    +0.000 OA
ATOM     24  H   UNL     1       5.758  27.465  32.401  0.00  0.00    +0.000 HD
ENDBRANCH   9  23
BRANCH   8  25
ATOM     25  O   UNL     1       9.069  26.344  27.524  0.00  0.00    +0.000 OA
ATOM     26  H   UNL     1       8.482  27.120  27.537  0.00  0.00    +0.000 HD
ENDBRANCH   8  25
BRANCH  18  27
ATOM     27  O   UNL     1      11.172  23.357  30.676  0.00  0.00    +0.000 OA
BRANCH  27  29
ATOM     28  O   UNL     1      12.802  22.306  29.510  0.00  0.00    +0.000 OA
ATOM     29  C   UNL     1      12.109  22.387  30.519  0.00  0.00    +0.000 C 
BRANCH  29  30
ATOM     30  C   UNL     1      12.113  21.324  31.622  0.00  0.00    +0.000 C 
BRANCH  30  31
ATOM     31  O   UNL     1      11.890  21.816  32.948  0.00  0.00    +0.000 OA
ATOM     32  H   UNL     1      12.771  22.033  33.307  0.00  0.00    +0.000 HD
ENDBRANCH  30  31
BRANCH  30  33
ATOM     33  C   UNL     1      13.461  20.554  31.545  0.00  0.00    +0.000 C 
BRANCH  33  34
ATOM     34  C   UNL     1      13.274  19.213  30.848  0.00  0.00    +0.000 A 
ATOM     35  C   UNL     1      14.358  18.323  30.762  0.00  0.00    +0.000 A 
ATOM     36  C   UNL     1      12.056  18.845  30.256  0.00  0.00    +0.000 A 
ATOM     37  C   UNL     1      14.222  17.093  30.118  0.00  0.00    +0.000 A 
ATOM     38  C   UNL     1      11.921  17.614  29.614  0.00  0.00    +0.000 A 
ATOM     39  C   UNL     1      13.002  16.737  29.547  0.00  0.00    +0.000 A 
ENDBRANCH  33  34
BRANCH  33  41
ATOM     40  O   UNL     1      15.291  21.024  34.629  0.00  0.00    +0.000 OA
ATOM     41  N   UNL     1      14.026  20.375  32.889  0.00  0.00    +0.000 N 
ATOM     42  C   UNL     1      15.179  20.890  33.414  0.00  0.00    +0.000 C 
ATOM     43  H   UNL     1      13.360  20.066  33.591  0.00  0.00    +0.000 HD
BRANCH  42  44
ATOM     44  C   UNL     1      16.278  21.330  32.524  0.00  0.00    +0.000 A 
ATOM     45  C   UNL     1      17.169  20.414  31.957  0.00  0.00    +0.000 A 
ATOM     46  C   UNL     1      16.457  22.703  32.313  0.00  0.00    +0.000 A 
ATOM     47  C   UNL     1      18.199  20.867  31.131  0.00  0.00    +0.000 A 
ATOM     48  C   UNL     1      17.489  23.153  31.490  0.00  0.00    +0.000 A 
ATOM     49  C   UNL     1      18.352  22.234  30.892  0.00  0.00    +0.000 A 
ENDBRANCH  42  44
ENDBRANCH  33  41
ENDBRANCH  30  33
ENDBRANCH  29  30
ENDBRANCH  27  29
ENDBRANCH  18  27
BRANCH  17  50
ATOM     50  O   UNL     1       9.926  28.649  32.831  0.00  0.00    +0.000 OA
BRANCH  50  52
ATOM     51  O   UNL     1      10.065  29.979  34.626  0.00  0.00    +0.000 OA
ATOM     52  C   UNL     1      10.614  29.190  33.862  0.00  0.00    +0.000 C 
ATOM     53  C   UNL     1      12.072  28.865  33.980  0.00  0.00    +0.000 C 
ENDBRANCH  50  52
ENDBRANCH  17  50
BRANCH   7  54
ATOM     54  O   UNL     1       8.476  24.468  30.398  0.00  0.00    +0.000 OA
BRANCH  54  56
ATOM     55  O   UNL     1       7.903  23.613  28.673  0.00  0.00    +0.000 OA
ATOM     56  C   UNL     1       8.361  23.259  29.754  0.00  0.00    +0.000 C 
BRANCH  56  57
ATOM     57  C   UNL     1       8.578  21.560  30.609  0.00  0.00    +0.000 A 
ATOM     58  C   UNL     1       8.701  21.349  32.050  0.00  0.00    +0.000 A 
ATOM     59  C   UNL     1       8.520  20.269  30.002  0.00  0.00    +0.000 A 
ATOM     60  C   UNL     1       8.750  20.109  32.734  0.00  0.00    +0.000 A 
ATOM     61  C   UNL     1       8.570  19.013  30.671  0.00  0.00    +0.000 A 
ATOM     62  C   UNL     1       8.681  18.930  32.038  0.00  0.00    +0.000 A 
ENDBRANCH  56  57
ENDBRANCH  54  56
ENDBRANCH   7  54
BRANCH   4  63
ATOM     63  O   UNL     1       5.899  22.805  31.357  0.00  0.00    +0.000 OA
BRANCH  63  65
ATOM     64  O   UNL     1       5.096  20.970  30.365  0.00  0.00    +0.000 OA
ATOM     65  C   UNL     1       5.253  21.618  31.398  0.00  0.00    +0.000 C 
ATOM     66  C   UNL     1       4.634  21.162  32.680  0.00  0.00    +0.000 C 
ENDBRANCH  63  65
ENDBRANCH   4  63
TORSDOF 17
ENDMDL
MODEL 5
REMARK VINA RESULT:      -5.6     20.781     25.504
REMARK  Name = 
REMARK  23 active torsions:
REMARK  status: ('A' for Active; 'I' for Inactive)
REMARK    1  A    between atoms: O_2  and  C_17
REMARK    2  A    between atoms: O_2  and  C_36
REMARK    3  A    between atoms: O_3  and  C_20
REMARK    4  A    between atoms: O_3  and  C_37
REMARK    5  A    between atoms: O_4  and  C_21
REMARK    6  A    between atoms: O_5  and  C_22
REMARK    7  A    between atoms: O_6  and  C_30
REMARK    8  A    between atoms: O_6  and  C_39
REMARK    9  A    between atoms: O_8  and  C_31
REMARK   10  A    between atoms: O_8  and  C_40
REMARK   11  A    between atoms: O_13  and  C_42
REMARK   12  A    between atoms: N_15  and  C_46
REMARK   13  A    between atoms: C_18  and  C_29
REMARK   14  A    between atoms: C_24  and  C_33
REMARK   15  A    between atoms: C_24  and  C_34
REMARK   16  A    between atoms: C_32  and  C_35
REMARK   17  A    between atoms: C_36  and  C_38
REMARK   18  A    between atoms: C_37  and  C_41
REMARK   19  A    between atoms: C_39  and  C_43
REMARK   20  A    between atoms: C_40  and  C_42
REMARK   21  A    between atoms: C_42  and  C_46
REMARK   22  A    between atoms: C_46  and  C_50
REMARK   23  A    between atoms: C_53  and  C_56
REMARK                            x       y       z     vdW  Elec       q    Type
REMARK                         _______ _______ _______ _____ _____    ______ ____
ROOT
ATOM      1  O   UNL     1      31.703  11.542  18.560  0.00  0.00    +0.000 OA
ATOM      2  O   UNL     1      29.943  16.924  22.080  0.00  0.00    +0.000 OA
ATOM      3  C   UNL     1      30.393  12.624  21.553  0.00  0.00    +0.000 C 
ATOM      4  C   UNL     1      30.359  11.864  20.194  0.00  0.00    +0.000 C 
ATOM      5  C   UNL     1      29.841  14.405  21.206  0.00  0.00    +0.000 C 
ATOM      6  C   UNL     1      31.547  12.643  19.497  0.00  0.00    +0.000 C 
ATOM      7  C   UNL     1      29.658  11.612  22.936  0.00  0.00    +0.000 C 
ATOM      8  C   UNL     1      29.238  11.708  24.781  0.00  0.00    +0.000 C 
ATOM      9  C   UNL     1      30.912  14.948  20.169  0.00  0.00    +0.000 C 
ATOM     10  C   UNL     1      31.211  14.015  18.957  0.00  0.00    +0.000 C 
ATOM     11  C   UNL     1      29.226  13.131  25.840  0.00  0.00    +0.000 C 
ATOM     12  C   UNL     1      31.250  10.671  19.667  0.00  0.00    +0.000 C 
ATOM     13  C   UNL     1      29.588  15.787  22.457  0.00  0.00    +0.000 C 
ATOM     14  C   UNL     1      27.708  11.266  24.902  0.00  0.00    +0.000 C 
ATOM     15  C   UNL     1      28.313  14.310  25.246  0.00  0.00    +0.000 C 
ATOM     16  C   UNL     1      28.487  14.473  20.383  0.00  0.00    +0.000 C 
ATOM     17  C   UNL     1      28.883  15.687  24.241  0.00  0.00    +0.000 C 
ATOM     18  C   UNL     1      26.591  12.404  24.954  0.00  0.00    +0.000 C 
ATOM     19  C   UNL     1      27.002  13.914  25.111  0.00  0.00    +0.000 C 
ATOM     20  C   UNL     1      28.552  12.658  27.225  0.00  0.00    +0.000 C 
ATOM     21  C   UNL     1      30.563  13.605  26.496  0.00  0.00    +0.000 C 
ATOM     22  C   UNL     1      25.887  14.891  24.827  0.00  0.00    +0.000 C 
ENDROOT
BRANCH   9  23
ATOM     23  O   UNL     1      32.150  15.159  20.847  0.00  0.00    +0.000 OA
ATOM     24  H   UNL     1      32.768  15.524  20.183  0.00  0.00    +0.000 HD
ENDBRANCH   9  23
BRANCH   8  25
ATOM     25  O   UNL     1      30.017  10.672  25.409  0.00  0.00    +0.000 OA
ATOM     26  H   UNL     1      30.088   9.919  24.796  0.00  0.00    +0.000 HD
ENDBRANCH   8  25
BRANCH  18  27
ATOM     27  O   UNL     1      25.803  12.317  23.732  0.00  0.00    +0.000 OA
BRANCH  27  29
ATOM     28  O   UNL     1      23.581  12.673  23.974  0.00  0.00    +0.000 OA
ATOM     29  C   UNL     1      24.519  11.892  23.858  0.00  0.00    +0.000 C 
BRANCH  29  30
ATOM     30  C   UNL     1      24.364  10.375  24.004  0.00  0.00    +0.000 C 
BRANCH  30  31
ATOM     31  O   UNL     1      23.341   9.782  23.196  0.00  0.00    +0.000 OA
ATOM     32  H   UNL     1      22.503   9.920  23.677  0.00  0.00    +0.000 HD
ENDBRANCH  30  31
BRANCH  30  33
ATOM     33  C   UNL     1      24.125  10.057  25.506  0.00  0.00    +0.000 C 
BRANCH  33  34
ATOM     34  C   UNL     1      24.282   8.566  25.771  0.00  0.00    +0.000 A 
ATOM     35  C   UNL     1      24.946   7.763  24.827  0.00  0.00    +0.000 A 
ATOM     36  C   UNL     1      23.755   7.954  26.920  0.00  0.00    +0.000 A 
ATOM     37  C   UNL     1      25.094   6.391  25.036  0.00  0.00    +0.000 A 
ATOM     38  C   UNL     1      23.906   6.583  27.127  0.00  0.00    +0.000 A 
ATOM     39  C   UNL     1      24.577   5.802  26.187  0.00  0.00    +0.000 A 
ENDBRANCH  33  34
BRANCH  33  41
ATOM     40  O   UNL     1      21.374  12.114  26.636  0.00  0.00    +0.000 OA
ATOM     41  N   UNL     1      22.799  10.529  25.926  0.00  0.00    +0.000 N 
ATOM     42  C   UNL     1      22.476  11.584  26.734  0.00  0.00    +0.000 C 
ATOM     43  H   UNL     1      22.032  10.216  25.338  0.00  0.00    +0.000 HD
BRANCH  42  44
ATOM     44  C   UNL     1      23.465  12.123  27.696  0.00  0.00    +0.000 A 
ATOM     45  C   UNL     1      23.901  11.371  28.791  0.00  0.00    +0.000 A 
ATOM     46  C   UNL     1      23.909  13.440  27.531  0.00  0.00    +0.000 A 
ATOM     47  C   UNL     1      24.827  11.915  29.683  0.00  0.00    +0.000 A 
ATOM     48  C   UNL     1      24.831  13.983  28.425  0.00  0.00    +0.000 A 
ATOM     49  C   UNL     1      25.296  13.216  29.494  0.00  0.00    +0.000 A 
ENDBRANCH  42  44
ENDBRANCH  33  41
ENDBRANCH  30  33
ENDBRANCH  29  30
ENDBRANCH  27  29
ENDBRANCH  18  27
BRANCH  17  50
ATOM     50  O   UNL     1      29.622  16.503  25.175  0.00  0.00    +0.000 OA
BRANCH  50  52
ATOM     51  O   UNL     1      29.644  18.738  25.055  0.00  0.00    +0.000 OA
ATOM     52  C   UNL     1      29.203  17.722  25.583  0.00  0.00    +0.000 C 
ATOM     53  C   UNL     1      28.261  17.785  26.748  0.00  0.00    +0.000 C 
ENDBRANCH  50  52
ENDBRANCH  17  50
BRANCH   7  54
ATOM     54  O   UNL     1      28.535  12.250  22.680  0.00  0.00    +0.000 OA
BRANCH  54  56
ATOM     55  O   UNL     1      27.057  11.624  21.472  0.00  0.00    +0.000 OA
ATOM     56  C   UNL     1      28.026  11.140  22.047  0.00  0.00    +0.000 C 
BRANCH  56  57
ATOM     57  C   UNL     1      28.611   9.349  22.380  0.00  0.00    +0.000 A 
ATOM     58  C   UNL     1      29.956   8.839  22.125  0.00  0.00    +0.000 A 
ATOM     59  C   UNL     1      27.886   8.305  23.031  0.00  0.00    +0.000 A 
ATOM     60  C   UNL     1      30.466   7.558  22.457  0.00  0.00    +0.000 A 
ATOM     61  C   UNL     1      28.379   7.014  23.372  0.00  0.00    +0.000 A 
ATOM     62  C   UNL     1      29.670   6.638  23.089  0.00  0.00    +0.000 A 
ENDBRANCH  56  57
ENDBRANCH  54  56
ENDBRANCH   7  54
BRANCH   4  63
ATOM     63  O   UNL     1      29.083  11.997  19.524  0.00  0.00    +0.000 OA
BRANCH  63  65
ATOM     64  O   UNL     1      28.169  10.059  18.885  0.00  0.00    +0.000 OA
ATOM     65  C   UNL     1      28.627  11.155  18.569  0.00  0.00    +0.000 C 
ATOM     66  C   UNL     1      28.796  11.518  17.128  0.00  0.00    +0.000 C 
ENDBRANCH  63  65
ENDBRANCH   4  63
TORSDOF 17
ENDMDL
MODEL 6
REMARK VINA RESULT:      -5.6      3.028      6.837
REMARK  Name = 
REMARK  23 active torsions:
REMARK  status: ('A' for Active; 'I' for Inactive)
REMARK    1  A    between atoms: O_2  and  C_17
REMARK    2  A    between atoms: O_2  and  C_36
REMARK    3  A    between atoms: O_3  and  C_20
REMARK    4  A    between atoms: O_3  and  C_37
REMARK    5  A    between atoms: O_4  and  C_21
REMARK    6  A    between atoms: O_5  and  C_22
REMARK    7  A    between atoms: O_6  and  C_30
REMARK    8  A    between atoms: O_6  and  C_39
REMARK    9  A    between atoms: O_8  and  C_31
REMARK   10  A    between atoms: O_8  and  C_40
REMARK   11  A    between atoms: O_13  and  C_42
REMARK   12  A    between atoms: N_15  and  C_46
REMARK   13  A    between atoms: C_18  and  C_29
REMARK   14  A    between atoms: C_24  and  C_33
REMARK   15  A    between atoms: C_24  and  C_34
REMARK   16  A    between atoms: C_32  and  C_35
REMARK   17  A    between atoms: C_36  and  C_38
REMARK   18  A    between atoms: C_37  and  C_41
REMARK   19  A    between atoms: C_39  and  C_43
REMARK   20  A    between atoms: C_40  and  C_42
REMARK   21  A    between atoms: C_42  and  C_46
REMARK   22  A    between atoms: C_46  and  C_50
REMARK   23  A    between atoms: C_53  and  C_56
REMARK                            x       y       z     vdW  Elec       q    Type
REMARK                         _______ _______ _______ _____ _____    ______ ____
ROOT
ATOM      1  O   UNL     1       6.072  25.350  28.593  0.00  0.00    +0.000 OA
ATOM      2  O   UNL     1      12.431  24.955  30.561  0.00  0.00    +0.000 OA
ATOM      3  C   UNL     1       8.462  23.271  29.937  0.00  0.00    +0.000 C 
ATOM      4  C   UNL     1       7.124  24.066  29.945  0.00  0.00    +0.000 C 
ATOM      5  C   UNL     1       9.810  24.449  30.563  0.00  0.00    +0.000 C 
ATOM      6  C   UNL     1       7.489  25.086  28.791  0.00  0.00    +0.000 C 
ATOM      7  C   UNL     1       8.255  21.550  30.627  0.00  0.00    +0.000 C 
ATOM      8  C   UNL     1       9.247  19.992  31.046  0.00  0.00    +0.000 C 
ATOM      9  C   UNL     1       9.798  25.642  29.518  0.00  0.00    +0.000 C 
ATOM     10  C   UNL     1       8.393  26.231  29.184  0.00  0.00    +0.000 C 
ATOM     11  C   UNL     1      11.007  19.786  31.113  0.00  0.00    +0.000 C 
ATOM     12  C   UNL     1       5.858  23.946  29.008  0.00  0.00    +0.000 C 
ATOM     13  C   UNL     1      11.624  24.052  30.868  0.00  0.00    +0.000 C 
ATOM     14  C   UNL     1       8.874  19.631  32.556  0.00  0.00    +0.000 C 
ATOM     15  C   UNL     1      11.699  20.869  32.075  0.00  0.00    +0.000 C 
ATOM     16  C   UNL     1       9.411  25.165  31.920  0.00  0.00    +0.000 C 
ATOM     17  C   UNL     1      12.406  22.441  31.564  0.00  0.00    +0.000 C 
ATOM     18  C   UNL     1       9.847  20.130  33.718  0.00  0.00    +0.000 C 
ATOM     19  C   UNL     1      11.245  20.759  33.369  0.00  0.00    +0.000 C 
ATOM     20  C   UNL     1      11.269  18.336  31.764  0.00  0.00    +0.000 C 
ATOM     21  C   UNL     1      11.791  19.486  29.794  0.00  0.00    +0.000 C 
ATOM     22  C   UNL     1      11.909  21.468  34.523  0.00  0.00    +0.000 C 
ENDROOT
BRANCH   9  23
ATOM     23  O   UNL     1      10.361  25.189  28.288  0.00  0.00    +0.000 OA
ATOM     24  H   UNL     1       9.607  24.965  27.706  0.00  0.00    +0.000 HD
ENDBRANCH   9  23
BRANCH   8  25
ATOM     25  O   UNL     1       8.692  18.948  30.224  0.00  0.00    +0.000 OA
ATOM     26  H   UNL     1       7.781  19.191  29.981  0.00  0.00    +0.000 HD
ENDBRANCH   8  25
BRANCH  18  27
ATOM     27  O   UNL     1       9.132  21.126  34.506  0.00  0.00    +0.000 OA
BRANCH  27  29
ATOM     28  O   UNL     1       9.384  20.112  36.513  0.00  0.00    +0.000 OA
ATOM     29  C   UNL     1       8.680  20.737  35.726  0.00  0.00    +0.000 C 
BRANCH  29  30
ATOM     30  C   UNL     1       7.190  20.998  35.965  0.00  0.00    +0.000 C 
BRANCH  30  31
ATOM     31  O   UNL     1       6.824  21.258  37.325  0.00  0.00    +0.000 OA
ATOM     32  H   UNL     1       7.569  21.751  37.716  0.00  0.00    +0.000 HD
ENDBRANCH  30  31
BRANCH  30  33
ATOM     33  C   UNL     1       6.392  19.787  35.408  0.00  0.00    +0.000 C 
BRANCH  33  34
ATOM     34  C   UNL     1       4.979  20.205  35.025  0.00  0.00    +0.000 A 
ATOM     35  C   UNL     1       4.690  21.568  34.833  0.00  0.00    +0.000 A 
ATOM     36  C   UNL     1       3.938  19.273  34.887  0.00  0.00    +0.000 A 
ATOM     37  C   UNL     1       3.402  21.983  34.494  0.00  0.00    +0.000 A 
ATOM     38  C   UNL     1       2.651  19.690  34.547  0.00  0.00    +0.000 A 
ATOM     39  C   UNL     1       2.383  21.044  34.348  0.00  0.00    +0.000 A 
ENDBRANCH  33  34
BRANCH  33  41
ATOM     40  O   UNL     1       7.250  16.879  37.379  0.00  0.00    +0.000 OA
ATOM     41  N   UNL     1       6.370  18.693  36.387  0.00  0.00    +0.000 N 
ATOM     42  C   UNL     1       7.000  17.480  36.338  0.00  0.00    +0.000 C 
ATOM     43  H   UNL     1       6.086  18.968  37.323  0.00  0.00    +0.000 HD
BRANCH  42  44
ATOM     44  C   UNL     1       7.425  16.907  35.041  0.00  0.00    +0.000 A 
ATOM     45  C   UNL     1       6.495  16.570  34.053  0.00  0.00    +0.000 A 
ATOM     46  C   UNL     1       8.784  16.637  34.843  0.00  0.00    +0.000 A 
ATOM     47  C   UNL     1       6.931  16.022  32.845  0.00  0.00    +0.000 A 
ATOM     48  C   UNL     1       9.217  16.086  33.637  0.00  0.00    +0.000 A 
ATOM     49  C   UNL     1       8.291  15.789  32.636  0.00  0.00    +0.000 A 
ENDBRANCH  42  44
ENDBRANCH  33  41
ENDBRANCH  30  33
ENDBRANCH  29  30
ENDBRANCH  27  29
ENDBRANCH  18  27
BRANCH  17  50
ATOM     50  O   UNL     1      13.605  22.057  30.856  0.00  0.00    +0.000 OA
BRANCH  50  52
ATOM     51  O   UNL     1      15.345  23.275  31.563  0.00  0.00    +0.000 OA
ATOM     52  C   UNL     1      14.843  22.168  31.387  0.00  0.00    +0.000 C 
ATOM     53  C   UNL     1      15.603  20.906  31.664  0.00  0.00    +0.000 C 
ENDBRANCH  50  52
ENDBRANCH  17  50
BRANCH   7  54
ATOM     54  O   UNL     1       8.640  22.065  31.776  0.00  0.00    +0.000 OA
BRANCH  54  56
ATOM     55  O   UNL     1       7.447  22.828  33.201  0.00  0.00    +0.000 OA
ATOM     56  C   UNL     1       7.339  22.101  32.219  0.00  0.00    +0.000 C 
BRANCH  56  57
ATOM     57  C   UNL     1       5.945  20.971  31.554  0.00  0.00    +0.000 A 
ATOM     58  C   UNL     1       5.855  19.528  31.764  0.00  0.00    +0.000 A 
ATOM     59  C   UNL     1       4.747  21.370  30.887  0.00  0.00    +0.000 A 
ATOM     60  C   UNL     1       4.790  18.671  31.390  0.00  0.00    +0.000 A 
ATOM     61  C   UNL     1       3.668  20.526  30.502  0.00  0.00    +0.000 A 
ATOM     62  C   UNL     1       3.685  19.175  30.755  0.00  0.00    +0.000 A 
ENDBRANCH  56  57
ENDBRANCH  54  56
ENDBRANCH   7  54
BRANCH   4  63
ATOM     63  O   UNL     1       6.859  24.684  31.227  0.00  0.00    +0.000 OA
BRANCH  63  65
ATOM     64  O   UNL     1       5.684  26.580  31.376  0.00  0.00    +0.000 OA
ATOM     65  C   UNL     1       5.730  25.361  31.533  0.00  0.00    +0.000 C 
ATOM     66  C   UNL     1       4.589  24.635  32.172  0.00  0.00    +0.000 C 
ENDBRANCH  63  65
ENDBRANCH   4  63
TORSDOF 17
ENDMDL
MODEL 7
REMARK VINA RESULT:      -5.6     12.553     19.474
REMARK  Name = 
REMARK  23 active torsions:
REMARK  status: ('A' for Active; 'I' for Inactive)
REMARK    1  A    between atoms: O_2  and  C_17
REMARK    2  A    between atoms: O_2  and  C_36
REMARK    3  A    between atoms: O_3  and  C_20
REMARK    4  A    between atoms: O_3  and  C_37
REMARK    5  A    between atoms: O_4  and  C_21
REMARK    6  A    between atoms: O_5  and  C_22
REMARK    7  A    between atoms: O_6  and  C_30
REMARK    8  A    between atoms: O_6  and  C_39
REMARK    9  A    between atoms: O_8  and  C_31
REMARK   10  A    between atoms: O_8  and  C_40
REMARK   11  A    between atoms: O_13  and  C_42
REMARK   12  A    between atoms: N_15  and  C_46
REMARK   13  A    between atoms: C_18  and  C_29
REMARK   14  A    between atoms: C_24  and  C_33
REMARK   15  A    between atoms: C_24  and  C_34
REMARK   16  A    between atoms: C_32  and  C_35
REMARK   17  A    between atoms: C_36  and  C_38
REMARK   18  A    between atoms: C_37  and  C_41
REMARK   19  A    between atoms: C_39  and  C_43
REMARK   20  A    between atoms: C_40  and  C_42
REMARK   21  A    between atoms: C_42  and  C_46
REMARK   22  A    between atoms: C_46  and  C_50
REMARK   23  A    between atoms: C_53  and  C_56
REMARK                            x       y       z     vdW  Elec       q    Type
REMARK                         _______ _______ _______ _____ _____    ______ ____
ROOT
ATOM      1  O   UNL     1      -1.053   6.618  20.954  0.00  0.00    +0.000 OA
ATOM      2  O   UNL     1      -6.145  10.441  22.930  0.00  0.00    +0.000 OA
ATOM      3  C   UNL     1      -2.160   9.861  21.271  0.00  0.00    +0.000 C 
ATOM      4  C   UNL     1      -1.214   8.661  21.571  0.00  0.00    +0.000 C 
ATOM      5  C   UNL     1      -3.607   9.745  22.492  0.00  0.00    +0.000 C 
ATOM      6  C   UNL     1      -2.193   7.510  21.099  0.00  0.00    +0.000 C 
ATOM      7  C   UNL     1      -1.213  11.446  21.007  0.00  0.00    +0.000 C 
ATOM      8  C   UNL     1      -1.477  13.292  20.676  0.00  0.00    +0.000 C 
ATOM      9  C   UNL     1      -4.272   8.341  22.172  0.00  0.00    +0.000 C 
ATOM     10  C   UNL     1      -3.289   7.136  22.070  0.00  0.00    +0.000 C 
ATOM     11  C   UNL     1      -2.982  14.228  20.761  0.00  0.00    +0.000 C 
ATOM     12  C   UNL     1      -0.279   7.830  20.607  0.00  0.00    +0.000 C 
ATOM     13  C   UNL     1      -5.032  10.957  22.694  0.00  0.00    +0.000 C 
ATOM     14  C   UNL     1      -0.617  14.060  21.782  0.00  0.00    +0.000 C 
ATOM     15  C   UNL     1      -3.713  14.053  22.180  0.00  0.00    +0.000 C 
ATOM     16  C   UNL     1      -3.124   9.572  23.992  0.00  0.00    +0.000 C 
ATOM     17  C   UNL     1      -5.015  12.873  22.562  0.00  0.00    +0.000 C 
ATOM     18  C   UNL     1      -1.354  14.558  23.106  0.00  0.00    +0.000 C 
ATOM     19  C   UNL     1      -2.922  14.494  23.215  0.00  0.00    +0.000 C 
ATOM     20  C   UNL     1      -2.560  15.777  20.632  0.00  0.00    +0.000 C 
ATOM     21  C   UNL     1      -3.941  14.244  19.527  0.00  0.00    +0.000 C 
ATOM     22  C   UNL     1      -3.453  14.690  24.613  0.00  0.00    +0.000 C 
ENDROOT
BRANCH   9  23
ATOM     23  O   UNL     1      -4.957   8.425  20.923  0.00  0.00    +0.000 OA
ATOM     24  H   UNL     1      -4.618   7.691  20.373  0.00  0.00    +0.000 HD
ENDBRANCH   9  23
BRANCH   8  25
ATOM     25  O   UNL     1      -0.844  13.552  19.409  0.00  0.00    +0.000 OA
ATOM     26  H   UNL     1      -0.031  14.064  19.564  0.00  0.00    +0.000 HD
ENDBRANCH   8  25
BRANCH  18  27
ATOM     27  O   UNL     1      -0.832  13.787  24.228  0.00  0.00    +0.000 OA
BRANCH  27  29
ATOM     28  O   UNL     1      -0.438  14.200  26.417  0.00  0.00    +0.000 OA
ATOM     29  C   UNL     1      -0.256  14.487  25.239  0.00  0.00    +0.000 C 
BRANCH  29  30
ATOM     30  C   UNL     1       0.495  15.745  24.792  0.00  0.00    +0.000 C 
BRANCH  30  31
ATOM     31  O   UNL     1       1.848  15.845  25.251  0.00  0.00    +0.000 OA
ATOM     32  H   UNL     1       2.370  15.245  24.686  0.00  0.00    +0.000 HD
ENDBRANCH  30  31
BRANCH  30  33
ATOM     33  C   UNL     1      -0.327  16.984  25.244  0.00  0.00    +0.000 C 
BRANCH  33  34
ATOM     34  C   UNL     1      -0.853  17.748  24.038  0.00  0.00    +0.000 A 
ATOM     35  C   UNL     1      -0.003  17.982  22.943  0.00  0.00    +0.000 A 
ATOM     36  C   UNL     1      -2.160  18.259  23.993  0.00  0.00    +0.000 A 
ATOM     37  C   UNL     1      -0.453  18.691  21.829  0.00  0.00    +0.000 A 
ATOM     38  C   UNL     1      -2.609  18.966  22.877  0.00  0.00    +0.000 A 
ATOM     39  C   UNL     1      -1.757  19.180  21.794  0.00  0.00    +0.000 A 
ENDBRANCH  33  34
BRANCH  33  41
ATOM     40  O   UNL     1       1.014  18.786  28.079  0.00  0.00    +0.000 OA
ATOM     41  N   UNL     1       0.488  17.853  26.104  0.00  0.00    +0.000 N 
ATOM     42  C   UNL     1       0.143  18.477  27.271  0.00  0.00    +0.000 C 
ATOM     43  H   UNL     1       1.490  17.762  25.971  0.00  0.00    +0.000 HD
BRANCH  42  44
ATOM     44  C   UNL     1      -1.278  18.742  27.589  0.00  0.00    +0.000 A 
ATOM     45  C   UNL     1      -2.049  17.822  28.307  0.00  0.00    +0.000 A 
ATOM     46  C   UNL     1      -1.868  19.911  27.093  0.00  0.00    +0.000 A 
ATOM     47  C   UNL     1      -3.389  18.101  28.580  0.00  0.00    +0.000 A 
ATOM     48  C   UNL     1      -3.208  20.186  27.365  0.00  0.00    +0.000 A 
ATOM     49  C   UNL     1      -3.964  19.285  28.116  0.00  0.00    +0.000 A 
ENDBRANCH  42  44
ENDBRANCH  33  41
ENDBRANCH  30  33
ENDBRANCH  29  30
ENDBRANCH  27  29
ENDBRANCH  18  27
BRANCH  17  50
ATOM     50  O   UNL     1      -6.158  13.389  21.846  0.00  0.00    +0.000 OA
BRANCH  50  52
ATOM     51  O   UNL     1      -7.998  13.326  23.120  0.00  0.00    +0.000 OA
ATOM     52  C   UNL     1      -7.203  13.989  22.459  0.00  0.00    +0.000 C 
ATOM     53  C   UNL     1      -7.402  15.457  22.230  0.00  0.00    +0.000 C 
ENDBRANCH  50  52
ENDBRANCH  17  50
BRANCH   7  54
ATOM     54  O   UNL     1      -1.428  11.678  22.285  0.00  0.00    +0.000 OA
BRANCH  54  56
ATOM     55  O   UNL     1       0.348  11.259  21.445  0.00  0.00    +0.000 OA
ATOM     56  C   UNL     1      -0.099  11.467  22.568  0.00  0.00    +0.000 C 
BRANCH  56  57
ATOM     57  C   UNL     1       0.604  11.252  24.335  0.00  0.00    +0.000 A 
ATOM     58  C   UNL     1       1.940  11.654  24.767  0.00  0.00    +0.000 A 
ATOM     59  C   UNL     1      -0.093  10.803  25.498  0.00  0.00    +0.000 A 
ATOM     60  C   UNL     1       2.463  11.618  26.084  0.00  0.00    +0.000 A 
ATOM     61  C   UNL     1       0.415  10.758  26.827  0.00  0.00    +0.000 A 
ATOM     62  C   UNL     1       1.692  11.168  27.124  0.00  0.00    +0.000 A 
ENDBRANCH  56  57
ENDBRANCH  54  56
ENDBRANCH   7  54
BRANCH   4  63
ATOM     63  O   UNL     1      -0.841   8.592  22.968  0.00  0.00    +0.000 OA
BRANCH  63  65
ATOM     64  O   UNL     1       1.359   8.262  23.196  0.00  0.00    +0.000 OA
ATOM     65  C   UNL     1       0.213   7.893  23.446  0.00  0.00    +0.000 C 
ATOM     66  C   UNL     1      -0.028   6.611  24.177  0.00  0.00    +0.000 C 
ENDBRANCH  63  65
ENDBRANCH   4  63
TORSDOF 17
ENDMDL
MODEL 8
REMARK VINA RESULT:      -5.6     14.613     19.284
REMARK  Name = 
REMARK  23 active torsions:
REMARK  status: ('A' for Active; 'I' for Inactive)
REMARK    1  A    between atoms: O_2  and  C_17
REMARK    2  A    between atoms: O_2  and  C_36
REMARK    3  A    between atoms: O_3  and  C_20
REMARK    4  A    between atoms: O_3  and  C_37
REMARK    5  A    between atoms: O_4  and  C_21
REMARK    6  A    between atoms: O_5  and  C_22
REMARK    7  A    between atoms: O_6  and  C_30
REMARK    8  A    between atoms: O_6  and  C_39
REMARK    9  A    between atoms: O_8  and  C_31
REMARK   10  A    between atoms: O_8  and  C_40
REMARK   11  A    between atoms: O_13  and  C_42
REMARK   12  A    between atoms: N_15  and  C_46
REMARK   13  A    between atoms: C_18  and  C_29
REMARK   14  A    between atoms: C_24  and  C_33
REMARK   15  A    between atoms: C_24  and  C_34
REMARK   16  A    between atoms: C_32  and  C_35
REMARK   17  A    between atoms: C_36  and  C_38
REMARK   18  A    between atoms: C_37  and  C_41
REMARK   19  A    between atoms: C_39  and  C_43
REMARK   20  A    between atoms: C_40  and  C_42
REMARK   21  A    between atoms: C_42  and  C_46
REMARK   22  A    between atoms: C_46  and  C_50
REMARK   23  A    between atoms: C_53  and  C_56
REMARK                            x       y       z     vdW  Elec       q    Type
REMARK                         _______ _______ _______ _____ _____    ______ ____
ROOT
ATOM      1  O   UNL     1      -5.221  10.430  29.138  0.00  0.00    +0.000 OA
ATOM      2  O   UNL     1      -3.358   7.031  23.713  0.00  0.00    +0.000 OA
ATOM      3  C   UNL     1      -2.669   9.939  26.883  0.00  0.00    +0.000 C 
ATOM      4  C   UNL     1      -3.766  10.774  27.607  0.00  0.00    +0.000 C 
ATOM      5  C   UNL     1      -3.505   9.087  25.408  0.00  0.00    +0.000 C 
ATOM      6  C   UNL     1      -4.627   9.557  28.138  0.00  0.00    +0.000 C 
ATOM      7  C   UNL     1      -1.075  10.890  26.702  0.00  0.00    +0.000 C 
ATOM      8  C   UNL     1       0.663  10.743  25.963  0.00  0.00    +0.000 C 
ATOM      9  C   UNL     1      -4.629   8.185  26.068  0.00  0.00    +0.000 C 
ATOM     10  C   UNL     1      -5.531   8.894  27.124  0.00  0.00    +0.000 C 
ATOM     11  C   UNL     1       1.288   9.519  24.842  0.00  0.00    +0.000 C 
ATOM     12  C   UNL     1      -3.926  11.146  29.134  0.00  0.00    +0.000 C 
ATOM     13  C   UNL     1      -2.689   8.015  24.095  0.00  0.00    +0.000 C 
ATOM     14  C   UNL     1       0.871  12.055  25.075  0.00  0.00    +0.000 C 
ATOM     15  C   UNL     1       0.374   9.389  23.529  0.00  0.00    +0.000 C 
ATOM     16  C   UNL     1      -4.341  10.097  24.516  0.00  0.00    +0.000 C 
ATOM     17  C   UNL     1      -0.960   8.211  23.279  0.00  0.00    +0.000 C 
ATOM     18  C   UNL     1       0.585  11.965  23.508  0.00  0.00    +0.000 C 
ATOM     19  C   UNL     1       0.327  10.571  22.827  0.00  0.00    +0.000 C 
ATOM     20  C   UNL     1       2.736  10.040  24.364  0.00  0.00    +0.000 C 
ATOM     21  C   UNL     1       1.814   8.161  25.411  0.00  0.00    +0.000 C 
ATOM     22  C   UNL     1      -0.237  10.662  21.430  0.00  0.00    +0.000 C 
ENDROOT
BRANCH   9  23
ATOM     23  O   UNL     1      -4.012   7.079  26.726  0.00  0.00    +0.000 OA
ATOM     24  H   UNL     1      -4.610   6.825  27.458  0.00  0.00    +0.000 HD
ENDBRANCH   9  23
BRANCH   8  25
ATOM     25  O   UNL     1       1.568  10.852  27.078  0.00  0.00    +0.000 OA
ATOM     26  H   UNL     1       2.322  11.409  26.815  0.00  0.00    +0.000 HD
ENDBRANCH   8  25
BRANCH  18  27
ATOM     27  O   UNL     1      -0.581  12.789  23.216  0.00  0.00    +0.000 OA
BRANCH  27  29
ATOM     28  O   UNL     1       0.155  14.921  23.393  0.00  0.00    +0.000 OA
ATOM     29  C   UNL     1      -0.347  14.029  22.717  0.00  0.00    +0.000 C 
BRANCH  29  30
ATOM     30  C   UNL     1      -0.906  14.262  21.309  0.00  0.00    +0.000 C 
BRANCH  30  31
ATOM     31  O   UNL     1       0.069  14.289  20.260  0.00  0.00    +0.000 OA
ATOM     32  H   UNL     1       0.627  15.072  20.429  0.00  0.00    +0.000 HD
ENDBRANCH  30  31
BRANCH  30  33
ATOM     33  C   UNL     1      -1.723  15.583  21.327  0.00  0.00    +0.000 C 
BRANCH  33  34
ATOM     34  C   UNL     1      -3.007  15.431  20.524  0.00  0.00    +0.000 A 
ATOM     35  C   UNL     1      -3.833  16.551  20.321  0.00  0.00    +0.000 A 
ATOM     36  C   UNL     1      -3.416  14.193  20.001  0.00  0.00    +0.000 A 
ATOM     37  C   UNL     1      -5.022  16.439  19.601  0.00  0.00    +0.000 A 
ATOM     38  C   UNL     1      -4.605  14.084  19.279  0.00  0.00    +0.000 A 
ATOM     39  C   UNL     1      -5.407  15.207  19.077  0.00  0.00    +0.000 A 
ENDBRANCH  33  34
BRANCH  33  41
ATOM     40  O   UNL     1       0.485  18.436  21.077  0.00  0.00    +0.000 OA
ATOM     41  N   UNL     1      -0.912  16.696  20.816  0.00  0.00    +0.000 N 
ATOM     42  C   UNL     1      -0.518  17.840  21.455  0.00  0.00    +0.000 C 
ATOM     43  H   UNL     1      -0.352  16.472  19.999  0.00  0.00    +0.000 HD
BRANCH  42  44
ATOM     44  C   UNL     1      -1.268  18.339  22.630  0.00  0.00    +0.000 A 
ATOM     45  C   UNL     1      -2.473  19.034  22.485  0.00  0.00    +0.000 A 
ATOM     46  C   UNL     1      -0.710  18.165  23.902  0.00  0.00    +0.000 A 
ATOM     47  C   UNL     1      -3.147  19.499  23.616  0.00  0.00    +0.000 A 
ATOM     48  C   UNL     1      -1.384  18.633  25.030  0.00  0.00    +0.000 A 
ATOM     49  C   UNL     1      -2.607  19.291  24.886  0.00  0.00    +0.000 A 
ENDBRANCH  42  44
ENDBRANCH  33  41
ENDBRANCH  30  33
ENDBRANCH  29  30
ENDBRANCH  27  29
ENDBRANCH  18  27
BRANCH  17  50
ATOM     50  O   UNL     1      -0.273   6.949  23.130  0.00  0.00    +0.000 OA
BRANCH  50  52
ATOM     51  O   UNL     1       0.110   6.840  20.927  0.00  0.00    +0.000 OA
ATOM     52  C   UNL     1      -0.224   6.270  21.962  0.00  0.00    +0.000 C 
ATOM     53  C   UNL     1      -0.673   4.839  21.963  0.00  0.00    +0.000 C 
ENDBRANCH  50  52
ENDBRANCH  17  50
BRANCH   7  54
ATOM     54  O   UNL     1      -1.519  11.226  25.509  0.00  0.00    +0.000 OA
BRANCH  54  56
ATOM     55  O   UNL     1      -1.234  12.486  27.047  0.00  0.00    +0.000 OA
ATOM     56  C   UNL     1      -1.741  12.515  25.931  0.00  0.00    +0.000 C 
BRANCH  56  57
ATOM     57  C   UNL     1      -2.864  13.767  25.019  0.00  0.00    +0.000 A 
ATOM     58  C   UNL     1      -3.840  13.429  23.985  0.00  0.00    +0.000 A 
ATOM     59  C   UNL     1      -3.014  15.161  25.293  0.00  0.00    +0.000 A 
ATOM     60  C   UNL     1      -4.769  14.301  23.364  0.00  0.00    +0.000 A 
ATOM     61  C   UNL     1      -3.938  16.053  24.679  0.00  0.00    +0.000 A 
ATOM     62  C   UNL     1      -4.820  15.625  23.716  0.00  0.00    +0.000 A 
ENDBRANCH  56  57
ENDBRANCH  54  56
ENDBRANCH   7  54
BRANCH   4  63
ATOM     63  O   UNL     1      -4.472  11.655  26.702  0.00  0.00    +0.000 OA
BRANCH  63  65
ATOM     64  O   UNL     1      -4.906  13.574  27.764  0.00  0.00    +0.000 OA
ATOM     65  C   UNL     1      -5.321  12.633  27.091  0.00  0.00    +0.000 C 
ATOM     66  C   UNL     1      -6.781  12.497  26.797  0.00  0.00    +0.000 C 
ENDBRANCH  63  65
ENDBRANCH   4  63
TORSDOF 17
ENDMDL
MODEL 9
REMARK VINA RESULT:      -5.5     10.267     15.435
REMARK  Name = 
REMARK  23 active torsions:
REMARK  status: ('A' for Active; 'I' for Inactive)
REMARK    1  A    between atoms: O_2  and  C_17
REMARK    2  A    between atoms: O_2  and  C_36
REMARK    3  A    between atoms: O_3  and  C_20
REMARK    4  A    between atoms: O_3  and  C_37
REMARK    5  A    between atoms: O_4  and  C_21
REMARK    6  A    between atoms: O_5  and  C_22
REMARK    7  A    between atoms: O_6  and  C_30
REMARK    8  A    between atoms: O_6  and  C_39
REMARK    9  A    between atoms: O_8  and  C_31
REMARK   10  A    between atoms: O_8  and  C_40
REMARK   11  A    between atoms: O_13  and  C_42
REMARK   12  A    between atoms: N_15  and  C_46
REMARK   13  A    between atoms: C_18  and  C_29
REMARK   14  A    between atoms: C_24  and  C_33
REMARK   15  A    between atoms: C_24  and  C_34
REMARK   16  A    between atoms: C_32  and  C_35
REMARK   17  A    between atoms: C_36  and  C_38
REMARK   18  A    between atoms: C_37  and  C_41
REMARK   19  A    between atoms: C_39  and  C_43
REMARK   20  A    between atoms: C_40  and  C_42
REMARK   21  A    between atoms: C_42  and  C_46
REMARK   22  A    between atoms: C_46  and  C_50
REMARK   23  A    between atoms: C_53  and  C_56
REMARK                            x       y       z     vdW  Elec       q    Type
REMARK                         _______ _______ _______ _____ _____    ______ ____
ROOT
ATOM      1  O   UNL     1       5.477   7.054  30.088  0.00  0.00    +0.000 OA
ATOM      2  O   UNL     1      11.740   6.274  32.238  0.00  0.00    +0.000 OA
ATOM      3  C   UNL     1       7.852   8.237  32.280  0.00  0.00    +0.000 C 
ATOM      4  C   UNL     1       6.872   8.344  31.074  0.00  0.00    +0.000 C 
ATOM      5  C   UNL     1       9.491   7.563  31.604  0.00  0.00    +0.000 C 
ATOM      6  C   UNL     1       6.716   6.792  30.805  0.00  0.00    +0.000 C 
ATOM      7  C   UNL     1       7.780   9.747  33.372  0.00  0.00    +0.000 C 
ATOM      8  C   UNL     1       8.581  10.500  34.914  0.00  0.00    +0.000 C 
ATOM      9  C   UNL     1       9.107   6.149  30.997  0.00  0.00    +0.000 C 
ATOM     10  C   UNL     1       7.857   6.132  30.065  0.00  0.00    +0.000 C 
ATOM     11  C   UNL     1      10.043   9.975  35.770  0.00  0.00    +0.000 C 
ATOM     12  C   UNL     1       5.301   8.192  31.018  0.00  0.00    +0.000 C 
ATOM     13  C   UNL     1      11.095   7.298  32.551  0.00  0.00    +0.000 C 
ATOM     14  C   UNL     1       9.027  11.977  34.497  0.00  0.00    +0.000 C 
ATOM     15  C   UNL     1      11.304   9.860  34.783  0.00  0.00    +0.000 C 
ATOM     16  C   UNL     1      10.002   8.364  30.335  0.00  0.00    +0.000 C 
ATOM     17  C   UNL     1      11.863   8.369  33.949  0.00  0.00    +0.000 C 
ATOM     18  C   UNL     1      10.536  12.212  34.035  0.00  0.00    +0.000 C 
ATOM     19  C   UNL     1      11.606  11.071  34.205  0.00  0.00    +0.000 C 
ATOM     20  C   UNL     1      10.382  11.131  36.840  0.00  0.00    +0.000 C 
ATOM     21  C   UNL     1       9.937   8.833  36.832  0.00  0.00    +0.000 C 
ATOM     22  C   UNL     1      12.888  11.310  33.447  0.00  0.00    +0.000 C 
ENDROOT
BRANCH   9  23
ATOM     23  O   UNL     1       8.841   5.240  32.065  0.00  0.00    +0.000 OA
ATOM     24  H   UNL     1       7.869   5.217  32.171  0.00  0.00    +0.000 HD
ENDBRANCH   9  23
BRANCH   8  25
ATOM     25  O   UNL     1       7.515  10.648  35.871  0.00  0.00    +0.000 OA
ATOM     26  H   UNL     1       7.638  11.487  36.350  0.00  0.00    +0.000 HD
ENDBRANCH   8  25
BRANCH  18  27
ATOM     27  O   UNL     1      10.524  12.558  32.619  0.00  0.00    +0.000 OA
BRANCH  27  29
ATOM     28  O   UNL     1      10.862  14.728  33.162  0.00  0.00    +0.000 OA
ATOM     29  C   UNL     1      10.666  13.871  32.307  0.00  0.00    +0.000 C 
BRANCH  29  30
ATOM     30  C   UNL     1      10.403  14.206  30.835  0.00  0.00    +0.000 C 
BRANCH  30  31
ATOM     31  O   UNL     1      11.558  14.201  29.989  0.00  0.00    +0.000 OA
ATOM     32  H   UNL     1      11.246  13.929  29.107  0.00  0.00    +0.000 HD
ENDBRANCH  30  31
BRANCH  30  33
ATOM     33  C   UNL     1       9.689  15.585  30.775  0.00  0.00    +0.000 C 
BRANCH  33  34
ATOM     34  C   UNL     1       8.178  15.406  30.737  0.00  0.00    +0.000 A 
ATOM     35  C   UNL     1       7.361  16.266  31.492  0.00  0.00    +0.000 A 
ATOM     36  C   UNL     1       7.567  14.384  29.993  0.00  0.00    +0.000 A 
ATOM     37  C   UNL     1       5.973  16.118  31.488  0.00  0.00    +0.000 A 
ATOM     38  C   UNL     1       6.179  14.239  29.989  0.00  0.00    +0.000 A 
ATOM     39  C   UNL     1       5.383  15.107  30.734  0.00  0.00    +0.000 A 
ENDBRANCH  33  34
BRANCH  33  41
ATOM     40  O   UNL     1      11.239  18.079  28.663  0.00  0.00    +0.000 OA
ATOM     41  N   UNL     1      10.157  16.354  29.614  0.00  0.00    +0.000 N 
ATOM     42  C   UNL     1      10.464  17.685  29.530  0.00  0.00    +0.000 C 
ATOM     43  H   UNL     1      10.560  15.794  28.869  0.00  0.00    +0.000 HD
BRANCH  42  44
ATOM     44  C   UNL     1       9.906  18.648  30.506  0.00  0.00    +0.000 A 
ATOM     45  C   UNL     1       8.736  19.364  30.235  0.00  0.00    +0.000 A 
ATOM     46  C   UNL     1      10.614  18.886  31.689  0.00  0.00    +0.000 A 
ATOM     47  C   UNL     1       8.244  20.272  31.175  0.00  0.00    +0.000 A 
ATOM     48  C   UNL     1      10.122  19.795  32.626  0.00  0.00    +0.000 A 
ATOM     49  C   UNL     1       8.933  20.480  32.371  0.00  0.00    +0.000 A 
ENDBRANCH  42  44
ENDBRANCH  33  41
ENDBRANCH  30  33
ENDBRANCH  29  30
ENDBRANCH  27  29
ENDBRANCH  18  27
BRANCH  17  50
ATOM     50  O   UNL     1      12.415   7.571  35.018  0.00  0.00    +0.000 OA
BRANCH  50  52
ATOM     51  O   UNL     1      14.558   7.777  34.403  0.00  0.00    +0.000 OA
ATOM     52  C   UNL     1      13.707   7.173  35.050  0.00  0.00    +0.000 C 
ATOM     53  C   UNL     1      14.039   5.932  35.823  0.00  0.00    +0.000 C 
ENDBRANCH  50  52
ENDBRANCH  17  50
BRANCH   7  54
ATOM     54  O   UNL     1       8.797  10.193  32.665  0.00  0.00    +0.000 OA
BRANCH  54  56
ATOM     55  O   UNL     1       8.668  11.302  30.995  0.00  0.00    +0.000 OA
ATOM     56  C   UNL     1       7.968  11.039  31.967  0.00  0.00    +0.000 C 
BRANCH  56  57
ATOM     57  C   UNL     1       6.340  11.765  32.663  0.00  0.00    +0.000 A 
ATOM     58  C   UNL     1       6.242  12.927  33.543  0.00  0.00    +0.000 A 
ATOM     59  C   UNL     1       5.005  11.379  32.332  0.00  0.00    +0.000 A 
ATOM     60  C   UNL     1       5.059  13.567  33.991  0.00  0.00    +0.000 A 
ATOM     61  C   UNL     1       3.806  12.006  32.773  0.00  0.00    +0.000 A 
ATOM     62  C   UNL     1       3.830  13.103  33.600  0.00  0.00    +0.000 A 
ENDBRANCH  56  57
ENDBRANCH  54  56
ENDBRANCH   7  54
BRANCH   4  63
ATOM     63  O   UNL     1       7.439   9.087  29.970  0.00  0.00    +0.000 OA
BRANCH  63  65
ATOM     64  O   UNL     1       6.945   8.806  27.808  0.00  0.00    +0.000 OA
ATOM     65  C   UNL     1       6.764   9.432  28.851  0.00  0.00    +0.000 C 
ATOM     66  C   UNL     1       5.892  10.647  28.864  0.00  0.00    +0.000 C 
ENDBRANCH  63  65
ENDBRANCH   4  63
TORSDOF 17
ENDMDL
