REMARK  Name = 
REMARK  5 active torsions:
REMARK  status: ('A' for Active; 'I' for Inactive)
REMARK    1  A    between atoms: O_1  and  C_16
REMARK    2  A    between atoms: O_3  and  C_25
REMARK    3  A    between atoms: C_11  and  C_22
REMARK    4  A    between atoms: C_16  and  C_28
REMARK    5  A    between atoms: C_29  and  C_31
REMARK                            x       y       z     vdW  Elec       q    Type
REMARK                         _______ _______ _______ _____ _____    ______ ____
ROOT
ATOM      1  O   UNL     1       5.140  -2.309  -0.983  0.00  0.00    +0.000 OA
ATOM      2  N   UNL     1      -3.663   1.106   0.017  0.00  0.00    +0.000 NA
ATOM      3  C   UNL     1      -0.198  -0.385   0.791  0.00  0.00    +0.000 C 
ATOM      4  C   UNL     1       0.511  -1.738   0.517  0.00  0.00    +0.000 C 
ATOM      5  C   UNL     1       2.146   0.025   0.511  0.00  0.00    +0.000 C 
ATOM      6  C   UNL     1       1.864  -1.352  -0.103  0.00  0.00    +0.000 C 
ATOM      7  C   UNL     1      -1.596  -0.282   0.151  0.00  0.00    +0.000 C 
ATOM      8  C   UNL     1       0.793   0.709   0.341  0.00  0.00    +0.000 C 
ATOM      9  C   UNL     1       3.418   0.689  -0.081  0.00  0.00    +0.000 C 
ATOM     10  C   UNL     1      -2.430  -1.520   0.547  0.00  0.00    +0.000 C 
ATOM     11  C   UNL     1      -0.297  -2.669  -0.381  0.00  0.00    +0.000 C 
ATOM     12  C   UNL     1       4.597  -0.282   0.230  0.00  0.00    +0.000 C 
ATOM     13  C   UNL     1      -1.741  -2.831   0.089  0.00  0.00    +0.000 C 
ATOM     14  C   UNL     1      -3.900  -1.389   0.053  0.00  0.00    +0.000 C 
ATOM     15  C   UNL     1       3.011  -2.324   0.131  0.00  0.00    +0.000 C 
ATOM     16  C   UNL     1      -2.303   1.012   0.575  0.00  0.00    +0.000 C 
ATOM     17  C   UNL     1      -4.516  -0.013   0.507  0.00  0.00    +0.000 C 
ATOM     18  C   UNL     1       3.701   2.033   0.637  0.00  0.00    +0.000 C 
ATOM     19  C   UNL     1       4.318  -1.684  -0.316  0.00  0.00    +0.000 C 
ATOM     20  C   UNL     1       3.278   0.953  -1.601  0.00  0.00    +0.000 C 
ATOM     21  C   UNL     1       5.951   0.284  -0.198  0.00  0.00    +0.000 C 
ATOM     22  C   UNL     1       5.071   2.623   0.290  0.00  0.00    +0.000 C 
ATOM     23  C   UNL     1       6.213   1.626   0.488  0.00  0.00    +0.000 C 
ATOM     24  C   UNL     1      -5.967   0.150  -0.013  0.00  0.00    +0.000 C 
ATOM     25  C   UNL     1      -4.227   2.421   0.382  0.00  0.00    +0.000 C 
ATOM     26  C   UNL     1      -4.748  -2.571   0.546  0.00  0.00    +0.000 C 
ATOM     27  C   UNL     1      -5.630   2.647  -0.190  0.00  0.00    +0.000 C 
ATOM     28  C   UNL     1      -6.554   1.526   0.281  0.00  0.00    +0.000 C 
ATOM     29  C   UNL     1      -5.610   2.773  -1.716  0.00  0.00    +0.000 C 
ENDROOT
BRANCH  14  30
ATOM     30  O   UNL     1      -3.893  -1.433  -1.384  0.00  0.00    +0.000 OA
ATOM     31  H   UNL     1      -3.677  -0.521  -1.665  0.00  0.00    +0.000 HD
ENDBRANCH  14  30
BRANCH  23  32
ATOM     32  O   UNL     1       7.408   2.205  -0.024  0.00  0.00    +0.000 OA
ATOM     33  H   UNL     1       8.116   1.542   0.052  0.00  0.00    +0.000 HD
ENDBRANCH  23  32
TORSDOF 2
