MODEL 1
REMARK VINA RESULT:      -7.3      0.000      0.000
REMARK  Name = 
REMARK  5 active torsions:
REMARK  status: ('A' for Active; 'I' for Inactive)
REMARK    1  A    between atoms: O_1  and  C_16
REMARK    2  A    between atoms: O_3  and  C_25
REMARK    3  A    between atoms: C_11  and  C_22
REMARK    4  A    between atoms: C_16  and  C_28
REMARK    5  A    between atoms: C_29  and  C_31
REMARK                            x       y       z     vdW  Elec       q    Type
REMARK                         _______ _______ _______ _____ _____    ______ ____
ROOT
ATOM      1  O   UNL     1      22.308  18.945  29.594  0.00  0.00    +0.000 OA
ATOM      2  N   UNL     1      25.310  11.666  24.287  0.00  0.00    +0.000 NA
ATOM      3  C   UNL     1      23.050  14.289  25.972  0.00  0.00    +0.000 C 
ATOM      4  C   UNL     1      22.559  14.562  27.419  0.00  0.00    +0.000 C 
ATOM      5  C   UNL     1      22.774  16.653  26.251  0.00  0.00    +0.000 C 
ATOM      6  C   UNL     1      22.859  16.051  27.659  0.00  0.00    +0.000 C 
ATOM      7  C   UNL     1      24.055  13.126  25.872  0.00  0.00    +0.000 C 
ATOM      8  C   UNL     1      23.580  15.639  25.445  0.00  0.00    +0.000 C 
ATOM      9  C   UNL     1      23.180  18.151  26.222  0.00  0.00    +0.000 C 
ATOM     10  C   UNL     1      23.470  11.885  26.581  0.00  0.00    +0.000 C 
ATOM     11  C   UNL     1      23.218  13.660  28.457  0.00  0.00    +0.000 C 
ATOM     12  C   UNL     1      22.190  18.887  27.174  0.00  0.00    +0.000 C 
ATOM     13  C   UNL     1      23.163  12.183  28.071  0.00  0.00    +0.000 C 
ATOM     14  C   UNL     1      24.379  10.639  26.375  0.00  0.00    +0.000 C 
ATOM     15  C   UNL     1      21.944  16.769  28.641  0.00  0.00    +0.000 C 
ATOM     16  C   UNL     1      24.391  12.811  24.408  0.00  0.00    +0.000 C 
ATOM     17  C   UNL     1      24.694  10.430  24.847  0.00  0.00    +0.000 C 
ATOM     18  C   UNL     1      22.991  18.726  24.795  0.00  0.00    +0.000 C 
ATOM     19  C   UNL     1      22.205  18.268  28.573  0.00  0.00    +0.000 C 
ATOM     20  C   UNL     1      24.653  18.358  26.654  0.00  0.00    +0.000 C 
ATOM     21  C   UNL     1      22.391  20.402  27.172  0.00  0.00    +0.000 C 
ATOM     22  C   UNL     1      23.127  20.251  24.739  0.00  0.00    +0.000 C 
ATOM     23  C   UNL     1      22.236  20.962  25.757  0.00  0.00    +0.000 C 
ATOM     24  C   UNL     1      25.633   9.217  24.629  0.00  0.00    +0.000 C 
ATOM     25  C   UNL     1      25.664  11.502  22.863  0.00  0.00    +0.000 C 
ATOM     26  C   UNL     1      23.735   9.387  26.989  0.00  0.00    +0.000 C 
ATOM     27  C   UNL     1      26.659  10.362  22.624  0.00  0.00    +0.000 C 
ATOM     28  C   UNL     1      26.080   9.062  23.179  0.00  0.00    +0.000 C 
ATOM     29  C   UNL     1      28.037  10.675  23.214  0.00  0.00    +0.000 C 
ENDROOT
BRANCH  14  30
ATOM     30  O   UNL     1      25.618  10.871  27.068  0.00  0.00    +0.000 OA
ATOM     31  H   UNL     1      25.906  11.761  26.782  0.00  0.00    +0.000 HD
ENDBRANCH  14  30
BRANCH  23  32
ATOM     32  O   UNL     1      22.562  22.348  25.748  0.00  0.00    +0.000 OA
ATOM     33  H   UNL     1      23.276  22.481  25.101  0.00  0.00    +0.000 HD
ENDBRANCH  23  32
TORSDOF 2
ENDMDL
MODEL 2
REMARK VINA RESULT:      -7.1     27.875     30.604
REMARK  Name = 
REMARK  5 active torsions:
REMARK  status: ('A' for Active; 'I' for Inactive)
REMARK    1  A    between atoms: O_1  and  C_16
REMARK    2  A    between atoms: O_3  and  C_25
REMARK    3  A    between atoms: C_11  and  C_22
REMARK    4  A    between atoms: C_16  and  C_28
REMARK    5  A    between atoms: C_29  and  C_31
REMARK                            x       y       z     vdW  Elec       q    Type
REMARK                         _______ _______ _______ _____ _____    ______ ____
ROOT
ATOM      1  O   UNL     1      -0.780  26.258  12.404  0.00  0.00    +0.000 OA
ATOM      2  N   UNL     1       4.595  33.698  14.833  0.00  0.00    +0.000 NA
ATOM      3  C   UNL     1       1.579  31.526  13.827  0.00  0.00    +0.000 C 
ATOM      4  C   UNL     1       1.143  30.761  12.548  0.00  0.00    +0.000 C 
ATOM      5  C   UNL     1       0.340  29.583  14.484  0.00  0.00    +0.000 C 
ATOM      6  C   UNL     1       0.794  29.346  13.039  0.00  0.00    +0.000 C 
ATOM      7  C   UNL     1       2.974  32.170  13.713  0.00  0.00    +0.000 C 
ATOM      8  C   UNL     1       1.432  30.521  14.989  0.00  0.00    +0.000 C 
ATOM      9  C   UNL     1       0.060  28.258  15.243  0.00  0.00    +0.000 C 
ATOM     10  C   UNL     1       3.041  33.015  12.422  0.00  0.00    +0.000 C 
ATOM     11  C   UNL     1       2.211  30.754  11.459  0.00  0.00    +0.000 C 
ATOM     12  C   UNL     1      -1.066  27.533  14.445  0.00  0.00    +0.000 C 
ATOM     13  C   UNL     1       2.762  32.148  11.168  0.00  0.00    +0.000 C 
ATOM     14  C   UNL     1       4.376  33.811  12.339  0.00  0.00    +0.000 C 
ATOM     15  C   UNL     1      -0.254  28.596  12.230  0.00  0.00    +0.000 C 
ATOM     16  C   UNL     1       3.288  33.029  14.945  0.00  0.00    +0.000 C 
ATOM     17  C   UNL     1       4.620  34.623  13.665  0.00  0.00    +0.000 C 
ATOM     18  C   UNL     1      -0.477  28.561  16.664  0.00  0.00    +0.000 C 
ATOM     19  C   UNL     1      -0.668  27.338  12.980  0.00  0.00    +0.000 C 
ATOM     20  C   UNL     1       1.332  27.382  15.364  0.00  0.00    +0.000 C 
ATOM     21  C   UNL     1      -1.535  26.249  15.129  0.00  0.00    +0.000 C 
ATOM     22  C   UNL     1      -1.015  27.318  17.381  0.00  0.00    +0.000 C 
ATOM     23  C   UNL     1      -2.035  26.547  16.544  0.00  0.00    +0.000 C 
ATOM     24  C   UNL     1       5.967  35.388  13.614  0.00  0.00    +0.000 C 
ATOM     25  C   UNL     1       4.864  34.410  16.098  0.00  0.00    +0.000 C 
ATOM     26  C   UNL     1       4.386  34.732  11.110  0.00  0.00    +0.000 C 
ATOM     27  C   UNL     1       6.228  35.108  16.111  0.00  0.00    +0.000 C 
ATOM     28  C   UNL     1       6.312  36.074  14.931  0.00  0.00    +0.000 C 
ATOM     29  C   UNL     1       7.383  34.102  16.114  0.00  0.00    +0.000 C 
ENDROOT
BRANCH  14  30
ATOM     30  O   UNL     1       5.448  32.866  12.179  0.00  0.00    +0.000 OA
ATOM     31  H   UNL     1       5.781  33.011  11.271  0.00  0.00    +0.000 HD
ENDBRANCH  14  30
BRANCH  23  32
ATOM     32  O   UNL     1      -2.338  25.329  17.216  0.00  0.00    +0.000 OA
ATOM     33  H   UNL     1      -1.512  24.820  17.294  0.00  0.00    +0.000 HD
ENDBRANCH  23  32
TORSDOF 2
ENDMDL
MODEL 3
REMARK VINA RESULT:      -6.2     29.552     31.496
REMARK  Name = 
REMARK  5 active torsions:
REMARK  status: ('A' for Active; 'I' for Inactive)
REMARK    1  A    between atoms: O_1  and  C_16
REMARK    2  A    between atoms: O_3  and  C_25
REMARK    3  A    between atoms: C_11  and  C_22
REMARK    4  A    between atoms: C_16  and  C_28
REMARK    5  A    between atoms: C_29  and  C_31
REMARK                            x       y       z     vdW  Elec       q    Type
REMARK                         _______ _______ _______ _____ _____    ______ ____
ROOT
ATOM      1  O   UNL     1      -0.751  25.870  12.259  0.00  0.00    +0.000 OA
ATOM      2  N   UNL     1      -6.174  25.145  20.019  0.00  0.00    +0.000 NA
ATOM      3  C   UNL     1      -3.227  24.823  17.561  0.00  0.00    +0.000 C 
ATOM      4  C   UNL     1      -2.971  24.061  16.234  0.00  0.00    +0.000 C 
ATOM      5  C   UNL     1      -1.737  26.125  16.209  0.00  0.00    +0.000 C 
ATOM      6  C   UNL     1      -2.426  25.127  15.270  0.00  0.00    +0.000 C 
ATOM      7  C   UNL     1      -4.666  24.672  18.090  0.00  0.00    +0.000 C 
ATOM      8  C   UNL     1      -2.791  26.281  17.302  0.00  0.00    +0.000 C 
ATOM      9  C   UNL     1      -1.219  27.383  15.462  0.00  0.00    +0.000 C 
ATOM     10  C   UNL     1      -5.034  23.173  18.145  0.00  0.00    +0.000 C 
ATOM     11  C   UNL     1      -4.214  23.365  15.691  0.00  0.00    +0.000 C 
ATOM     12  C   UNL     1      -0.202  26.866  14.400  0.00  0.00    +0.000 C 
ATOM     13  C   UNL     1      -4.920  22.515  16.746  0.00  0.00    +0.000 C 
ATOM     14  C   UNL     1      -6.422  22.959  18.817  0.00  0.00    +0.000 C 
ATOM     15  C   UNL     1      -1.486  24.630  14.181  0.00  0.00    +0.000 C 
ATOM     16  C   UNL     1      -4.818  25.324  19.471  0.00  0.00    +0.000 C 
ATOM     17  C   UNL     1      -6.484  23.700  20.205  0.00  0.00    +0.000 C 
ATOM     18  C   UNL     1      -0.458  28.310  16.444  0.00  0.00    +0.000 C 
ATOM     19  C   UNL     1      -0.842  25.820  13.484  0.00  0.00    +0.000 C 
ATOM     20  C   UNL     1      -2.373  28.184  14.810  0.00  0.00    +0.000 C 
ATOM     21  C   UNL     1       0.486  28.003  13.645  0.00  0.00    +0.000 C 
ATOM     22  C   UNL     1       0.299  29.440  15.739  0.00  0.00    +0.000 C 
ATOM     23  C   UNL     1       1.209  28.935  14.619  0.00  0.00    +0.000 C 
ATOM     24  C   UNL     1      -7.875  23.530  20.868  0.00  0.00    +0.000 C 
ATOM     25  C   UNL     1      -6.264  25.890  21.291  0.00  0.00    +0.000 C 
ATOM     26  C   UNL     1      -6.729  21.462  18.967  0.00  0.00    +0.000 C 
ATOM     27  C   UNL     1      -7.655  25.812  21.929  0.00  0.00    +0.000 C 
ATOM     28  C   UNL     1      -8.029  24.347  22.146  0.00  0.00    +0.000 C 
ATOM     29  C   UNL     1      -8.705  26.557  21.101  0.00  0.00    +0.000 C 
ENDROOT
BRANCH  14  30
ATOM     30  O   UNL     1      -7.426  23.521  17.955  0.00  0.00    +0.000 OA
ATOM     31  H   UNL     1      -6.932  23.881  17.191  0.00  0.00    +0.000 HD
ENDBRANCH  14  30
BRANCH  23  32
ATOM     32  O   UNL     1       1.725  30.061  13.918  0.00  0.00    +0.000 OA
ATOM     33  H   UNL     1       1.589  29.907  12.967  0.00  0.00    +0.000 HD
ENDBRANCH  23  32
TORSDOF 2
ENDMDL
MODEL 4
REMARK VINA RESULT:      -6.2     29.608     31.913
REMARK  Name = 
REMARK  5 active torsions:
REMARK  status: ('A' for Active; 'I' for Inactive)
REMARK    1  A    between atoms: O_1  and  C_16
REMARK    2  A    between atoms: O_3  and  C_25
REMARK    3  A    between atoms: C_11  and  C_22
REMARK    4  A    between atoms: C_16  and  C_28
REMARK    5  A    between atoms: C_29  and  C_31
REMARK                            x       y       z     vdW  Elec       q    Type
REMARK                         _______ _______ _______ _____ _____    ______ ____
ROOT
ATOM      1  O   UNL     1      -0.255  25.547  12.859  0.00  0.00    +0.000 OA
ATOM      2  N   UNL     1      -6.168  27.467  20.036  0.00  0.00    +0.000 NA
ATOM      3  C   UNL     1      -3.002  26.587  18.027  0.00  0.00    +0.000 C 
ATOM      4  C   UNL     1      -2.521  25.366  17.199  0.00  0.00    +0.000 C 
ATOM      5  C   UNL     1      -1.610  27.376  16.244  0.00  0.00    +0.000 C 
ATOM      6  C   UNL     1      -2.058  25.961  15.859  0.00  0.00    +0.000 C 
ATOM      7  C   UNL     1      -4.444  26.445  18.552  0.00  0.00    +0.000 C 
ATOM      8  C   UNL     1      -2.766  27.823  17.133  0.00  0.00    +0.000 C 
ATOM      9  C   UNL     1      -1.220  28.232  15.009  0.00  0.00    +0.000 C 
ATOM     10  C   UNL     1      -4.589  25.092  19.283  0.00  0.00    +0.000 C 
ATOM     11  C   UNL     1      -3.595  24.298  17.022  0.00  0.00    +0.000 C 
ATOM     12  C   UNL     1      -0.049  27.476  14.311  0.00  0.00    +0.000 C 
ATOM     13  C   UNL     1      -4.256  23.907  18.342  0.00  0.00    +0.000 C 
ATOM     14  C   UNL     1      -5.983  24.968  19.965  0.00  0.00    +0.000 C 
ATOM     15  C   UNL     1      -0.963  25.198  15.128  0.00  0.00    +0.000 C 
ATOM     16  C   UNL     1      -4.811  27.610  19.480  0.00  0.00    +0.000 C 
ATOM     17  C   UNL     1      -6.276  26.231  20.860  0.00  0.00    +0.000 C 
ATOM     18  C   UNL     1      -0.694  29.617  15.465  0.00  0.00    +0.000 C 
ATOM     19  C   UNL     1      -0.445  26.038  13.970  0.00  0.00    +0.000 C 
ATOM     20  C   UNL     1      -2.419  28.443  14.051  0.00  0.00    +0.000 C 
ATOM     21  C   UNL     1       0.525  28.252  13.126  0.00  0.00    +0.000 C 
ATOM     22  C   UNL     1      -0.055  30.420  14.329  0.00  0.00    +0.000 C 
ATOM     23  C   UNL     1       1.015  29.631  13.573  0.00  0.00    +0.000 C 
ATOM     24  C   UNL     1      -7.678  26.141  21.513  0.00  0.00    +0.000 C 
ATOM     25  C   UNL     1      -6.479  28.676  20.824  0.00  0.00    +0.000 C 
ATOM     26  C   UNL     1      -6.077  23.671  20.781  0.00  0.00    +0.000 C 
ATOM     27  C   UNL     1      -7.892  28.656  21.414  0.00  0.00    +0.000 C 
ATOM     28  C   UNL     1      -8.063  27.405  22.273  0.00  0.00    +0.000 C 
ATOM     29  C   UNL     1      -8.965  28.756  20.326  0.00  0.00    +0.000 C 
ENDROOT
BRANCH  14  30
ATOM     30  O   UNL     1      -6.980  24.901  18.932  0.00  0.00    +0.000 OA
ATOM     31  H   UNL     1      -7.364  25.800  18.890  0.00  0.00    +0.000 HD
ENDBRANCH  14  30
BRANCH  23  32
ATOM     32  O   UNL     1       1.417  30.391  12.440  0.00  0.00    +0.000 OA
ATOM     33  H   UNL     1       1.318  31.333  12.663  0.00  0.00    +0.000 HD
ENDBRANCH  23  32
TORSDOF 2
ENDMDL
MODEL 5
REMARK VINA RESULT:      -6.1     28.020     29.886
REMARK  Name = 
REMARK  5 active torsions:
REMARK  status: ('A' for Active; 'I' for Inactive)
REMARK    1  A    between atoms: O_1  and  C_16
REMARK    2  A    between atoms: O_3  and  C_25
REMARK    3  A    between atoms: C_11  and  C_22
REMARK    4  A    between atoms: C_16  and  C_28
REMARK    5  A    between atoms: C_29  and  C_31
REMARK                            x       y       z     vdW  Elec       q    Type
REMARK                         _______ _______ _______ _____ _____    ______ ____
ROOT
ATOM      1  O   UNL     1       4.928  22.532  -0.877  0.00  0.00    +0.000 OA
ATOM      2  N   UNL     1      12.101  16.816   1.579  0.00  0.00    +0.000 NA
ATOM      3  C   UNL     1       9.198  19.340   1.754  0.00  0.00    +0.000 C 
ATOM      4  C   UNL     1       8.972  20.801   1.281  0.00  0.00    +0.000 C 
ATOM      5  C   UNL     1       6.885  19.609   1.190  0.00  0.00    +0.000 C 
ATOM      6  C   UNL     1       7.640  20.762   0.514  0.00  0.00    +0.000 C 
ATOM      7  C   UNL     1      10.557  18.757   1.321  0.00  0.00    +0.000 C 
ATOM      8  C   UNL     1       7.974  18.542   1.260  0.00  0.00    +0.000 C 
ATOM      9  C   UNL     1       5.542  19.285   0.483  0.00  0.00    +0.000 C 
ATOM     10  C   UNL     1      11.684  19.732   1.730  0.00  0.00    +0.000 C 
ATOM     11  C   UNL     1      10.117  21.343   0.432  0.00  0.00    +0.000 C 
ATOM     12  C   UNL     1       4.691  20.590   0.553  0.00  0.00    +0.000 C 
ATOM     13  C   UNL     1      11.483  21.125   1.081  0.00  0.00    +0.000 C 
ATOM     14  C   UNL     1      13.086  19.118   1.453  0.00  0.00    +0.000 C 
ATOM     15  C   UNL     1       6.828  22.048   0.513  0.00  0.00    +0.000 C 
ATOM     16  C   UNL     1      10.784  17.370   1.937  0.00  0.00    +0.000 C 
ATOM     17  C   UNL     1      13.199  17.683   2.092  0.00  0.00    +0.000 C 
ATOM     18  C   UNL     1       4.786  18.177   1.258  0.00  0.00    +0.000 C 
ATOM     19  C   UNL     1       5.443  21.774  -0.057  0.00  0.00    +0.000 C 
ATOM     20  C   UNL     1       5.755  18.818  -0.978  0.00  0.00    +0.000 C 
ATOM     21  C   UNL     1       3.283  20.402  -0.010  0.00  0.00    +0.000 C 
ATOM     22  C   UNL     1       3.346  17.980   0.774  0.00  0.00    +0.000 C 
ATOM     23  C   UNL     1       2.550  19.285   0.736  0.00  0.00    +0.000 C 
ATOM     24  C   UNL     1      14.577  17.041   1.790  0.00  0.00    +0.000 C 
ATOM     25  C   UNL     1      12.193  15.445   2.119  0.00  0.00    +0.000 C 
ATOM     26  C   UNL     1      14.198  20.046   1.963  0.00  0.00    +0.000 C 
ATOM     27  C   UNL     1      13.511  14.751   1.763  0.00  0.00    +0.000 C 
ATOM     28  C   UNL     1      14.679  15.597   2.267  0.00  0.00    +0.000 C 
ATOM     29  C   UNL     1      13.617  14.461   0.264  0.00  0.00    +0.000 C 
ENDROOT
BRANCH  14  30
ATOM     30  O   UNL     1      13.247  18.995   0.029  0.00  0.00    +0.000 OA
ATOM     31  H   UNL     1      12.339  18.883  -0.320  0.00  0.00    +0.000 HD
ENDBRANCH  14  30
BRANCH  23  32
ATOM     32  O   UNL     1       1.297  19.029   0.112  0.00  0.00    +0.000 OA
ATOM     33  H   UNL     1       1.333  18.135  -0.270  0.00  0.00    +0.000 HD
ENDBRANCH  23  32
TORSDOF 2
ENDMDL
MODEL 6
REMARK VINA RESULT:      -6.1     21.836     24.889
REMARK  Name = 
REMARK  5 active torsions:
REMARK  status: ('A' for Active; 'I' for Inactive)
REMARK    1  A    between atoms: O_1  and  C_16
REMARK    2  A    between atoms: O_3  and  C_25
REMARK    3  A    between atoms: C_11  and  C_22
REMARK    4  A    between atoms: C_16  and  C_28
REMARK    5  A    between atoms: C_29  and  C_31
REMARK                            x       y       z     vdW  Elec       q    Type
REMARK                         _______ _______ _______ _____ _____    ______ ____
ROOT
ATOM      1  O   UNL     1       5.144  -4.042  19.641  0.00  0.00    +0.000 OA
ATOM      2  N   UNL     1       4.544   3.923  24.775  0.00  0.00    +0.000 NA
ATOM      3  C   UNL     1       5.914   1.059  22.597  0.00  0.00    +0.000 C 
ATOM      4  C   UNL     1       6.197  -0.453  22.806  0.00  0.00    +0.000 C 
ATOM      5  C   UNL     1       5.556  -0.079  20.519  0.00  0.00    +0.000 C 
ATOM      6  C   UNL     1       5.510  -1.147  21.619  0.00  0.00    +0.000 C 
ATOM      7  C   UNL     1       5.250   1.734  23.812  0.00  0.00    +0.000 C 
ATOM      8  C   UNL     1       5.104   1.159  21.287  0.00  0.00    +0.000 C 
ATOM      9  C   UNL     1       4.786  -0.509  19.242  0.00  0.00    +0.000 C 
ATOM     10  C   UNL     1       6.070   1.418  25.082  0.00  0.00    +0.000 C 
ATOM     11  C   UNL     1       5.705  -0.976  24.151  0.00  0.00    +0.000 C 
ATOM     12  C   UNL     1       5.474  -1.816  18.742  0.00  0.00    +0.000 C 
ATOM     13  C   UNL     1       6.166  -0.110  25.322  0.00  0.00    +0.000 C 
ATOM     14  C   UNL     1       5.528   2.204  26.311  0.00  0.00    +0.000 C 
ATOM     15  C   UNL     1       6.127  -2.461  21.161  0.00  0.00    +0.000 C 
ATOM     16  C   UNL     1       5.128   3.249  23.603  0.00  0.00    +0.000 C 
ATOM     17  C   UNL     1       5.404   3.738  25.977  0.00  0.00    +0.000 C 
ATOM     18  C   UNL     1       4.940   0.567  18.138  0.00  0.00    +0.000 C 
ATOM     19  C   UNL     1       5.500  -2.882  19.839  0.00  0.00    +0.000 C 
ATOM     20  C   UNL     1       3.278  -0.727  19.522  0.00  0.00    +0.000 C 
ATOM     21  C   UNL     1       4.895  -2.313  17.417  0.00  0.00    +0.000 C 
ATOM     22  C   UNL     1       4.427   0.105  16.771  0.00  0.00    +0.000 C 
ATOM     23  C   UNL     1       5.020  -1.236  16.338  0.00  0.00    +0.000 C 
ATOM     24  C   UNL     1       4.826   4.528  27.179  0.00  0.00    +0.000 C 
ATOM     25  C   UNL     1       4.363   5.352  24.450  0.00  0.00    +0.000 C 
ATOM     26  C   UNL     1       6.415   1.969  27.543  0.00  0.00    +0.000 C 
ATOM     27  C   UNL     1       3.714   6.145  25.589  0.00  0.00    +0.000 C 
ATOM     28  C   UNL     1       4.556   5.993  26.854  0.00  0.00    +0.000 C 
ATOM     29  C   UNL     1       2.257   5.730  25.814  0.00  0.00    +0.000 C 
ENDROOT
BRANCH  14  30
ATOM     30  O   UNL     1       4.218   1.698  26.621  0.00  0.00    +0.000 OA
ATOM     31  H   UNL     1       3.775   1.593  25.755  0.00  0.00    +0.000 HD
ENDBRANCH  14  30
BRANCH  23  32
ATOM     32  O   UNL     1       4.355  -1.660  15.154  0.00  0.00    +0.000 OA
ATOM     33  H   UNL     1       4.131  -0.865  14.638  0.00  0.00    +0.000 HD
ENDBRANCH  23  32
TORSDOF 2
ENDMDL
MODEL 7
REMARK VINA RESULT:      -6.1     25.934     27.619
REMARK  Name = 
REMARK  5 active torsions:
REMARK  status: ('A' for Active; 'I' for Inactive)
REMARK    1  A    between atoms: O_1  and  C_16
REMARK    2  A    between atoms: O_3  and  C_25
REMARK    3  A    between atoms: C_11  and  C_22
REMARK    4  A    between atoms: C_16  and  C_28
REMARK    5  A    between atoms: C_29  and  C_31
REMARK                            x       y       z     vdW  Elec       q    Type
REMARK                         _______ _______ _______ _____ _____    ______ ____
ROOT
ATOM      1  O   UNL     1      10.771  22.376  -0.485  0.00  0.00    +0.000 OA
ATOM      2  N   UNL     1      12.852  13.594   2.465  0.00  0.00    +0.000 NA
ATOM      3  C   UNL     1      12.085  17.367   2.436  0.00  0.00    +0.000 C 
ATOM      4  C   UNL     1      12.817  18.642   1.939  0.00  0.00    +0.000 C 
ATOM      5  C   UNL     1      10.444  18.961   1.724  0.00  0.00    +0.000 C 
ATOM      6  C   UNL     1      11.774  19.386   1.089  0.00  0.00    +0.000 C 
ATOM      7  C   UNL     1      12.825  16.059   2.095  0.00  0.00    +0.000 C 
ATOM      8  C   UNL     1      10.652  17.457   1.871  0.00  0.00    +0.000 C 
ATOM      9  C   UNL     1       9.216  19.490   0.935  0.00  0.00    +0.000 C 
ATOM     10  C   UNL     1      14.291  16.165   2.567  0.00  0.00    +0.000 C 
ATOM     11  C   UNL     1      14.093  18.337   1.161  0.00  0.00    +0.000 C 
ATOM     12  C   UNL     1       9.334  21.044   0.942  0.00  0.00    +0.000 C 
ATOM     13  C   UNL     1      15.011  17.363   1.897  0.00  0.00    +0.000 C 
ATOM     14  C   UNL     1      15.040  14.813   2.384  0.00  0.00    +0.000 C 
ATOM     15  C   UNL     1      11.916  20.899   1.027  0.00  0.00    +0.000 C 
ATOM     16  C   UNL     1      12.131  14.849   2.734  0.00  0.00    +0.000 C 
ATOM     17  C   UNL     1      14.225  13.637   3.041  0.00  0.00    +0.000 C 
ATOM     18  C   UNL     1       7.906  19.105   1.669  0.00  0.00    +0.000 C 
ATOM     19  C   UNL     1      10.679  21.499   0.372  0.00  0.00    +0.000 C 
ATOM     20  C   UNL     1       9.167  18.924  -0.506  0.00  0.00    +0.000 C 
ATOM     21  C   UNL     1       8.131  21.726   0.291  0.00  0.00    +0.000 C 
ATOM     22  C   UNL     1       6.669  19.803   1.096  0.00  0.00    +0.000 C 
ATOM     23  C   UNL     1       6.836  21.319   0.998  0.00  0.00    +0.000 C 
ATOM     24  C   UNL     1      14.938  12.276   2.831  0.00  0.00    +0.000 C 
ATOM     25  C   UNL     1      12.063  12.475   3.020  0.00  0.00    +0.000 C 
ATOM     26  C   UNL     1      16.462  14.896   2.958  0.00  0.00    +0.000 C 
ATOM     27  C   UNL     1      12.701  11.107   2.754  0.00  0.00    +0.000 C 
ATOM     28  C   UNL     1      14.117  11.091   3.325  0.00  0.00    +0.000 C 
ATOM     29  C   UNL     1      12.676  10.747   1.266  0.00  0.00    +0.000 C 
ENDROOT
BRANCH  14  30
ATOM     30  O   UNL     1      15.157  14.556   0.975  0.00  0.00    +0.000 OA
ATOM     31  H   UNL     1      14.670  13.720   0.828  0.00  0.00    +0.000 HD
ENDBRANCH  14  30
BRANCH  23  32
ATOM     32  O   UNL     1       5.717  21.850   0.297  0.00  0.00    +0.000 OA
ATOM     33  H   UNL     1       5.699  21.444  -0.587  0.00  0.00    +0.000 HD
ENDBRANCH  23  32
TORSDOF 2
ENDMDL
MODEL 8
REMARK VINA RESULT:      -5.9     25.359     27.024
REMARK  Name = 
REMARK  5 active torsions:
REMARK  status: ('A' for Active; 'I' for Inactive)
REMARK    1  A    between atoms: O_1  and  C_16
REMARK    2  A    between atoms: O_3  and  C_25
REMARK    3  A    between atoms: C_11  and  C_22
REMARK    4  A    between atoms: C_16  and  C_28
REMARK    5  A    between atoms: C_29  and  C_31
REMARK                            x       y       z     vdW  Elec       q    Type
REMARK                         _______ _______ _______ _____ _____    ______ ____
ROOT
ATOM      1  O   UNL     1      -2.947   7.669  19.374  0.00  0.00    +0.000 OA
ATOM      2  N   UNL     1      -0.783  16.418  22.363  0.00  0.00    +0.000 NA
ATOM      3  C   UNL     1      -0.499  12.869  20.895  0.00  0.00    +0.000 C 
ATOM      4  C   UNL     1      -0.594  11.427  21.459  0.00  0.00    +0.000 C 
ATOM      5  C   UNL     1      -1.409  11.444  19.197  0.00  0.00    +0.000 C 
ATOM      6  C   UNL     1      -1.587  10.708  20.531  0.00  0.00    +0.000 C 
ATOM      7  C   UNL     1      -0.801  13.960  21.940  0.00  0.00    +0.000 C 
ATOM      8  C   UNL     1      -1.419  12.898  19.656  0.00  0.00    +0.000 C 
ATOM      9  C   UNL     1      -2.424  10.974  18.121  0.00  0.00    +0.000 C 
ATOM     10  C   UNL     1       0.066  13.718  23.194  0.00  0.00    +0.000 C 
ATOM     11  C   UNL     1      -1.026  11.381  22.922  0.00  0.00    +0.000 C 
ATOM     12  C   UNL     1      -2.170   9.449  17.923  0.00  0.00    +0.000 C 
ATOM     13  C   UNL     1      -0.207  12.320  23.805  0.00  0.00    +0.000 C 
ATOM     14  C   UNL     1      -0.088  14.881  24.218  0.00  0.00    +0.000 C 
ATOM     15  C   UNL     1      -1.398   9.206  20.381  0.00  0.00    +0.000 C 
ATOM     16  C   UNL     1      -0.551  15.360  21.364  0.00  0.00    +0.000 C 
ATOM     17  C   UNL     1       0.149  16.270  23.517  0.00  0.00    +0.000 C 
ATOM     18  C   UNL     1      -2.139  11.686  16.774  0.00  0.00    +0.000 C 
ATOM     19  C   UNL     1      -2.279   8.694  19.250  0.00  0.00    +0.000 C 
ATOM     20  C   UNL     1      -3.886  11.263  18.541  0.00  0.00    +0.000 C 
ATOM     21  C   UNL     1      -3.026   8.852  16.806  0.00  0.00    +0.000 C 
ATOM     22  C   UNL     1      -2.929  11.094  15.603  0.00  0.00    +0.000 C 
ATOM     23  C   UNL     1      -2.766   9.578  15.485  0.00  0.00    +0.000 C 
ATOM     24  C   UNL     1      -0.042  17.441  24.514  0.00  0.00    +0.000 C 
ATOM     25  C   UNL     1      -0.626  17.728  21.701  0.00  0.00    +0.000 C 
ATOM     26  C   UNL     1       0.861  14.687  25.410  0.00  0.00    +0.000 C 
ATOM     27  C   UNL     1      -0.893  18.907  22.642  0.00  0.00    +0.000 C 
ATOM     28  C   UNL     1       0.038  18.810  23.849  0.00  0.00    +0.000 C 
ATOM     29  C   UNL     1      -2.365  18.984  23.056  0.00  0.00    +0.000 C 
ENDROOT
BRANCH  14  30
ATOM     30  O   UNL     1      -1.432  14.851  24.727  0.00  0.00    +0.000 OA
ATOM     31  H   UNL     1      -1.690  15.790  24.818  0.00  0.00    +0.000 HD
ENDBRANCH  14  30
BRANCH  23  32
ATOM     32  O   UNL     1      -3.667   9.106  14.490  0.00  0.00    +0.000 OA
ATOM     33  H   UNL     1      -4.477   9.643  14.543  0.00  0.00    +0.000 HD
ENDBRANCH  23  32
TORSDOF 2
ENDMDL
MODEL 9
REMARK VINA RESULT:      -5.8     29.615     32.098
REMARK  Name = 
REMARK  5 active torsions:
REMARK  status: ('A' for Active; 'I' for Inactive)
REMARK    1  A    between atoms: O_1  and  C_16
REMARK    2  A    between atoms: O_3  and  C_25
REMARK    3  A    between atoms: C_11  and  C_22
REMARK    4  A    between atoms: C_16  and  C_28
REMARK    5  A    between atoms: C_29  and  C_31
REMARK                            x       y       z     vdW  Elec       q    Type
REMARK                         _______ _______ _______ _____ _____    ______ ____
ROOT
ATOM      1  O   UNL     1      -6.167  25.541  21.521  0.00  0.00    +0.000 OA
ATOM      2  N   UNL     1      -1.039  29.272  14.454  0.00  0.00    +0.000 NA
ATOM      3  C   UNL     1      -3.864  27.543  16.419  0.00  0.00    +0.000 C 
ATOM      4  C   UNL     1      -4.028  26.190  17.161  0.00  0.00    +0.000 C 
ATOM      5  C   UNL     1      -5.358  27.862  18.265  0.00  0.00    +0.000 C 
ATOM      6  C   UNL     1      -4.583  26.568  18.544  0.00  0.00    +0.000 C 
ATOM      7  C   UNL     1      -2.442  27.777  15.874  0.00  0.00    +0.000 C 
ATOM      8  C   UNL     1      -4.358  28.626  17.401  0.00  0.00    +0.000 C 
ATOM      9  C   UNL     1      -5.905  28.517  19.561  0.00  0.00    +0.000 C 
ATOM     10  C   UNL     1      -2.005  26.549  15.046  0.00  0.00    +0.000 C 
ATOM     11  C   UNL     1      -2.731  25.393  17.252  0.00  0.00    +0.000 C 
ATOM     12  C   UNL     1      -6.851  27.463  20.212  0.00  0.00    +0.000 C 
ATOM     13  C   UNL     1      -2.030  25.257  15.902  0.00  0.00    +0.000 C 
ATOM     14  C   UNL     1      -0.637  26.801  14.346  0.00  0.00    +0.000 C 
ATOM     15  C   UNL     1      -5.453  25.522  19.226  0.00  0.00    +0.000 C 
ATOM     16  C   UNL     1      -2.378  29.057  15.029  0.00  0.00    +0.000 C 
ATOM     17  C   UNL     1      -0.668  28.154  13.542  0.00  0.00    +0.000 C 
ATOM     18  C   UNL     1      -6.749  29.769  19.211  0.00  0.00    +0.000 C 
ATOM     19  C   UNL     1      -6.124  26.137  20.446  0.00  0.00    +0.000 C 
ATOM     20  C   UNL     1      -4.765  28.936  20.523  0.00  0.00    +0.000 C 
ATOM     21  C   UNL     1      -7.561  28.001  21.455  0.00  0.00    +0.000 C 
ATOM     22  C   UNL     1      -7.530  30.321  20.407  0.00  0.00    +0.000 C 
ATOM     23  C   UNL     1      -8.368  29.255  21.112  0.00  0.00    +0.000 C 
ATOM     24  C   UNL     1       0.701  28.439  12.873  0.00  0.00    +0.000 C 
ATOM     25  C   UNL     1      -1.037  30.571  13.752  0.00  0.00    +0.000 C 
ATOM     26  C   UNL     1      -0.265  25.619  13.438  0.00  0.00    +0.000 C 
ATOM     27  C   UNL     1       0.328  30.922  13.151  0.00  0.00    +0.000 C 
ATOM     28  C   UNL     1       0.763  29.807  12.203  0.00  0.00    +0.000 C 
ATOM     29  C   UNL     1       1.374  31.196  14.235  0.00  0.00    +0.000 C 
ENDROOT
BRANCH  14  30
ATOM     30  O   UNL     1       0.373  26.898  15.364  0.00  0.00    +0.000 OA
ATOM     31  H   UNL     1       0.335  26.045  15.842  0.00  0.00    +0.000 HD
ENDBRANCH  14  30
BRANCH  23  32
ATOM     32  O   UNL     1      -8.908  29.821  22.300  0.00  0.00    +0.000 OA
ATOM     33  H   UNL     1      -9.159  29.090  22.891  0.00  0.00    +0.000 HD
ENDBRANCH  23  32
TORSDOF 2
ENDMDL
