MODEL 1
REMARK VINA RESULT:      -5.7      0.000      0.000
REMARK  Name = PhIP.pdbqt.pdb
REMARK  2 active torsions:
REMARK  status: ('A' for Active; 'I' for Inactive)
REMARK    1  A    between atoms: N_4  and  C_9
REMARK    2  A    between atoms: C_7  and  C_10
REMARK                            x       y       z     vdW  Elec       q    Type
REMARK                         _______ _______ _______ _____ _____    ______ ____
ROOT
ATOM      1  N   UNL     1      11.566  14.257  30.922  0.00  0.00    +0.000 N 
ATOM      2  N   UNL     1      13.181  15.136  29.407  0.00  0.00    +0.000 NA
ATOM      3  N   UNL     1      12.226  17.360  29.220  0.00  0.00    +0.000 NA
ATOM      4  C   UNL     1      11.234  15.561  30.708  0.00  0.00    +0.000 C 
ATOM      5  C   UNL     1      12.306  16.056  29.726  0.00  0.00    +0.000 C 
ATOM      6  C   UNL     1      10.022  17.637  30.323  0.00  0.00    +0.000 C 
ATOM      7  C   UNL     1      10.200  16.329  30.872  0.00  0.00    +0.000 C 
ATOM      8  C   UNL     1      12.691  14.053  30.119  0.00  0.00    +0.000 C 
ATOM      9  C   UNL     1      10.569  13.224  31.145  0.00  0.00    +0.000 C 
ATOM     10  C   UNL     1      11.211  17.862  29.549  0.00  0.00    +0.000 C 
ENDROOT
BRANCH   6  11
ATOM     11  C   UNL     1       8.928  18.560  30.559  0.00  0.00    +0.000 A 
ATOM     12  C   UNL     1       7.786  18.149  31.250  0.00  0.00    +0.000 A 
ATOM     13  C   UNL     1       8.997  19.877  30.100  0.00  0.00    +0.000 A 
ATOM     14  C   UNL     1       6.734  19.035  31.478  0.00  0.00    +0.000 A 
ATOM     15  C   UNL     1       7.948  20.767  30.324  0.00  0.00    +0.000 A 
ATOM     16  C   UNL     1       6.815  20.344  31.014  0.00  0.00    +0.000 A 
ENDBRANCH   6  11
BRANCH   8  17
ATOM     17  N   UNL     1      13.314  12.814  29.898  0.00  0.00    +0.000 NA
ATOM     18  H   UNL     1      13.234  12.485  28.942  0.00  0.00    +0.000 HD
ATOM     19  H   UNL     1      14.254  12.774  30.271  0.00  0.00    +0.000 HD
ENDBRANCH   8  17
TORSDOF 2
ENDMDL
MODEL 2
REMARK VINA RESULT:      -4.9      2.910      4.392
REMARK  Name = PhIP.pdbqt.pdb
REMARK  2 active torsions:
REMARK  status: ('A' for Active; 'I' for Inactive)
REMARK    1  A    between atoms: N_4  and  C_9
REMARK    2  A    between atoms: C_7  and  C_10
REMARK                            x       y       z     vdW  Elec       q    Type
REMARK                         _______ _______ _______ _____ _____    ______ ____
ROOT
ATOM      1  N   UNL     1       9.740  12.161  31.442  0.00  0.00    +0.000 N 
ATOM      2  N   UNL     1      11.737  10.903  31.114  0.00  0.00    +0.000 NA
ATOM      3  N   UNL     1      13.186  12.782  30.606  0.00  0.00    +0.000 NA
ATOM      4  C   UNL     1      10.732  13.058  31.180  0.00  0.00    +0.000 C 
ATOM      5  C   UNL     1      11.976  12.182  30.976  0.00  0.00    +0.000 C 
ATOM      6  C   UNL     1      12.017  14.955  30.355  0.00  0.00    +0.000 C 
ATOM      7  C   UNL     1      10.831  14.301  30.814  0.00  0.00    +0.000 C 
ATOM      8  C   UNL     1      10.374  10.919  31.364  0.00  0.00    +0.000 C 
ATOM      9  C   UNL     1       8.368  12.366  31.011  0.00  0.00    +0.000 C 
ATOM     10  C   UNL     1      13.018  13.925  30.368  0.00  0.00    +0.000 C 
ENDROOT
BRANCH   6  11
ATOM     11  C   UNL     1      12.190  16.358  30.029  0.00  0.00    +0.000 A 
ATOM     12  C   UNL     1      13.433  16.975  30.181  0.00  0.00    +0.000 A 
ATOM     13  C   UNL     1      11.118  17.116  29.554  0.00  0.00    +0.000 A 
ATOM     14  C   UNL     1      13.603  18.323  29.867  0.00  0.00    +0.000 A 
ATOM     15  C   UNL     1      11.281  18.464  29.239  0.00  0.00    +0.000 A 
ATOM     16  C   UNL     1      12.526  19.067  29.397  0.00  0.00    +0.000 A 
ENDBRANCH   6  11
BRANCH   8  17
ATOM     17  N   UNL     1       9.725   9.674  31.424  0.00  0.00    +0.000 NA
ATOM     18  H   UNL     1       8.715   9.746  31.475  0.00  0.00    +0.000 HD
ATOM     19  H   UNL     1      10.058   9.023  30.724  0.00  0.00    +0.000 HD
ENDBRANCH   8  17
TORSDOF 2
ENDMDL
MODEL 3
REMARK VINA RESULT:      -4.8     25.178     27.087
REMARK  Name = PhIP.pdbqt.pdb
REMARK  2 active torsions:
REMARK  status: ('A' for Active; 'I' for Inactive)
REMARK    1  A    between atoms: N_4  and  C_9
REMARK    2  A    between atoms: C_7  and  C_10
REMARK                            x       y       z     vdW  Elec       q    Type
REMARK                         _______ _______ _______ _____ _____    ______ ____
ROOT
ATOM      1  N   UNL     1      20.208  -2.613  11.240  0.00  0.00    +0.000 N 
ATOM      2  N   UNL     1      20.984  -0.485  11.978  0.00  0.00    +0.000 NA
ATOM      3  N   UNL     1      19.880  -0.503  14.139  0.00  0.00    +0.000 NA
ATOM      4  C   UNL     1      19.725  -2.434  12.502  0.00  0.00    +0.000 C 
ATOM      5  C   UNL     1      20.256  -1.051  12.906  0.00  0.00    +0.000 C 
ATOM      6  C   UNL     1      18.316  -2.396  14.488  0.00  0.00    +0.000 C 
ATOM      7  C   UNL     1      18.799  -2.943  13.257  0.00  0.00    +0.000 C 
ATOM      8  C   UNL     1      20.912  -1.436  10.973  0.00  0.00    +0.000 C 
ATOM      9  C   UNL     1      19.469  -3.331  10.216  0.00  0.00    +0.000 C 
ATOM     10  C   UNL     1      19.059  -1.178  14.650  0.00  0.00    +0.000 C 
ENDROOT
BRANCH   6  11
ATOM     11  C   UNL     1      17.355  -2.979  15.404  0.00  0.00    +0.000 A 
ATOM     12  C   UNL     1      16.221  -3.637  14.922  0.00  0.00    +0.000 A 
ATOM     13  C   UNL     1      17.545  -2.894  16.784  0.00  0.00    +0.000 A 
ATOM     14  C   UNL     1      15.295  -4.198  15.800  0.00  0.00    +0.000 A 
ATOM     15  C   UNL     1      16.623  -3.452  17.668  0.00  0.00    +0.000 A 
ATOM     16  C   UNL     1      15.497  -4.105  17.174  0.00  0.00    +0.000 A 
ENDBRANCH   6  11
BRANCH   8  17
ATOM     17  N   UNL     1      21.475  -1.094   9.732  0.00  0.00    +0.000 NA
ATOM     18  H   UNL     1      21.087  -1.617   8.954  0.00  0.00    +0.000 HD
ATOM     19  H   UNL     1      21.512  -0.094   9.580  0.00  0.00    +0.000 HD
ENDBRANCH   8  17
TORSDOF 2
ENDMDL
MODEL 4
REMARK VINA RESULT:      -4.6     16.810     19.368
REMARK  Name = PhIP.pdbqt.pdb
REMARK  2 active torsions:
REMARK  status: ('A' for Active; 'I' for Inactive)
REMARK    1  A    between atoms: N_4  and  C_9
REMARK    2  A    between atoms: C_7  and  C_10
REMARK                            x       y       z     vdW  Elec       q    Type
REMARK                         _______ _______ _______ _____ _____    ______ ____
ROOT
ATOM      1  N   UNL     1      14.954  34.909  20.141  0.00  0.00    +0.000 N 
ATOM      2  N   UNL     1      12.857  34.139  19.313  0.00  0.00    +0.000 NA
ATOM      3  N   UNL     1      12.054  33.181  21.393  0.00  0.00    +0.000 NA
ATOM      4  C   UNL     1      14.293  34.356  21.197  0.00  0.00    +0.000 C 
ATOM      5  C   UNL     1      12.965  33.880  20.591  0.00  0.00    +0.000 C 
ATOM      6  C   UNL     1      13.725  33.134  23.225  0.00  0.00    +0.000 C 
ATOM      7  C   UNL     1      14.579  33.916  22.385  0.00  0.00    +0.000 C 
ATOM      8  C   UNL     1      14.084  34.732  19.063  0.00  0.00    +0.000 C 
ATOM      9  C   UNL     1      16.397  34.838  20.000  0.00  0.00    +0.000 C 
ATOM     10  C   UNL     1      12.538  32.938  22.441  0.00  0.00    +0.000 C 
ENDROOT
BRANCH   6  11
ATOM     11  C   UNL     1      13.969  32.705  24.589  0.00  0.00    +0.000 A 
ATOM     12  C   UNL     1      12.910  32.320  25.414  0.00  0.00    +0.000 A 
ATOM     13  C   UNL     1      15.268  32.667  25.102  0.00  0.00    +0.000 A 
ATOM     14  C   UNL     1      13.142  31.906  26.725  0.00  0.00    +0.000 A 
ATOM     15  C   UNL     1      15.505  32.254  26.412  0.00  0.00    +0.000 A 
ATOM     16  C   UNL     1      14.440  31.874  27.223  0.00  0.00    +0.000 A 
ENDBRANCH   6  11
BRANCH   8  17
ATOM     17  N   UNL     1      14.389  35.019  17.721  0.00  0.00    +0.000 NA
ATOM     18  H   UNL     1      14.704  34.211  17.196  0.00  0.00    +0.000 HD
ATOM     19  H   UNL     1      13.665  35.555  17.260  0.00  0.00    +0.000 HD
ENDBRANCH   8  17
TORSDOF 2
ENDMDL
MODEL 5
REMARK VINA RESULT:      -4.4     27.968     29.096
REMARK  Name = PhIP.pdbqt.pdb
REMARK  2 active torsions:
REMARK  status: ('A' for Active; 'I' for Inactive)
REMARK    1  A    between atoms: N_4  and  C_9
REMARK    2  A    between atoms: C_7  and  C_10
REMARK                            x       y       z     vdW  Elec       q    Type
REMARK                         _______ _______ _______ _____ _____    ______ ____
ROOT
ATOM      1  N   UNL     1      23.891  27.914   5.681  0.00  0.00    +0.000 N 
ATOM      2  N   UNL     1      22.347  27.017   4.103  0.00  0.00    +0.000 NA
ATOM      3  N   UNL     1      20.431  28.343   4.783  0.00  0.00    +0.000 NA
ATOM      4  C   UNL     1      22.714  28.576   5.862  0.00  0.00    +0.000 C 
ATOM      5  C   UNL     1      21.774  27.947   4.825  0.00  0.00    +0.000 C 
ATOM      6  C   UNL     1      20.782  29.696   6.832  0.00  0.00    +0.000 C 
ATOM      7  C   UNL     1      22.159  29.317   6.774  0.00  0.00    +0.000 C 
ATOM      8  C   UNL     1      23.614  26.998   4.663  0.00  0.00    +0.000 C 
ATOM      9  C   UNL     1      24.795  27.614   6.777  0.00  0.00    +0.000 C 
ATOM     10  C   UNL     1      20.187  29.050   5.695  0.00  0.00    +0.000 C 
ENDROOT
BRANCH   6  11
ATOM     11  C   UNL     1      20.144  30.594   7.777  0.00  0.00    +0.000 A 
ATOM     12  C   UNL     1      18.786  30.897   7.665  0.00  0.00    +0.000 A 
ATOM     13  C   UNL     1      20.877  31.170   8.817  0.00  0.00    +0.000 A 
ATOM     14  C   UNL     1      18.171  31.759   8.571  0.00  0.00    +0.000 A 
ATOM     15  C   UNL     1      20.268  32.033   9.726  0.00  0.00    +0.000 A 
ATOM     16  C   UNL     1      18.913  32.327   9.602  0.00  0.00    +0.000 A 
ENDBRANCH   6  11
BRANCH   8  17
ATOM     17  N   UNL     1      24.488  25.989   4.222  0.00  0.00    +0.000 NA
ATOM     18  H   UNL     1      25.203  26.323   3.586  0.00  0.00    +0.000 HD
ATOM     19  H   UNL     1      24.842  25.418   4.979  0.00  0.00    +0.000 HD
ENDBRANCH   8  17
TORSDOF 2
ENDMDL
MODEL 6
REMARK VINA RESULT:      -4.4     29.813     30.673
REMARK  Name = PhIP.pdbqt.pdb
REMARK  2 active torsions:
REMARK  status: ('A' for Active; 'I' for Inactive)
REMARK    1  A    between atoms: N_4  and  C_9
REMARK    2  A    between atoms: C_7  and  C_10
REMARK                            x       y       z     vdW  Elec       q    Type
REMARK                         _______ _______ _______ _____ _____    ______ ____
ROOT
ATOM      1  N   UNL     1      27.167  26.200   6.152  0.00  0.00    +0.000 N 
ATOM      2  N   UNL     1      26.824  27.846   7.839  0.00  0.00    +0.000 NA
ATOM      3  N   UNL     1      24.514  28.351   7.289  0.00  0.00    +0.000 NA
ATOM      4  C   UNL     1      25.869  26.602   6.050  0.00  0.00    +0.000 C 
ATOM      5  C   UNL     1      25.724  27.658   7.155  0.00  0.00    +0.000 C 
ATOM      6  C   UNL     1      23.684  27.277   5.214  0.00  0.00    +0.000 C 
ATOM      7  C   UNL     1      24.910  26.541   5.176  0.00  0.00    +0.000 C 
ATOM      8  C   UNL     1      27.685  26.976   7.191  0.00  0.00    +0.000 C 
ATOM      9  C   UNL     1      27.957  25.814   4.996  0.00  0.00    +0.000 C 
ATOM     10  C   UNL     1      23.794  28.090   6.393  0.00  0.00    +0.000 C 
ENDROOT
BRANCH   6  11
ATOM     11  C   UNL     1      22.553  27.169   4.312  0.00  0.00    +0.000 A 
ATOM     12  C   UNL     1      22.573  26.262   3.251  0.00  0.00    +0.000 A 
ATOM     13  C   UNL     1      21.423  27.970   4.490  0.00  0.00    +0.000 A 
ATOM     14  C   UNL     1      21.488  26.156   2.383  0.00  0.00    +0.000 A 
ATOM     15  C   UNL     1      20.335  27.869   3.625  0.00  0.00    +0.000 A 
ATOM     16  C   UNL     1      20.368  26.960   2.570  0.00  0.00    +0.000 A 
ENDBRANCH   6  11
BRANCH   8  17
ATOM     17  N   UNL     1      29.036  27.017   7.574  0.00  0.00    +0.000 NA
ATOM     18  H   UNL     1      29.612  27.591   6.968  0.00  0.00    +0.000 HD
ATOM     19  H   UNL     1      29.160  27.207   8.561  0.00  0.00    +0.000 HD
ENDBRANCH   8  17
TORSDOF 2
ENDMDL
MODEL 7
REMARK VINA RESULT:      -4.3     12.664     14.248
REMARK  Name = PhIP.pdbqt.pdb
REMARK  2 active torsions:
REMARK  status: ('A' for Active; 'I' for Inactive)
REMARK    1  A    between atoms: N_4  and  C_9
REMARK    2  A    between atoms: C_7  and  C_10
REMARK                            x       y       z     vdW  Elec       q    Type
REMARK                         _______ _______ _______ _____ _____    ______ ____
ROOT
ATOM      1  N   UNL     1      -1.303  17.439  21.592  0.00  0.00    +0.000 N 
ATOM      2  N   UNL     1       0.165  18.605  23.063  0.00  0.00    +0.000 NA
ATOM      3  N   UNL     1       1.118  16.648  24.136  0.00  0.00    +0.000 NA
ATOM      4  C   UNL     1      -0.609  16.494  22.285  0.00  0.00    +0.000 C 
ATOM      5  C   UNL     1       0.305  17.312  23.209  0.00  0.00    +0.000 C 
ATOM      6  C   UNL     1       0.033  14.501  23.528  0.00  0.00    +0.000 C 
ATOM      7  C   UNL     1      -0.711  15.225  22.545  0.00  0.00    +0.000 C 
ATOM      8  C   UNL     1      -0.834  18.652  22.104  0.00  0.00    +0.000 C 
ATOM      9  C   UNL     1      -2.682  17.248  21.178  0.00  0.00    +0.000 C 
ATOM     10  C   UNL     1       0.862  15.496  24.151  0.00  0.00    +0.000 C 
ENDROOT
BRANCH   6  11
ATOM     11  C   UNL     1       0.016  13.074  23.785  0.00  0.00    +0.000 A 
ATOM     12  C   UNL     1       0.898  12.506  24.708  0.00  0.00    +0.000 A 
ATOM     13  C   UNL     1      -0.882  12.241  23.115  0.00  0.00    +0.000 A 
ATOM     14  C   UNL     1       0.883  11.135  24.957  0.00  0.00    +0.000 A 
ATOM     15  C   UNL     1      -0.901  10.869  23.359  0.00  0.00    +0.000 A 
ATOM     16  C   UNL     1      -0.016  10.316  24.282  0.00  0.00    +0.000 A 
ENDBRANCH   6  11
BRANCH   8  17
ATOM     17  N   UNL     1      -1.358  19.918  21.795  0.00  0.00    +0.000 NA
ATOM     18  H   UNL     1      -1.137  20.628  22.485  0.00  0.00    +0.000 HD
ATOM     19  H   UNL     1      -1.172  20.198  20.840  0.00  0.00    +0.000 HD
ENDBRANCH   8  17
TORSDOF 2
ENDMDL
MODEL 8
REMARK VINA RESULT:      -4.3     25.874     27.462
REMARK  Name = PhIP.pdbqt.pdb
REMARK  2 active torsions:
REMARK  status: ('A' for Active; 'I' for Inactive)
REMARK    1  A    between atoms: N_4  and  C_9
REMARK    2  A    between atoms: C_7  and  C_10
REMARK                            x       y       z     vdW  Elec       q    Type
REMARK                         _______ _______ _______ _____ _____    ______ ____
ROOT
ATOM      1  N   UNL     1      16.714  35.641  12.215  0.00  0.00    +0.000 N 
ATOM      2  N   UNL     1      14.600  34.543  12.174  0.00  0.00    +0.000 NA
ATOM      3  N   UNL     1      15.327  32.553  10.990  0.00  0.00    +0.000 NA
ATOM      4  C   UNL     1      16.909  34.436  11.611  0.00  0.00    +0.000 C 
ATOM      5  C   UNL     1      15.515  33.793  11.616  0.00  0.00    +0.000 C 
ATOM      6  C   UNL     1      17.654  32.649  10.134  0.00  0.00    +0.000 C 
ATOM      7  C   UNL     1      17.806  33.872  10.859  0.00  0.00    +0.000 C 
ATOM      8  C   UNL     1      15.347  35.665  12.499  0.00  0.00    +0.000 C 
ATOM      9  C   UNL     1      17.454  36.833  11.837  0.00  0.00    +0.000 C 
ATOM     10  C   UNL     1      16.304  32.239  10.409  0.00  0.00    +0.000 C 
ENDROOT
BRANCH   6  11
ATOM     11  C   UNL     1      18.656  31.940   9.362  0.00  0.00    +0.000 A 
ATOM     12  C   UNL     1      20.009  32.031   9.699  0.00  0.00    +0.000 A 
ATOM     13  C   UNL     1      18.288  31.153   8.269  0.00  0.00    +0.000 A 
ATOM     14  C   UNL     1      20.975  31.351   8.959  0.00  0.00    +0.000 A 
ATOM     15  C   UNL     1      19.250  30.472   7.525  0.00  0.00    +0.000 A 
ATOM     16  C   UNL     1      20.594  30.572   7.872  0.00  0.00    +0.000 A 
ENDBRANCH   6  11
BRANCH   8  17
ATOM     17  N   UNL     1      14.643  36.772  13.001  0.00  0.00    +0.000 NA
ATOM     18  H   UNL     1      13.664  36.581  13.184  0.00  0.00    +0.000 HD
ATOM     19  H   UNL     1      15.124  37.231  13.764  0.00  0.00    +0.000 HD
ENDBRANCH   8  17
TORSDOF 2
ENDMDL
MODEL 9
REMARK VINA RESULT:      -4.2     28.187     29.630
REMARK  Name = PhIP.pdbqt.pdb
REMARK  2 active torsions:
REMARK  status: ('A' for Active; 'I' for Inactive)
REMARK    1  A    between atoms: N_4  and  C_9
REMARK    2  A    between atoms: C_7  and  C_10
REMARK                            x       y       z     vdW  Elec       q    Type
REMARK                         _______ _______ _______ _____ _____    ______ ____
ROOT
ATOM      1  N   UNL     1      25.202  27.062   5.991  0.00  0.00    +0.000 N 
ATOM      2  N   UNL     1      24.342  25.958   4.063  0.00  0.00    +0.000 NA
ATOM      3  N   UNL     1      22.229  27.147   3.965  0.00  0.00    +0.000 NA
ATOM      4  C   UNL     1      23.994  27.629   5.720  0.00  0.00    +0.000 C 
ATOM      5  C   UNL     1      23.501  26.870   4.480  0.00  0.00    +0.000 C 
ATOM      6  C   UNL     1      21.779  28.626   5.904  0.00  0.00    +0.000 C 
ATOM      7  C   UNL     1      23.117  28.364   6.337  0.00  0.00    +0.000 C 
ATOM      8  C   UNL     1      25.345  26.076   5.012  0.00  0.00    +0.000 C 
ATOM      9  C   UNL     1      25.701  26.896   7.345  0.00  0.00    +0.000 C 
ATOM     10  C   UNL     1      21.646  27.875   4.687  0.00  0.00    +0.000 C 
ENDROOT
BRANCH   6  11
ATOM     11  C   UNL     1      20.805  29.511   6.512  0.00  0.00    +0.000 A 
ATOM     12  C   UNL     1      20.509  30.747   5.934  0.00  0.00    +0.000 A 
ATOM     13  C   UNL     1      20.143  29.143   7.685  0.00  0.00    +0.000 A 
ATOM     14  C   UNL     1      19.572  31.600   6.516  0.00  0.00    +0.000 A 
ATOM     15  C   UNL     1      19.206  29.992   8.272  0.00  0.00    +0.000 A 
ATOM     16  C   UNL     1      18.921  31.222   7.685  0.00  0.00    +0.000 A 
ENDBRANCH   6  11
BRANCH   8  17
ATOM     17  N   UNL     1      26.379  25.126   4.965  0.00  0.00    +0.000 NA
ATOM     18  H   UNL     1      26.681  24.811   5.881  0.00  0.00    +0.000 HD
ATOM     19  H   UNL     1      26.194  24.376   4.311  0.00  0.00    +0.000 HD
ENDBRANCH   8  17
TORSDOF 2
ENDMDL
