MODEL 1
REMARK VINA RESULT:      -6.4      0.000      0.000
REMARK  Name = Piroxicam.pdbqt.pdb
REMARK  3 active torsions:
REMARK  status: ('A' for Active; 'I' for Inactive)
REMARK    1  A    between atoms: C_7  and  C_14
REMARK    2  A    between atoms: C_8  and  O_24
REMARK    3  A    between atoms: N_16  and  C_18
REMARK                            x       y       z     vdW  Elec       q    Type
REMARK                         _______ _______ _______ _____ _____    ______ ____
ROOT
ATOM      1  S   UNL     1      11.175  27.300  29.629  0.00  0.00    +0.000 S 
ATOM      2  O   UNL     1      12.477  26.845  29.177  0.00  0.00    +0.000 OA
ATOM      3  O   UNL     1      10.749  27.082  30.998  0.00  0.00    +0.000 OA
ATOM      4  N   UNL     1      10.996  28.958  29.200  0.00  0.00    +0.000 N 
ATOM      5  C   UNL     1       9.998  26.553  28.570  0.00  0.00    +0.000 A 
ATOM      6  C   UNL     1       9.787  27.143  27.325  0.00  0.00    +0.000 A 
ATOM      7  C   UNL     1      11.105  29.200  27.790  0.00  0.00    +0.000 C 
ATOM      8  C   UNL     1      10.540  28.342  26.909  0.00  0.00    +0.000 C 
ATOM      9  C   UNL     1       9.295  25.434  29.001  0.00  0.00    +0.000 A 
ATOM     10  C   UNL     1       9.901  29.730  29.813  0.00  0.00    +0.000 C 
ATOM     11  C   UNL     1       8.855  26.542  26.477  0.00  0.00    +0.000 A 
ATOM     12  C   UNL     1       8.362  24.862  28.144  0.00  0.00    +0.000 A 
ATOM     13  C   UNL     1       8.146  25.410  26.881  0.00  0.00    +0.000 A 
ENDROOT
BRANCH   7  14
ATOM     14  C   UNL     1      11.868  30.405  27.325  0.00  0.00    +0.000 C 
ATOM     15  O   UNL     1      12.937  30.686  27.863  0.00  0.00    +0.000 OA
ATOM     16  N   UNL     1      11.275  31.111  26.310  0.00  0.00    +0.000 N 
ATOM     17  H   UNL     1      10.423  30.773  25.877  0.00  0.00    +0.000 HD
BRANCH  16  18
ATOM     18  C   UNL     1      11.759  32.279  25.718  0.00  0.00    +0.000 A 
ATOM     19  N   UNL     1      11.150  33.406  26.136  0.00  0.00    +0.000 NA
ATOM     20  C   UNL     1      11.583  34.569  25.597  0.00  0.00    +0.000 A 
ATOM     21  C   UNL     1      12.598  34.665  24.662  0.00  0.00    +0.000 A 
ATOM     22  C   UNL     1      13.206  33.487  24.255  0.00  0.00    +0.000 A 
ATOM     23  C   UNL     1      12.787  32.272  24.786  0.00  0.00    +0.000 A 
ENDBRANCH  16  18
ENDBRANCH   7  14
BRANCH   8  24
ATOM     24  O   UNL     1      10.596  28.503  25.535  0.00  0.00    +0.000 OA
ATOM     25  H   UNL     1      11.352  29.089  25.301  0.00  0.00    +0.000 HD
ENDBRANCH   8  24
TORSDOF 3
ENDMDL
MODEL 2
REMARK VINA RESULT:      -6.0     22.197     23.453
REMARK  Name = Piroxicam.pdbqt.pdb
REMARK  3 active torsions:
REMARK  status: ('A' for Active; 'I' for Inactive)
REMARK    1  A    between atoms: C_7  and  C_14
REMARK    2  A    between atoms: C_8  and  O_24
REMARK    3  A    between atoms: N_16  and  C_18
REMARK                            x       y       z     vdW  Elec       q    Type
REMARK                         _______ _______ _______ _____ _____    ______ ____
ROOT
ATOM      1  S   UNL     1      23.953  10.243  24.873  0.00  0.00    +0.000 S 
ATOM      2  O   UNL     1      23.385  10.254  23.538  0.00  0.00    +0.000 OA
ATOM      3  O   UNL     1      23.687   9.145  25.782  0.00  0.00    +0.000 OA
ATOM      4  N   UNL     1      25.649  10.521  24.748  0.00  0.00    +0.000 N 
ATOM      5  C   UNL     1      23.429  11.724  25.645  0.00  0.00    +0.000 A 
ATOM      6  C   UNL     1      24.129  12.890  25.341  0.00  0.00    +0.000 A 
ATOM      7  C   UNL     1      25.979  11.767  24.116  0.00  0.00    +0.000 C 
ATOM      8  C   UNL     1      25.260  12.879  24.393  0.00  0.00    +0.000 C 
ATOM      9  C   UNL     1      22.371  11.696  26.546  0.00  0.00    +0.000 A 
ATOM     10  C   UNL     1      26.496  10.252  25.923  0.00  0.00    +0.000 C 
ATOM     11  C   UNL     1      23.706  14.074  25.949  0.00  0.00    +0.000 A 
ATOM     12  C   UNL     1      21.976  12.884  27.148  0.00  0.00    +0.000 A 
ATOM     13  C   UNL     1      22.637  14.073  26.847  0.00  0.00    +0.000 A 
ENDROOT
BRANCH   7  14
ATOM     14  C   UNL     1      27.118  11.796  23.140  0.00  0.00    +0.000 C 
ATOM     15  O   UNL     1      28.258  11.564  23.538  0.00  0.00    +0.000 OA
ATOM     16  N   UNL     1      26.768  12.098  21.849  0.00  0.00    +0.000 N 
ATOM     17  H   UNL     1      25.794  12.212  21.593  0.00  0.00    +0.000 HD
BRANCH  16  18
ATOM     18  C   UNL     1      27.634  12.217  20.761  0.00  0.00    +0.000 A 
ATOM     19  N   UNL     1      27.787  11.083  20.047  0.00  0.00    +0.000 NA
ATOM     20  C   UNL     1      28.613  11.143  18.977  0.00  0.00    +0.000 A 
ATOM     21  C   UNL     1      29.294  12.279  18.580  0.00  0.00    +0.000 A 
ATOM     22  C   UNL     1      29.113  13.429  19.335  0.00  0.00    +0.000 A 
ATOM     23  C   UNL     1      28.272  13.406  20.441  0.00  0.00    +0.000 A 
ENDBRANCH  16  18
ENDBRANCH   7  14
BRANCH   8  24
ATOM     24  O   UNL     1      25.514  14.118  23.830  0.00  0.00    +0.000 OA
ATOM     25  H   UNL     1      24.830  14.762  24.125  0.00  0.00    +0.000 HD
ENDBRANCH   8  24
TORSDOF 3
ENDMDL
MODEL 3
REMARK VINA RESULT:      -5.9      2.535      2.655
REMARK  Name = Piroxicam.pdbqt.pdb
REMARK  3 active torsions:
REMARK  status: ('A' for Active; 'I' for Inactive)
REMARK    1  A    between atoms: C_7  and  C_14
REMARK    2  A    between atoms: C_8  and  O_24
REMARK    3  A    between atoms: N_16  and  C_18
REMARK                            x       y       z     vdW  Elec       q    Type
REMARK                         _______ _______ _______ _____ _____    ______ ____
ROOT
ATOM      1  S   UNL     1      10.904  26.811  29.832  0.00  0.00    +0.000 S 
ATOM      2  O   UNL     1      12.216  26.333  29.440  0.00  0.00    +0.000 OA
ATOM      3  O   UNL     1      10.326  26.427  31.105  0.00  0.00    +0.000 OA
ATOM      4  N   UNL     1      10.867  28.523  29.648  0.00  0.00    +0.000 N 
ATOM      5  C   UNL     1       9.800  26.317  28.565  0.00  0.00    +0.000 A 
ATOM      6  C   UNL     1       9.755  27.097  27.411  0.00  0.00    +0.000 A 
ATOM      7  C   UNL     1      11.137  28.961  28.308  0.00  0.00    +0.000 C 
ATOM      8  C   UNL     1      10.617  28.285  27.257  0.00  0.00    +0.000 C 
ATOM      9  C   UNL     1       8.992  25.202  28.751  0.00  0.00    +0.000 A 
ATOM     10  C   UNL     1       9.762  29.276  30.267  0.00  0.00    +0.000 C 
ATOM     11  C   UNL     1       8.883  26.698  26.397  0.00  0.00    +0.000 A 
ATOM     12  C   UNL     1       8.121  24.832  27.733  0.00  0.00    +0.000 A 
ATOM     13  C   UNL     1       8.070  25.575  26.555  0.00  0.00    +0.000 A 
ENDROOT
BRANCH   7  14
ATOM     14  C   UNL     1      12.013  30.161  28.107  0.00  0.00    +0.000 C 
ATOM     15  O   UNL     1      11.729  30.975  27.230  0.00  0.00    +0.000 OA
ATOM     16  N   UNL     1      13.094  30.239  28.948  0.00  0.00    +0.000 N 
ATOM     17  H   UNL     1      13.218  29.559  29.689  0.00  0.00    +0.000 HD
BRANCH  16  18
ATOM     18  C   UNL     1      14.073  31.233  28.952  0.00  0.00    +0.000 A 
ATOM     19  N   UNL     1      13.752  32.326  29.673  0.00  0.00    +0.000 NA
ATOM     20  C   UNL     1      14.668  33.320  29.715  0.00  0.00    +0.000 A 
ATOM     21  C   UNL     1      15.893  33.279  29.074  0.00  0.00    +0.000 A 
ATOM     22  C   UNL     1      16.194  32.139  28.343  0.00  0.00    +0.000 A 
ATOM     23  C   UNL     1      15.277  31.097  28.276  0.00  0.00    +0.000 A 
ENDBRANCH  16  18
ENDBRANCH   7  14
BRANCH   8  24
ATOM     24  O   UNL     1      10.825  28.642  25.935  0.00  0.00    +0.000 OA
ATOM     25  H   UNL     1      11.634  29.198  25.865  0.00  0.00    +0.000 HD
ENDBRANCH   8  24
TORSDOF 3
ENDMDL
MODEL 4
REMARK VINA RESULT:      -5.9     13.581     14.095
REMARK  Name = Piroxicam.pdbqt.pdb
REMARK  3 active torsions:
REMARK  status: ('A' for Active; 'I' for Inactive)
REMARK    1  A    between atoms: C_7  and  C_14
REMARK    2  A    between atoms: C_8  and  O_24
REMARK    3  A    between atoms: N_16  and  C_18
REMARK                            x       y       z     vdW  Elec       q    Type
REMARK                         _______ _______ _______ _____ _____    ______ ____
ROOT
ATOM      1  S   UNL     1      23.722  20.710  27.605  0.00  0.00    +0.000 S 
ATOM      2  O   UNL     1      25.171  20.707  27.521  0.00  0.00    +0.000 OA
ATOM      3  O   UNL     1      23.047  20.191  28.778  0.00  0.00    +0.000 OA
ATOM      4  N   UNL     1      23.156  22.296  27.239  0.00  0.00    +0.000 N 
ATOM      5  C   UNL     1      23.145  19.822  26.210  0.00  0.00    +0.000 A 
ATOM      6  C   UNL     1      23.091  20.499  24.994  0.00  0.00    +0.000 A 
ATOM      7  C   UNL     1      23.544  22.756  25.936  0.00  0.00    +0.000 C 
ATOM      8  C   UNL     1      23.517  21.907  24.882  0.00  0.00    +0.000 C 
ATOM      9  C   UNL     1      22.736  18.501  26.355  0.00  0.00    +0.000 A 
ATOM     10  C   UNL     1      21.758  22.635  27.555  0.00  0.00    +0.000 C 
ATOM     11  C   UNL     1      22.640  19.788  23.880  0.00  0.00    +0.000 A 
ATOM     12  C   UNL     1      22.279  17.818  25.235  0.00  0.00    +0.000 A 
ATOM     13  C   UNL     1      22.236  18.457  23.997  0.00  0.00    +0.000 A 
ENDROOT
BRANCH   7  14
ATOM     14  C   UNL     1      23.990  24.179  25.781  0.00  0.00    +0.000 C 
ATOM     15  O   UNL     1      25.164  24.415  25.499  0.00  0.00    +0.000 OA
ATOM     16  N   UNL     1      23.012  25.119  25.980  0.00  0.00    +0.000 N 
ATOM     17  H   UNL     1      22.053  24.837  26.144  0.00  0.00    +0.000 HD
BRANCH  16  18
ATOM     18  C   UNL     1      23.169  26.505  25.923  0.00  0.00    +0.000 A 
ATOM     19  N   UNL     1      23.200  27.110  27.128  0.00  0.00    +0.000 NA
ATOM     20  C   UNL     1      23.355  28.454  27.132  0.00  0.00    +0.000 A 
ATOM     21  C   UNL     1      23.482  29.227  25.992  0.00  0.00    +0.000 A 
ATOM     22  C   UNL     1      23.448  28.574  24.769  0.00  0.00    +0.000 A 
ATOM     23  C   UNL     1      23.290  27.194  24.725  0.00  0.00    +0.000 A 
ENDBRANCH  16  18
ENDBRANCH   7  14
BRANCH   8  24
ATOM     24  O   UNL     1      23.872  22.271  23.594  0.00  0.00    +0.000 OA
ATOM     25  H   UNL     1      24.735  22.744  23.609  0.00  0.00    +0.000 HD
ENDBRANCH   8  24
TORSDOF 3
ENDMDL
MODEL 5
REMARK VINA RESULT:      -5.8     10.609     14.088
REMARK  Name = Piroxicam.pdbqt.pdb
REMARK  3 active torsions:
REMARK  status: ('A' for Active; 'I' for Inactive)
REMARK    1  A    between atoms: C_7  and  C_14
REMARK    2  A    between atoms: C_8  and  O_24
REMARK    3  A    between atoms: N_16  and  C_18
REMARK                            x       y       z     vdW  Elec       q    Type
REMARK                         _______ _______ _______ _____ _____    ______ ____
ROOT
ATOM      1  S   UNL     1      12.845  20.378  29.976  0.00  0.00    +0.000 S 
ATOM      2  O   UNL     1      13.221  20.069  28.609  0.00  0.00    +0.000 OA
ATOM      3  O   UNL     1      12.464  21.726  30.352  0.00  0.00    +0.000 OA
ATOM      4  N   UNL     1      11.645  19.251  30.482  0.00  0.00    +0.000 N 
ATOM      5  C   UNL     1      14.197  19.898  30.979  0.00  0.00    +0.000 A 
ATOM      6  C   UNL     1      14.311  18.547  31.301  0.00  0.00    +0.000 A 
ATOM      7  C   UNL     1      12.080  17.885  30.421  0.00  0.00    +0.000 C 
ATOM      8  C   UNL     1      13.337  17.557  30.802  0.00  0.00    +0.000 C 
ATOM      9  C   UNL     1      15.086  20.859  31.446  0.00  0.00    +0.000 A 
ATOM     10  C   UNL     1      10.882  19.537  31.710  0.00  0.00    +0.000 C 
ATOM     11  C   UNL     1      15.394  18.162  32.094  0.00  0.00    +0.000 A 
ATOM     12  C   UNL     1      16.149  20.454  32.244  0.00  0.00    +0.000 A 
ATOM     13  C   UNL     1      16.307  19.107  32.563  0.00  0.00    +0.000 A 
ENDROOT
BRANCH   7  14
ATOM     14  C   UNL     1      11.123  16.848  29.913  0.00  0.00    +0.000 C 
ATOM     15  O   UNL     1      10.881  16.790  28.709  0.00  0.00    +0.000 OA
ATOM     16  N   UNL     1      10.582  16.036  30.877  0.00  0.00    +0.000 N 
ATOM     17  H   UNL     1      10.887  16.108  31.841  0.00  0.00    +0.000 HD
BRANCH  16  18
ATOM     18  C   UNL     1       9.651  15.017  30.676  0.00  0.00    +0.000 A 
ATOM     19  N   UNL     1       8.392  15.450  30.463  0.00  0.00    +0.000 NA
ATOM     20  C   UNL     1       7.447  14.503  30.258  0.00  0.00    +0.000 A 
ATOM     21  C   UNL     1       7.696  13.142  30.252  0.00  0.00    +0.000 A 
ATOM     22  C   UNL     1       9.002  12.730  30.471  0.00  0.00    +0.000 A 
ATOM     23  C   UNL     1       9.999  13.674  30.686  0.00  0.00    +0.000 A 
ENDBRANCH  16  18
ENDBRANCH   7  14
BRANCH   8  24
ATOM     24  O   UNL     1      13.835  16.265  30.777  0.00  0.00    +0.000 OA
ATOM     25  H   UNL     1      13.297  15.715  30.162  0.00  0.00    +0.000 HD
ENDBRANCH   8  24
TORSDOF 3
ENDMDL
MODEL 6
REMARK VINA RESULT:      -5.7     14.309     18.590
REMARK  Name = Piroxicam.pdbqt.pdb
REMARK  3 active torsions:
REMARK  status: ('A' for Active; 'I' for Inactive)
REMARK    1  A    between atoms: C_7  and  C_14
REMARK    2  A    between atoms: C_8  and  O_24
REMARK    3  A    between atoms: N_16  and  C_18
REMARK                            x       y       z     vdW  Elec       q    Type
REMARK                         _______ _______ _______ _____ _____    ______ ____
ROOT
ATOM      1  S   UNL     1       9.730  14.900  30.849  0.00  0.00    +0.000 S 
ATOM      2  O   UNL     1       9.174  14.425  29.596  0.00  0.00    +0.000 OA
ATOM      3  O   UNL     1       9.043  15.912  31.628  0.00  0.00    +0.000 OA
ATOM      4  N   UNL     1      10.105  13.537  31.833  0.00  0.00    +0.000 N 
ATOM      5  C   UNL     1      11.335  15.496  30.482  0.00  0.00    +0.000 A 
ATOM      6  C   UNL     1      12.359  14.558  30.367  0.00  0.00    +0.000 A 
ATOM      7  C   UNL     1      11.039  12.632  31.226  0.00  0.00    +0.000 C 
ATOM      8  C   UNL     1      12.097  13.115  30.533  0.00  0.00    +0.000 C 
ATOM      9  C   UNL     1      11.549  16.863  30.349  0.00  0.00    +0.000 A 
ATOM     10  C   UNL     1      10.390  13.756  33.262  0.00  0.00    +0.000 C 
ATOM     11  C   UNL     1      13.636  15.032  30.065  0.00  0.00    +0.000 A 
ATOM     12  C   UNL     1      12.832  17.312  30.061  0.00  0.00    +0.000 A 
ATOM     13  C   UNL     1      13.874  16.399  29.913  0.00  0.00    +0.000 A 
ENDROOT
BRANCH   7  14
ATOM     14  C   UNL     1      10.806  11.158  31.366  0.00  0.00    +0.000 C 
ATOM     15  O   UNL     1      11.687  10.452  31.854  0.00  0.00    +0.000 OA
ATOM     16  N   UNL     1       9.588  10.717  30.915  0.00  0.00    +0.000 N 
ATOM     17  H   UNL     1       8.892  11.377  30.587  0.00  0.00    +0.000 HD
BRANCH  16  18
ATOM     18  C   UNL     1       9.134   9.398  30.904  0.00  0.00    +0.000 A 
ATOM     19  N   UNL     1       9.447   8.712  29.786  0.00  0.00    +0.000 NA
ATOM     20  C   UNL     1       9.035   7.425  29.724  0.00  0.00    +0.000 A 
ATOM     21  C   UNL     1       8.327   6.784  30.725  0.00  0.00    +0.000 A 
ATOM     22  C   UNL     1       8.023   7.517  31.864  0.00  0.00    +0.000 A 
ATOM     23  C   UNL     1       8.430   8.842  31.963  0.00  0.00    +0.000 A 
ENDBRANCH  16  18
ENDBRANCH   7  14
BRANCH   8  24
ATOM     24  O   UNL     1      13.045  12.313  29.921  0.00  0.00    +0.000 OA
ATOM     25  H   UNL     1      13.307  12.710  29.058  0.00  0.00    +0.000 HD
ENDBRANCH   8  24
TORSDOF 3
ENDMDL
MODEL 7
REMARK VINA RESULT:      -5.6     14.418     14.941
REMARK  Name = Piroxicam.pdbqt.pdb
REMARK  3 active torsions:
REMARK  status: ('A' for Active; 'I' for Inactive)
REMARK    1  A    between atoms: C_7  and  C_14
REMARK    2  A    between atoms: C_8  and  O_24
REMARK    3  A    between atoms: N_16  and  C_18
REMARK                            x       y       z     vdW  Elec       q    Type
REMARK                         _______ _______ _______ _____ _____    ______ ____
ROOT
ATOM      1  S   UNL     1      23.850  21.320  27.471  0.00  0.00    +0.000 S 
ATOM      2  O   UNL     1      25.297  21.308  27.362  0.00  0.00    +0.000 OA
ATOM      3  O   UNL     1      23.198  20.961  28.715  0.00  0.00    +0.000 OA
ATOM      4  N   UNL     1      23.271  22.841  26.906  0.00  0.00    +0.000 N 
ATOM      5  C   UNL     1      23.252  20.251  26.219  0.00  0.00    +0.000 A 
ATOM      6  C   UNL     1      23.173  20.759  24.923  0.00  0.00    +0.000 A 
ATOM      7  C   UNL     1      23.635  23.123  25.546  0.00  0.00    +0.000 C 
ATOM      8  C   UNL     1      23.593  22.140  24.616  0.00  0.00    +0.000 C 
ATOM      9  C   UNL     1      22.851  18.962  26.547  0.00  0.00    +0.000 A 
ATOM     10  C   UNL     1      21.878  23.218  27.198  0.00  0.00    +0.000 C 
ATOM     11  C   UNL     1      22.706  19.904  23.924  0.00  0.00    +0.000 A 
ATOM     12  C   UNL     1      22.376  18.134  25.537  0.00  0.00    +0.000 A 
ATOM     13  C   UNL     1      22.309  18.601  24.226  0.00  0.00    +0.000 A 
ENDROOT
BRANCH   7  14
ATOM     14  C   UNL     1      24.073  24.513  25.193  0.00  0.00    +0.000 C 
ATOM     15  O   UNL     1      23.306  25.454  25.389  0.00  0.00    +0.000 OA
ATOM     16  N   UNL     1      25.332  24.607  24.659  0.00  0.00    +0.000 N 
ATOM     17  H   UNL     1      25.925  23.787  24.592  0.00  0.00    +0.000 HD
BRANCH  16  18
ATOM     18  C   UNL     1      25.964  25.772  24.223  0.00  0.00    +0.000 A 
ATOM     19  N   UNL     1      26.613  26.447  25.193  0.00  0.00    +0.000 NA
ATOM     20  C   UNL     1      27.248  27.584  24.825  0.00  0.00    +0.000 A 
ATOM     21  C   UNL     1      27.271  28.081  23.535  0.00  0.00    +0.000 A 
ATOM     22  C   UNL     1      26.596  27.361  22.560  0.00  0.00    +0.000 A 
ATOM     23  C   UNL     1      25.931  26.189  22.900  0.00  0.00    +0.000 A 
ENDBRANCH  16  18
ENDBRANCH   7  14
BRANCH   8  24
ATOM     24  O   UNL     1      23.923  22.328  23.284  0.00  0.00    +0.000 OA
ATOM     25  H   UNL     1      23.236  21.916  22.712  0.00  0.00    +0.000 HD
ENDBRANCH   8  24
TORSDOF 3
ENDMDL
MODEL 8
REMARK VINA RESULT:      -5.6     26.427     27.972
REMARK  Name = Piroxicam.pdbqt.pdb
REMARK  3 active torsions:
REMARK  status: ('A' for Active; 'I' for Inactive)
REMARK    1  A    between atoms: C_7  and  C_14
REMARK    2  A    between atoms: C_8  and  O_24
REMARK    3  A    between atoms: N_16  and  C_18
REMARK                            x       y       z     vdW  Elec       q    Type
REMARK                         _______ _______ _______ _____ _____    ______ ____
ROOT
ATOM      1  S   UNL     1      19.579  22.471   1.997  0.00  0.00    +0.000 S 
ATOM      2  O   UNL     1      19.297  21.888   3.296  0.00  0.00    +0.000 OA
ATOM      3  O   UNL     1      20.838  22.209   1.326  0.00  0.00    +0.000 OA
ATOM      4  N   UNL     1      18.257  22.133   0.946  0.00  0.00    +0.000 N 
ATOM      5  C   UNL     1      19.418  24.204   2.188  0.00  0.00    +0.000 A 
ATOM      6  C   UNL     1      18.131  24.736   2.163  0.00  0.00    +0.000 A 
ATOM      7  C   UNL     1      17.003  22.647   1.420  0.00  0.00    +0.000 C 
ATOM      8  C   UNL     1      16.947  23.870   1.997  0.00  0.00    +0.000 C 
ATOM      9  C   UNL     1      20.555  24.991   2.326  0.00  0.00    +0.000 A 
ATOM     10  C   UNL     1      18.434  22.346  -0.501  0.00  0.00    +0.000 C 
ATOM     11  C   UNL     1      18.001  26.117   2.325  0.00  0.00    +0.000 A 
ATOM     12  C   UNL     1      20.402  26.364   2.472  0.00  0.00    +0.000 A 
ATOM     13  C   UNL     1      19.127  26.927   2.478  0.00  0.00    +0.000 A 
ENDROOT
BRANCH   7  14
ATOM     14  C   UNL     1      15.778  21.795   1.276  0.00  0.00    +0.000 C 
ATOM     15  O   UNL     1      14.849  22.191   0.574  0.00  0.00    +0.000 OA
ATOM     16  N   UNL     1      15.806  20.614   1.972  0.00  0.00    +0.000 N 
ATOM     17  H   UNL     1      16.640  20.334   2.476  0.00  0.00    +0.000 HD
BRANCH  16  18
ATOM     18  C   UNL     1      14.789  19.660   2.031  0.00  0.00    +0.000 A 
ATOM     19  N   UNL     1      15.148  18.439   1.586  0.00  0.00    +0.000 NA
ATOM     20  C   UNL     1      14.201  17.474   1.624  0.00  0.00    +0.000 A 
ATOM     21  C   UNL     1      12.911  17.664   2.086  0.00  0.00    +0.000 A 
ATOM     22  C   UNL     1      12.575  18.932   2.539  0.00  0.00    +0.000 A 
ATOM     23  C   UNL     1      13.521  19.950   2.514  0.00  0.00    +0.000 A 
ENDBRANCH  16  18
ENDBRANCH   7  14
BRANCH   8  24
ATOM     24  O   UNL     1      15.781  24.441   2.477  0.00  0.00    +0.000 OA
ATOM     25  H   UNL     1      15.854  25.422   2.444  0.00  0.00    +0.000 HD
ENDBRANCH   8  24
TORSDOF 3
ENDMDL
MODEL 9
REMARK VINA RESULT:      -5.4     20.780     22.252
REMARK  Name = Piroxicam.pdbqt.pdb
REMARK  3 active torsions:
REMARK  status: ('A' for Active; 'I' for Inactive)
REMARK    1  A    between atoms: C_7  and  C_14
REMARK    2  A    between atoms: C_8  and  O_24
REMARK    3  A    between atoms: N_16  and  C_18
REMARK                            x       y       z     vdW  Elec       q    Type
REMARK                         _______ _______ _______ _____ _____    ______ ____
ROOT
ATOM      1  S   UNL     1      22.712  12.976  26.518  0.00  0.00    +0.000 S 
ATOM      2  O   UNL     1      21.719  13.142  25.474  0.00  0.00    +0.000 OA
ATOM      3  O   UNL     1      22.369  12.331  27.770  0.00  0.00    +0.000 OA
ATOM      4  N   UNL     1      24.113  12.246  25.830  0.00  0.00    +0.000 N 
ATOM      5  C   UNL     1      23.318  14.578  26.882  0.00  0.00    +0.000 A 
ATOM      6  C   UNL     1      24.282  15.110  26.029  0.00  0.00    +0.000 A 
ATOM      7  C   UNL     1      24.690  13.009  24.761  0.00  0.00    +0.000 C 
ATOM      8  C   UNL     1      24.764  14.358  24.855  0.00  0.00    +0.000 C 
ATOM      9  C   UNL     1      22.854  15.251  28.006  0.00  0.00    +0.000 A 
ATOM     10  C   UNL     1      25.136  11.693  26.734  0.00  0.00    +0.000 C 
ATOM     11  C   UNL     1      24.758  16.391  26.314  0.00  0.00    +0.000 A 
ATOM     12  C   UNL     1      23.352  16.520  28.276  0.00  0.00    +0.000 A 
ATOM     13  C   UNL     1      24.298  17.093  27.429  0.00  0.00    +0.000 A 
ENDROOT
BRANCH   7  14
ATOM     14  C   UNL     1      25.186  12.283  23.546  0.00  0.00    +0.000 C 
ATOM     15  O   UNL     1      24.424  11.531  22.941  0.00  0.00    +0.000 OA
ATOM     16  N   UNL     1      26.494  12.531  23.215  0.00  0.00    +0.000 N 
ATOM     17  H   UNL     1      27.033  13.218  23.730  0.00  0.00    +0.000 HD
BRANCH  16  18
ATOM     18  C   UNL     1      27.203  11.966  22.154  0.00  0.00    +0.000 A 
ATOM     19  N   UNL     1      27.331  10.625  22.224  0.00  0.00    +0.000 NA
ATOM     20  C   UNL     1      28.007  10.024  21.219  0.00  0.00    +0.000 A 
ATOM     21  C   UNL     1      28.561  10.693  20.142  0.00  0.00    +0.000 A 
ATOM     22  C   UNL     1      28.409  12.072  20.099  0.00  0.00    +0.000 A 
ATOM     23  C   UNL     1      27.721  12.725  21.115  0.00  0.00    +0.000 A 
ENDBRANCH  16  18
ENDBRANCH   7  14
BRANCH   8  24
ATOM     24  O   UNL     1      25.308  15.167  23.872  0.00  0.00    +0.000 OA
ATOM     25  H   UNL     1      24.852  15.001  23.015  0.00  0.00    +0.000 HD
ENDBRANCH   8  24
TORSDOF 3
ENDMDL
