MODEL 1
REMARK VINA RESULT:      -5.8      0.000      0.000
REMARK  Name = PKR_Inhibitor.pdbqt.pdb
REMARK  0 active torsions:
REMARK  status: ('A' for Active; 'I' for Inactive)
REMARK                            x       y       z     vdW  Elec       q    Type
REMARK                         _______ _______ _______ _____ _____    ______ ____
ROOT
ATOM      1  S   UNL     1      19.045  -1.562  15.380  0.00  0.00    +0.000 S 
ATOM      2  O   UNL     1      18.774  -0.747  21.098  0.00  0.00    +0.000 OA
ATOM      3  N   UNL     1      20.440   0.201  19.745  0.00  0.00    +0.000 N 
ATOM      4  N   UNL     1      21.063  -0.312  14.314  0.00  0.00    +0.000 NA
ATOM      5  C   UNL     1      19.845  -0.585  17.687  0.00  0.00    +0.000 A 
ATOM      6  C   UNL     1      20.780   0.206  18.401  0.00  0.00    +0.000 A 
ATOM      7  C   UNL     1      18.871  -1.102  18.689  0.00  0.00    +0.000 C 
ATOM      8  C   UNL     1      20.061  -0.667  16.353  0.00  0.00    +0.000 A 
ATOM      9  C   UNL     1      19.304  -0.560  20.019  0.00  0.00    +0.000 C 
ATOM     10  C   UNL     1      21.091  -0.052  15.674  0.00  0.00    +0.000 A 
ATOM     11  C   UNL     1      21.859   0.875  17.829  0.00  0.00    +0.000 A 
ATOM     12  C   UNL     1      17.837  -1.866  18.533  0.00  0.00    +0.000 C 
ATOM     13  C   UNL     1      21.998   0.727  16.430  0.00  0.00    +0.000 A 
ATOM     14  C   UNL     1      20.032  -1.091  14.059  0.00  0.00    +0.000 A 
ATOM     15  H   UNL     1      20.947   0.690  20.471  0.00  0.00    +0.000 HD
ATOM     16  C   UNL     1      16.694  -2.696  18.446  0.00  0.00    +0.000 C 
ATOM     17  N   UNL     1      15.911  -3.065  19.504  0.00  0.00    +0.000 N 
ATOM     18  C   UNL     1      14.912  -3.863  19.020  0.00  0.00    +0.000 C 
ATOM     19  H   UNL     1      16.041  -2.801  20.471  0.00  0.00    +0.000 HD
ATOM     20  N   UNL     1      15.014  -4.022  17.719  0.00  0.00    +0.000 NA
ATOM     21  C   UNL     1      16.122  -3.299  17.350  0.00  0.00    +0.000 C 
ENDROOT
TORSDOF 0
ENDMDL
MODEL 2
REMARK VINA RESULT:      -5.7     22.530     24.103
REMARK  Name = PKR_Inhibitor.pdbqt.pdb
REMARK  0 active torsions:
REMARK  status: ('A' for Active; 'I' for Inactive)
REMARK                            x       y       z     vdW  Elec       q    Type
REMARK                         _______ _______ _______ _____ _____    ______ ____
ROOT
ATOM      1  S   UNL     1       7.755  16.080  32.273  0.00  0.00    +0.000 S 
ATOM      2  O   UNL     1      12.274  16.140  28.666  0.00  0.00    +0.000 OA
ATOM      3  N   UNL     1      10.918  18.015  29.053  0.00  0.00    +0.000 N 
ATOM      4  N   UNL     1       6.561  18.389  32.373  0.00  0.00    +0.000 NA
ATOM      5  C   UNL     1       9.416  17.177  30.553  0.00  0.00    +0.000 A 
ATOM      6  C   UNL     1       9.806  18.326  29.821  0.00  0.00    +0.000 A 
ATOM      7  C   UNL     1      10.374  16.094  30.190  0.00  0.00    +0.000 C 
ATOM      8  C   UNL     1       8.334  17.342  31.350  0.00  0.00    +0.000 A 
ATOM      9  C   UNL     1      11.336  16.693  29.207  0.00  0.00    +0.000 C 
ATOM     10  C   UNL     1       7.619  18.512  31.489  0.00  0.00    +0.000 A 
ATOM     11  C   UNL     1       9.166  19.561  29.876  0.00  0.00    +0.000 A 
ATOM     12  C   UNL     1      10.437  14.865  30.591  0.00  0.00    +0.000 C 
ATOM     13  C   UNL     1       8.048  19.632  30.738  0.00  0.00    +0.000 A 
ATOM     14  C   UNL     1       6.546  17.156  32.837  0.00  0.00    +0.000 A 
ATOM     15  H   UNL     1      11.395  18.660  28.439  0.00  0.00    +0.000 HD
ATOM     16  C   UNL     1      10.574  13.511  30.979  0.00  0.00    +0.000 C 
ATOM     17  N   UNL     1      11.542  12.659  30.526  0.00  0.00    +0.000 N 
ATOM     18  C   UNL     1      11.342  11.448  31.127  0.00  0.00    +0.000 C 
ATOM     19  H   UNL     1      12.275  12.878  29.865  0.00  0.00    +0.000 HD
ATOM     20  N   UNL     1      10.306  11.479  31.936  0.00  0.00    +0.000 NA
ATOM     21  C   UNL     1       9.818  12.761  31.851  0.00  0.00    +0.000 C 
ENDROOT
TORSDOF 0
ENDMDL
MODEL 3
REMARK VINA RESULT:      -5.7     22.818     25.298
REMARK  Name = PKR_Inhibitor.pdbqt.pdb
REMARK  0 active torsions:
REMARK  status: ('A' for Active; 'I' for Inactive)
REMARK                            x       y       z     vdW  Elec       q    Type
REMARK                         _______ _______ _______ _____ _____    ______ ____
ROOT
ATOM      1  S   UNL     1      22.277  21.049  28.881  0.00  0.00    +0.000 S 
ATOM      2  O   UNL     1      23.298  21.777  23.237  0.00  0.00    +0.000 OA
ATOM      3  N   UNL     1      22.865  19.683  24.201  0.00  0.00    +0.000 N 
ATOM      4  N   UNL     1      21.851  18.552  29.478  0.00  0.00    +0.000 NA
ATOM      5  C   UNL     1      22.580  20.251  26.393  0.00  0.00    +0.000 A 
ATOM      6  C   UNL     1      22.592  19.180  25.464  0.00  0.00    +0.000 A 
ATOM      7  C   UNL     1      22.870  21.491  25.618  0.00  0.00    +0.000 C 
ATOM      8  C   UNL     1      22.324  19.898  27.675  0.00  0.00    +0.000 A 
ATOM      9  C   UNL     1      23.048  21.066  24.191  0.00  0.00    +0.000 C 
ATOM     10  C   UNL     1      22.083  18.614  28.114  0.00  0.00    +0.000 A 
ATOM     11  C   UNL     1      22.364  17.845  25.785  0.00  0.00    +0.000 A 
ATOM     12  C   UNL     1      22.966  22.720  26.013  0.00  0.00    +0.000 C 
ATOM     13  C   UNL     1      22.105  17.579  27.150  0.00  0.00    +0.000 A 
ATOM     14  C   UNL     1      21.930  19.771  29.971  0.00  0.00    +0.000 A 
ATOM     15  H   UNL     1      22.930  19.126  23.360  0.00  0.00    +0.000 HD
ATOM     16  C   UNL     1      23.088  24.086  26.364  0.00  0.00    +0.000 C 
ATOM     17  N   UNL     1      23.363  25.099  25.489  0.00  0.00    +0.000 N 
ATOM     18  C   UNL     1      23.399  26.264  26.203  0.00  0.00    +0.000 C 
ATOM     19  H   UNL     1      23.514  25.011  24.493  0.00  0.00    +0.000 HD
ATOM     20  N   UNL     1      23.164  26.051  27.479  0.00  0.00    +0.000 NA
ATOM     21  C   UNL     1      22.968  24.696  27.591  0.00  0.00    +0.000 C 
ENDROOT
TORSDOF 0
ENDMDL
MODEL 4
REMARK VINA RESULT:      -5.6     22.774     24.349
REMARK  Name = PKR_Inhibitor.pdbqt.pdb
REMARK  0 active torsions:
REMARK  status: ('A' for Active; 'I' for Inactive)
REMARK                            x       y       z     vdW  Elec       q    Type
REMARK                         _______ _______ _______ _____ _____    ______ ____
ROOT
ATOM      1  S   UNL     1       9.725  15.706  30.869  0.00  0.00    +0.000 S 
ATOM      2  O   UNL     1      12.978  20.247  29.373  0.00  0.00    +0.000 OA
ATOM      3  N   UNL     1      13.803  18.053  29.463  0.00  0.00    +0.000 N 
ATOM      4  N   UNL     1      11.078  13.484  30.822  0.00  0.00    +0.000 NA
ATOM      5  C   UNL     1      11.943  16.902  30.115  0.00  0.00    +0.000 A 
ATOM      6  C   UNL     1      13.313  16.792  29.769  0.00  0.00    +0.000 A 
ATOM      7  C   UNL     1      11.590  18.346  30.006  0.00  0.00    +0.000 C 
ATOM      8  C   UNL     1      11.336  15.736  30.439  0.00  0.00    +0.000 A 
ATOM      9  C   UNL     1      12.840  19.056  29.576  0.00  0.00    +0.000 C 
ATOM     10  C   UNL     1      11.943  14.499  30.451  0.00  0.00    +0.000 A 
ATOM     11  C   UNL     1      14.036  15.602  29.744  0.00  0.00    +0.000 A 
ATOM     12  C   UNL     1      10.465  18.950  30.219  0.00  0.00    +0.000 C 
ATOM     13  C   UNL     1      13.312  14.440  30.098  0.00  0.00    +0.000 A 
ATOM     14  C   UNL     1       9.894  14.011  31.061  0.00  0.00    +0.000 A 
ATOM     15  H   UNL     1      14.754  18.251  29.183  0.00  0.00    +0.000 HD
ATOM     16  C   UNL     1       9.274  19.684  30.432  0.00  0.00    +0.000 C 
ATOM     17  N   UNL     1       9.146  21.035  30.274  0.00  0.00    +0.000 N 
ATOM     18  C   UNL     1       7.853  21.366  30.571  0.00  0.00    +0.000 C 
ATOM     19  H   UNL     1       9.872  21.680  29.991  0.00  0.00    +0.000 HD
ATOM     20  N   UNL     1       7.152  20.306  30.906  0.00  0.00    +0.000 NA
ATOM     21  C   UNL     1       8.028  19.251  30.823  0.00  0.00    +0.000 C 
ENDROOT
TORSDOF 0
ENDMDL
MODEL 5
REMARK VINA RESULT:      -5.5     24.826     25.624
REMARK  Name = PKR_Inhibitor.pdbqt.pdb
REMARK  0 active torsions:
REMARK  status: ('A' for Active; 'I' for Inactive)
REMARK                            x       y       z     vdW  Elec       q    Type
REMARK                         _______ _______ _______ _____ _____    ______ ____
ROOT
ATOM      1  S   UNL     1       0.933  15.568   5.880  0.00  0.00    +0.000 S 
ATOM      2  O   UNL     1       6.045  12.877   5.630  0.00  0.00    +0.000 OA
ATOM      3  N   UNL     1       5.327  14.417   4.013  0.00  0.00    +0.000 N 
ATOM      4  N   UNL     1       0.584  17.180   3.867  0.00  0.00    +0.000 NA
ATOM      5  C   UNL     1       3.275  14.996   4.827  0.00  0.00    +0.000 A 
ATOM      6  C   UNL     1       4.210  15.206   3.782  0.00  0.00    +0.000 A 
ATOM      7  C   UNL     1       3.886  14.001   5.753  0.00  0.00    +0.000 C 
ATOM      8  C   UNL     1       2.129  15.709   4.725  0.00  0.00    +0.000 A 
ATOM      9  C   UNL     1       5.227  13.655   5.177  0.00  0.00    +0.000 C 
ATOM     10  C   UNL     1       1.827  16.592   3.711  0.00  0.00    +0.000 A 
ATOM     11  C   UNL     1       4.021  16.069   2.706  0.00  0.00    +0.000 A 
ATOM     12  C   UNL     1       3.428  13.487   6.850  0.00  0.00    +0.000 C 
ATOM     13  C   UNL     1       2.793  16.768   2.691  0.00  0.00    +0.000 A 
ATOM     14  C   UNL     1       0.036  16.711   4.970  0.00  0.00    +0.000 A 
ATOM     15  H   UNL     1       6.141  14.381   3.415  0.00  0.00    +0.000 HD
ATOM     16  C   UNL     1       2.999  12.881   8.054  0.00  0.00    +0.000 C 
ATOM     17  N   UNL     1       3.721  11.971   8.775  0.00  0.00    +0.000 N 
ATOM     18  C   UNL     1       2.975  11.621   9.866  0.00  0.00    +0.000 C 
ATOM     19  H   UNL     1       4.640  11.616   8.548  0.00  0.00    +0.000 HD
ATOM     20  N   UNL     1       1.823  12.255   9.881  0.00  0.00    +0.000 NA
ATOM     21  C   UNL     1       1.827  13.043   8.755  0.00  0.00    +0.000 C 
ENDROOT
TORSDOF 0
ENDMDL
MODEL 6
REMARK VINA RESULT:      -5.5     23.629     25.418
REMARK  Name = PKR_Inhibitor.pdbqt.pdb
REMARK  0 active torsions:
REMARK  status: ('A' for Active; 'I' for Inactive)
REMARK                            x       y       z     vdW  Elec       q    Type
REMARK                         _______ _______ _______ _____ _____    ______ ____
ROOT
ATOM      1  S   UNL     1      14.235  18.483  30.544  0.00  0.00    +0.000 S 
ATOM      2  O   UNL     1       8.601  19.688  30.060  0.00  0.00    +0.000 OA
ATOM      3  N   UNL     1       9.452  17.502  30.019  0.00  0.00    +0.000 N 
ATOM      4  N   UNL     1      14.694  15.923  30.445  0.00  0.00    +0.000 NA
ATOM      5  C   UNL     1      11.688  17.890  30.261  0.00  0.00    +0.000 A 
ATOM      6  C   UNL     1      10.694  16.891  30.107  0.00  0.00    +0.000 A 
ATOM      7  C   UNL     1      10.980  19.201  30.265  0.00  0.00    +0.000 C 
ATOM      8  C   UNL     1      12.957  17.427  30.359  0.00  0.00    +0.000 A 
ATOM      9  C   UNL     1       9.520  18.893  30.105  0.00  0.00    +0.000 C 
ATOM     10  C   UNL     1      13.327  16.100  30.321  0.00  0.00    +0.000 A 
ATOM     11  C   UNL     1      10.941  15.522  30.054  0.00  0.00    +0.000 A 
ATOM     12  C   UNL     1      11.446  20.403  30.379  0.00  0.00    +0.000 C 
ATOM     13  C   UNL     1      12.298  15.141  30.166  0.00  0.00    +0.000 A 
ATOM     14  C   UNL     1      15.259  17.107  30.567  0.00  0.00    +0.000 A 
ATOM     15  H   UNL     1       8.575  17.014  29.906  0.00  0.00    +0.000 HD
ATOM     16  C   UNL     1      11.876  21.746  30.496  0.00  0.00    +0.000 C 
ATOM     17  N   UNL     1      11.054  22.838  30.479  0.00  0.00    +0.000 N 
ATOM     18  C   UNL     1      11.838  23.949  30.618  0.00  0.00    +0.000 C 
ATOM     19  H   UNL     1      10.048  22.832  30.381  0.00  0.00    +0.000 HD
ATOM     20  N   UNL     1      13.109  23.628  30.723  0.00  0.00    +0.000 NA
ATOM     21  C   UNL     1      13.145  22.257  30.648  0.00  0.00    +0.000 C 
ENDROOT
TORSDOF 0
ENDMDL
MODEL 7
REMARK VINA RESULT:      -5.3     35.311     35.335
REMARK  Name = PKR_Inhibitor.pdbqt.pdb
REMARK  0 active torsions:
REMARK  status: ('A' for Active; 'I' for Inactive)
REMARK                            x       y       z     vdW  Elec       q    Type
REMARK                         _______ _______ _______ _____ _____    ______ ____
ROOT
ATOM      1  S   UNL     1      -1.164  27.488  11.920  0.00  0.00    +0.000 S 
ATOM      2  O   UNL     1       0.478  28.831  17.298  0.00  0.00    +0.000 OA
ATOM      3  N   UNL     1       1.294  29.934  15.396  0.00  0.00    +0.000 N 
ATOM      4  N   UNL     1       0.009  28.984  10.143  0.00  0.00    +0.000 NA
ATOM      5  C   UNL     1       0.182  28.837  13.732  0.00  0.00    +0.000 A 
ATOM      6  C   UNL     1       1.116  29.864  14.023  0.00  0.00    +0.000 A 
ATOM      7  C   UNL     1      -0.227  28.250  15.040  0.00  0.00    +0.000 C 
ATOM      8  C   UNL     1      -0.086  28.659  12.417  0.00  0.00    +0.000 A 
ATOM      9  C   UNL     1       0.528  29.002  16.096  0.00  0.00    +0.000 C 
ATOM     10  C   UNL     1       0.469  29.385  11.385  0.00  0.00    +0.000 A 
ATOM     11  C   UNL     1       1.743  30.663  13.071  0.00  0.00    +0.000 A 
ATOM     12  C   UNL     1      -1.055  27.290  15.302  0.00  0.00    +0.000 C 
ATOM     13  C   UNL     1       1.395  30.399  11.726  0.00  0.00    +0.000 A 
ATOM     14  C   UNL     1      -0.849  27.998  10.314  0.00  0.00    +0.000 A 
ATOM     15  H   UNL     1       1.909  30.585  15.866  0.00  0.00    +0.000 HD
ATOM     16  C   UNL     1      -1.942  26.251  15.672  0.00  0.00    +0.000 C 
ATOM     17  N   UNL     1      -2.190  25.851  16.956  0.00  0.00    +0.000 N 
ATOM     18  C   UNL     1      -3.097  24.830  16.903  0.00  0.00    +0.000 C 
ATOM     19  H   UNL     1      -1.780  26.235  17.796  0.00  0.00    +0.000 HD
ATOM     20  N   UNL     1      -3.441  24.558  15.663  0.00  0.00    +0.000 NA
ATOM     21  C   UNL     1      -2.726  25.438  14.887  0.00  0.00    +0.000 C 
ENDROOT
TORSDOF 0
ENDMDL
MODEL 8
REMARK VINA RESULT:      -5.3     36.395     36.893
REMARK  Name = PKR_Inhibitor.pdbqt.pdb
REMARK  0 active torsions:
REMARK  status: ('A' for Active; 'I' for Inactive)
REMARK                            x       y       z     vdW  Elec       q    Type
REMARK                         _______ _______ _______ _____ _____    ______ ____
ROOT
ATOM      1  S   UNL     1       0.414  29.616  10.488  0.00  0.00    +0.000 S 
ATOM      2  O   UNL     1       3.417  31.651  14.990  0.00  0.00    +0.000 OA
ATOM      3  N   UNL     1       1.900  29.869  15.161  0.00  0.00    +0.000 N 
ATOM      4  N   UNL     1      -1.136  27.640  11.166  0.00  0.00    +0.000 NA
ATOM      5  C   UNL     1       1.168  29.699  13.006  0.00  0.00    +0.000 A 
ATOM      6  C   UNL     1       1.055  29.167  14.315  0.00  0.00    +0.000 A 
ATOM      7  C   UNL     1       2.161  30.808  13.080  0.00  0.00    +0.000 C 
ATOM      8  C   UNL     1       0.390  29.100  12.073  0.00  0.00    +0.000 A 
ATOM      9  C   UNL     1       2.610  30.879  14.510  0.00  0.00    +0.000 C 
ATOM     10  C   UNL     1      -0.468  28.048  12.308  0.00  0.00    +0.000 A 
ATOM     11  C   UNL     1       0.225  28.109  14.676  0.00  0.00    +0.000 A 
ATOM     12  C   UNL     1       2.603  31.598  12.154  0.00  0.00    +0.000 C 
ATOM     13  C   UNL     1      -0.546  27.552  13.630  0.00  0.00    +0.000 A 
ATOM     14  C   UNL     1      -0.744  28.396  10.160  0.00  0.00    +0.000 A 
ATOM     15  H   UNL     1       2.009  29.688  16.149  0.00  0.00    +0.000 HD
ATOM     16  C   UNL     1       3.134  32.499  11.201  0.00  0.00    +0.000 C 
ATOM     17  N   UNL     1       4.060  33.468  11.469  0.00  0.00    +0.000 N 
ATOM     18  C   UNL     1       4.320  34.127  10.300  0.00  0.00    +0.000 C 
ATOM     19  H   UNL     1       4.479  33.669  12.367  0.00  0.00    +0.000 HD
ATOM     20  N   UNL     1       3.616  33.633   9.305  0.00  0.00    +0.000 NA
ATOM     21  C   UNL     1       2.872  32.617   9.856  0.00  0.00    +0.000 C 
ENDROOT
TORSDOF 0
ENDMDL
MODEL 9
REMARK VINA RESULT:      -5.1     25.140     26.184
REMARK  Name = PKR_Inhibitor.pdbqt.pdb
REMARK  0 active torsions:
REMARK  status: ('A' for Active; 'I' for Inactive)
REMARK                            x       y       z     vdW  Elec       q    Type
REMARK                         _______ _______ _______ _____ _____    ______ ____
ROOT
ATOM      1  S   UNL     1      -1.268  14.633  21.919  0.00  0.00    +0.000 S 
ATOM      2  O   UNL     1       1.972  16.856  26.161  0.00  0.00    +0.000 OA
ATOM      3  N   UNL     1       0.705  18.174  24.691  0.00  0.00    +0.000 N 
ATOM      4  N   UNL     1      -2.488  16.483  20.556  0.00  0.00    +0.000 NA
ATOM      5  C   UNL     1      -0.245  16.577  23.366  0.00  0.00    +0.000 A 
ATOM      6  C   UNL     1      -0.143  17.969  23.613  0.00  0.00    +0.000 A 
ATOM      7  C   UNL     1       0.613  15.900  24.379  0.00  0.00    +0.000 C 
ATOM      8  C   UNL     1      -1.049  16.234  22.332  0.00  0.00    +0.000 A 
ATOM      9  C   UNL     1       1.212  16.987  25.221  0.00  0.00    +0.000 C 
ATOM     10  C   UNL     1      -1.746  17.118  21.537  0.00  0.00    +0.000 A 
ATOM     11  C   UNL     1      -0.797  18.958  22.883  0.00  0.00    +0.000 A 
ATOM     12  C   UNL     1       0.850  14.641  24.567  0.00  0.00    +0.000 C 
ATOM     13  C   UNL     1      -1.613  18.497  21.824  0.00  0.00    +0.000 A 
ATOM     14  C   UNL     1      -2.306  15.183  20.671  0.00  0.00    +0.000 A 
ATOM     15  H   UNL     1       0.947  19.079  25.072  0.00  0.00    +0.000 HD
ATOM     16  C   UNL     1       1.161  13.287  24.836  0.00  0.00    +0.000 C 
ATOM     17  N   UNL     1       1.988  12.855  25.835  0.00  0.00    +0.000 N 
ATOM     18  C   UNL     1       2.035  11.490  25.773  0.00  0.00    +0.000 C 
ATOM     19  H   UNL     1       2.480  13.435  26.501  0.00  0.00    +0.000 HD
ATOM     20  N   UNL     1       1.286  11.029  24.796  0.00  0.00    +0.000 NA
ATOM     21  C   UNL     1       0.736  12.141  24.204  0.00  0.00    +0.000 C 
ENDROOT
TORSDOF 0
ENDMDL
