MODEL 1
REMARK VINA RESULT:      -6.1      0.000      0.000
REMARK  Name = 
REMARK  14 active torsions:
REMARK  status: ('A' for Active; 'I' for Inactive)
REMARK    1  A    between atoms: O_1  and  C_14
REMARK    2  A    between atoms: O_1  and  C_15
REMARK    3  A    between atoms: O_4  and  C_16
REMARK    4  A    between atoms: O_5  and  C_18
REMARK    5  A    between atoms: O_6  and  C_26
REMARK    6  A    between atoms: O_7  and  C_29
REMARK    7  A    between atoms: O_8  and  C_35
REMARK    8  A    between atoms: O_9  and  C_36
REMARK    9  A    between atoms: O_10  and  C_39
REMARK   10  A    between atoms: O_11  and  C_40
REMARK   11  A    between atoms: O_12  and  C_41
REMARK   12  A    between atoms: O_13  and  C_43
REMARK   13  A    between atoms: C_14  and  C_20
REMARK   14  A    between atoms: C_17  and  C_24
REMARK                            x       y       z     vdW  Elec       q    Type
REMARK                         _______ _______ _______ _____ _____    ______ ____
ROOT
ATOM      1  O   UNL     1      25.597  10.319  26.732  0.00  0.00    +0.000 OA
ATOM      2  C   UNL     1      24.980   9.895  25.508  0.00  0.00    +0.000 C 
ATOM      3  C   UNL     1      23.694   9.059  25.789  0.00  0.00    +0.000 C 
ATOM      4  C   UNL     1      24.014   7.876  26.698  0.00  0.00    +0.000 C 
ATOM      5  C   UNL     1      24.829   8.304  27.882  0.00  0.00    +0.000 A 
ATOM      6  C   UNL     1      25.572   9.486  27.815  0.00  0.00    +0.000 A 
ATOM      7  C   UNL     1      24.910   7.536  29.052  0.00  0.00    +0.000 A 
ATOM      8  C   UNL     1      26.357   9.893  28.896  0.00  0.00    +0.000 A 
ATOM      9  C   UNL     1      25.706   7.923  30.127  0.00  0.00    +0.000 A 
ATOM     10  C   UNL     1      26.422   9.107  30.041  0.00  0.00    +0.000 A 
ENDROOT
BRANCH   2  11
ATOM     11  C   UNL     1      25.945   9.130  24.582  0.00  0.00    +0.000 A 
ATOM     12  C   UNL     1      25.470   8.503  23.409  0.00  0.00    +0.000 A 
ATOM     13  C   UNL     1      27.324   9.047  24.867  0.00  0.00    +0.000 A 
ATOM     14  C   UNL     1      26.348   7.816  22.575  0.00  0.00    +0.000 A 
ATOM     15  C   UNL     1      28.196   8.342  24.031  0.00  0.00    +0.000 A 
ATOM     16  C   UNL     1      27.697   7.728  22.897  0.00  0.00    +0.000 A 
BRANCH  14  17
ATOM     17  O   UNL     1      25.940   7.211  21.420  0.00  0.00    +0.000 OA
ATOM     18  H   UNL     1      26.505   6.432  21.242  0.00  0.00    +0.000 HD
ENDBRANCH  14  17
BRANCH  16  19
ATOM     19  O   UNL     1      28.549   7.043  22.078  0.00  0.00    +0.000 OA
ATOM     20  H   UNL     1      28.219   6.121  22.101  0.00  0.00    +0.000 HD
ENDBRANCH  16  19
ENDBRANCH   2  11
BRANCH   3  21
ATOM     21  O   UNL     1      22.652   9.854  26.421  0.00  0.00    +0.000 OA
ATOM     22  H   UNL     1      22.784  10.761  26.076  0.00  0.00    +0.000 HD
ENDBRANCH   3  21
BRANCH   4  23
ATOM     23  O   UNL     1      22.789   7.277  27.155  0.00  0.00    +0.000 OA
ATOM     24  H   UNL     1      22.482   6.745  26.387  0.00  0.00    +0.000 HD
ENDBRANCH   4  23
BRANCH   7  25
ATOM     25  O   UNL     1      24.196   6.377  29.201  0.00  0.00    +0.000 OA
ATOM     26  H   UNL     1      23.719   6.221  28.356  0.00  0.00    +0.000 HD
ENDBRANCH   7  25
BRANCH  10  27
ATOM     27  O   UNL     1      27.211   9.538  31.067  0.00  0.00    +0.000 OA
ATOM     28  H   UNL     1      26.688   9.515  31.886  0.00  0.00    +0.000 HD
ENDBRANCH  10  27
BRANCH   2  29
ATOM     29  O   UNL     1      24.463  11.074  24.828  0.00  0.00    +0.000 OA
BRANCH  29  31
ATOM     30  O   UNL     1      25.928  14.465  24.541  0.00  0.00    +0.000 OA
ATOM     31  C   UNL     1      24.894  12.357  25.322  0.00  0.00    +0.000 C 
ATOM     32  C   UNL     1      25.407  13.195  24.124  0.00  0.00    +0.000 C 
ATOM     33  C   UNL     1      23.740  13.133  25.965  0.00  0.00    +0.000 C 
ATOM     34  C   UNL     1      24.014  14.610  26.041  0.00  0.00    +0.000 A 
ATOM     35  C   UNL     1      25.078  15.183  25.338  0.00  0.00    +0.000 A 
ATOM     36  C   UNL     1      23.201  15.446  26.817  0.00  0.00    +0.000 A 
ATOM     37  C   UNL     1      25.352  16.549  25.442  0.00  0.00    +0.000 A 
ATOM     38  C   UNL     1      23.454  16.812  26.915  0.00  0.00    +0.000 A 
ATOM     39  C   UNL     1      24.535  17.351  26.229  0.00  0.00    +0.000 A 
BRANCH  32  40
ATOM     40  C   UNL     1      26.519  12.467  23.380  0.00  0.00    +0.000 A 
ATOM     41  C   UNL     1      26.265  11.807  22.168  0.00  0.00    +0.000 A 
ATOM     42  C   UNL     1      27.839  12.522  23.863  0.00  0.00    +0.000 A 
ATOM     43  C   UNL     1      27.319  11.259  21.440  0.00  0.00    +0.000 A 
ATOM     44  C   UNL     1      28.889  11.954  23.138  0.00  0.00    +0.000 A 
ATOM     45  C   UNL     1      28.625  11.338  21.919  0.00  0.00    +0.000 A 
BRANCH  43  46
ATOM     46  O   UNL     1      27.091  10.700  20.215  0.00  0.00    +0.000 OA
ATOM     47  H   UNL     1      26.585   9.878  20.330  0.00  0.00    +0.000 HD
ENDBRANCH  43  46
BRANCH  45  48
ATOM     48  O   UNL     1      29.644  10.831  21.163  0.00  0.00    +0.000 OA
ATOM     49  H   UNL     1      30.383  11.462  21.164  0.00  0.00    +0.000 HD
ENDBRANCH  45  48
ENDBRANCH  32  40
BRANCH  36  50
ATOM     50  O   UNL     1      22.145  14.893  27.485  0.00  0.00    +0.000 OA
ATOM     51  H   UNL     1      22.440  14.621  28.371  0.00  0.00    +0.000 HD
ENDBRANCH  36  50
BRANCH  39  52
ATOM     52  O   UNL     1      24.761  18.691  26.353  0.00  0.00    +0.000 OA
ATOM     53  H   UNL     1      25.649  18.890  26.012  0.00  0.00    +0.000 HD
ENDBRANCH  39  52
ENDBRANCH  29  31
ENDBRANCH   2  29
TORSDOF 14
ENDMDL
MODEL 2
REMARK VINA RESULT:      -6.0      3.999      8.775
REMARK  Name = 
REMARK  14 active torsions:
REMARK  status: ('A' for Active; 'I' for Inactive)
REMARK    1  A    between atoms: O_1  and  C_14
REMARK    2  A    between atoms: O_1  and  C_15
REMARK    3  A    between atoms: O_4  and  C_16
REMARK    4  A    between atoms: O_5  and  C_18
REMARK    5  A    between atoms: O_6  and  C_26
REMARK    6  A    between atoms: O_7  and  C_29
REMARK    7  A    between atoms: O_8  and  C_35
REMARK    8  A    between atoms: O_9  and  C_36
REMARK    9  A    between atoms: O_10  and  C_39
REMARK   10  A    between atoms: O_11  and  C_40
REMARK   11  A    between atoms: O_12  and  C_41
REMARK   12  A    between atoms: O_13  and  C_43
REMARK   13  A    between atoms: C_14  and  C_20
REMARK   14  A    between atoms: C_17  and  C_24
REMARK                            x       y       z     vdW  Elec       q    Type
REMARK                         _______ _______ _______ _____ _____    ______ ____
ROOT
ATOM      1  O   UNL     1      22.750  14.006  30.232  0.00  0.00    +0.000 OA
ATOM      2  C   UNL     1      23.665  15.110  30.191  0.00  0.00    +0.000 C 
ATOM      3  C   UNL     1      24.666  15.055  31.385  0.00  0.00    +0.000 C 
ATOM      4  C   UNL     1      23.913  14.996  32.710  0.00  0.00    +0.000 C 
ATOM      5  C   UNL     1      22.826  13.964  32.674  0.00  0.00    +0.000 A 
ATOM      6  C   UNL     1      22.312  13.548  31.443  0.00  0.00    +0.000 A 
ATOM      7  C   UNL     1      22.270  13.422  33.842  0.00  0.00    +0.000 A 
ATOM      8  C   UNL     1      21.283  12.605  31.385  0.00  0.00    +0.000 A 
ATOM      9  C   UNL     1      21.231  12.496  33.796  0.00  0.00    +0.000 A 
ATOM     10  C   UNL     1      20.748  12.091  32.560  0.00  0.00    +0.000 A 
ENDROOT
BRANCH   2  11
ATOM     11  C   UNL     1      22.955  16.476  30.128  0.00  0.00    +0.000 A 
ATOM     12  C   UNL     1      21.557  16.553  29.939  0.00  0.00    +0.000 A 
ATOM     13  C   UNL     1      23.672  17.683  30.271  0.00  0.00    +0.000 A 
ATOM     14  C   UNL     1      20.923  17.790  29.886  0.00  0.00    +0.000 A 
ATOM     15  C   UNL     1      23.027  18.922  30.201  0.00  0.00    +0.000 A 
ATOM     16  C   UNL     1      21.659  18.963  30.003  0.00  0.00    +0.000 A 
BRANCH  14  17
ATOM     17  O   UNL     1      19.571  17.914  29.726  0.00  0.00    +0.000 OA
ATOM     18  H   UNL     1      19.333  17.719  28.797  0.00  0.00    +0.000 HD
ENDBRANCH  14  17
BRANCH  16  19
ATOM     19  O   UNL     1      21.028  20.172  29.939  0.00  0.00    +0.000 OA
ATOM     20  H   UNL     1      20.510  20.132  29.109  0.00  0.00    +0.000 HD
ENDBRANCH  16  19
ENDBRANCH   2  11
BRANCH   3  21
ATOM     21  O   UNL     1      25.547  13.899  31.306  0.00  0.00    +0.000 OA
ATOM     22  H   UNL     1      26.366  14.236  30.889  0.00  0.00    +0.000 HD
ENDBRANCH   3  21
BRANCH   4  23
ATOM     23  O   UNL     1      24.833  14.683  33.770  0.00  0.00    +0.000 OA
ATOM     24  H   UNL     1      24.459  13.872  34.181  0.00  0.00    +0.000 HD
ENDBRANCH   4  23
BRANCH   7  25
ATOM     25  O   UNL     1      22.734  13.763  35.084  0.00  0.00    +0.000 OA
ATOM     26  H   UNL     1      23.337  14.531  34.967  0.00  0.00    +0.000 HD
ENDBRANCH   7  25
BRANCH  10  27
ATOM     27  O   UNL     1      19.737  11.180  32.456  0.00  0.00    +0.000 OA
ATOM     28  H   UNL     1      20.040  10.449  31.891  0.00  0.00    +0.000 HD
ENDBRANCH  10  27
BRANCH   2  29
ATOM     29  O   UNL     1      24.528  14.941  29.030  0.00  0.00    +0.000 OA
BRANCH  29  31
ATOM     30  O   UNL     1      23.930  14.146  25.461  0.00  0.00    +0.000 OA
ATOM     31  C   UNL     1      24.008  14.164  27.934  0.00  0.00    +0.000 C 
ATOM     32  C   UNL     1      24.471  14.818  26.608  0.00  0.00    +0.000 C 
ATOM     33  C   UNL     1      24.543  12.729  27.951  0.00  0.00    +0.000 C 
ATOM     34  C   UNL     1      24.430  12.058  26.611  0.00  0.00    +0.000 A 
ATOM     35  C   UNL     1      24.132  12.793  25.460  0.00  0.00    +0.000 A 
ATOM     36  C   UNL     1      24.629  10.677  26.487  0.00  0.00    +0.000 A 
ATOM     37  C   UNL     1      23.989  12.160  24.222  0.00  0.00    +0.000 A 
ATOM     38  C   UNL     1      24.506  10.036  25.256  0.00  0.00    +0.000 A 
ATOM     39  C   UNL     1      24.180  10.786  24.133  0.00  0.00    +0.000 A 
BRANCH  32  40
ATOM     40  C   UNL     1      24.036  16.275  26.532  0.00  0.00    +0.000 A 
ATOM     41  C   UNL     1      22.683  16.618  26.380  0.00  0.00    +0.000 A 
ATOM     42  C   UNL     1      24.985  17.300  26.697  0.00  0.00    +0.000 A 
ATOM     43  C   UNL     1      22.294  17.954  26.443  0.00  0.00    +0.000 A 
ATOM     44  C   UNL     1      24.590  18.639  26.740  0.00  0.00    +0.000 A 
ATOM     45  C   UNL     1      23.241  18.960  26.628  0.00  0.00    +0.000 A 
BRANCH  43  46
ATOM     46  O   UNL     1      20.970  18.288  26.392  0.00  0.00    +0.000 OA
ATOM     47  H   UNL     1      20.478  17.732  27.020  0.00  0.00    +0.000 HD
ENDBRANCH  43  46
BRANCH  45  48
ATOM     48  O   UNL     1      22.826  20.257  26.731  0.00  0.00    +0.000 OA
ATOM     49  H   UNL     1      22.012  20.371  26.214  0.00  0.00    +0.000 HD
ENDBRANCH  45  48
ENDBRANCH  32  40
BRANCH  36  50
ATOM     50  O   UNL     1      24.946   9.959  27.606  0.00  0.00    +0.000 OA
ATOM     51  H   UNL     1      25.507   9.208  27.350  0.00  0.00    +0.000 HD
ENDBRANCH  36  50
BRANCH  39  52
ATOM     52  O   UNL     1      24.059  10.128  22.944  0.00  0.00    +0.000 OA
ATOM     53  H   UNL     1      24.809   9.516  22.849  0.00  0.00    +0.000 HD
ENDBRANCH  39  52
ENDBRANCH  29  31
ENDBRANCH   2  29
TORSDOF 14
ENDMDL
MODEL 3
REMARK VINA RESULT:      -5.7      2.408      6.889
REMARK  Name = 
REMARK  14 active torsions:
REMARK  status: ('A' for Active; 'I' for Inactive)
REMARK    1  A    between atoms: O_1  and  C_14
REMARK    2  A    between atoms: O_1  and  C_15
REMARK    3  A    between atoms: O_4  and  C_16
REMARK    4  A    between atoms: O_5  and  C_18
REMARK    5  A    between atoms: O_6  and  C_26
REMARK    6  A    between atoms: O_7  and  C_29
REMARK    7  A    between atoms: O_8  and  C_35
REMARK    8  A    between atoms: O_9  and  C_36
REMARK    9  A    between atoms: O_10  and  C_39
REMARK   10  A    between atoms: O_11  and  C_40
REMARK   11  A    between atoms: O_12  and  C_41
REMARK   12  A    between atoms: O_13  and  C_43
REMARK   13  A    between atoms: C_14  and  C_20
REMARK   14  A    between atoms: C_17  and  C_24
REMARK                            x       y       z     vdW  Elec       q    Type
REMARK                         _______ _______ _______ _____ _____    ______ ____
ROOT
ATOM      1  O   UNL     1      24.733  10.027  25.955  0.00  0.00    +0.000 OA
ATOM      2  C   UNL     1      26.162   9.923  25.897  0.00  0.00    +0.000 C 
ATOM      3  C   UNL     1      26.824  10.596  27.137  0.00  0.00    +0.000 C 
ATOM      4  C   UNL     1      26.369  12.047  27.265  0.00  0.00    +0.000 C 
ATOM      5  C   UNL     1      24.880  12.164  27.130  0.00  0.00    +0.000 A 
ATOM      6  C   UNL     1      24.166  11.156  26.477  0.00  0.00    +0.000 A 
ATOM      7  C   UNL     1      24.171  13.278  27.603  0.00  0.00    +0.000 A 
ATOM      8  C   UNL     1      22.781  11.254  26.318  0.00  0.00    +0.000 A 
ATOM      9  C   UNL     1      22.794  13.395  27.432  0.00  0.00    +0.000 A 
ATOM     10  C   UNL     1      22.108  12.374  26.792  0.00  0.00    +0.000 A 
ENDROOT
BRANCH   2  11
ATOM     11  C   UNL     1      26.752  10.479  24.587  0.00  0.00    +0.000 A 
ATOM     12  C   UNL     1      25.905  10.879  23.528  0.00  0.00    +0.000 A 
ATOM     13  C   UNL     1      28.145  10.620  24.410  0.00  0.00    +0.000 A 
ATOM     14  C   UNL     1      26.445  11.382  22.349  0.00  0.00    +0.000 A 
ATOM     15  C   UNL     1      28.678  11.113  23.215  0.00  0.00    +0.000 A 
ATOM     16  C   UNL     1      27.823  11.483  22.194  0.00  0.00    +0.000 A 
BRANCH  14  17
ATOM     17  O   UNL     1      25.667  11.801  21.307  0.00  0.00    +0.000 OA
ATOM     18  H   UNL     1      25.835  11.236  20.526  0.00  0.00    +0.000 HD
ENDBRANCH  14  17
BRANCH  16  19
ATOM     19  O   UNL     1      28.343  11.970  21.029  0.00  0.00    +0.000 OA
ATOM     20  H   UNL     1      29.245  12.264  21.269  0.00  0.00    +0.000 HD
ENDBRANCH  16  19
ENDBRANCH   2  11
BRANCH   3  21
ATOM     21  O   UNL     1      26.497   9.902  28.375  0.00  0.00    +0.000 OA
ATOM     22  H   UNL     1      26.988   9.057  28.326  0.00  0.00    +0.000 HD
ENDBRANCH   3  21
BRANCH   4  23
ATOM     23  O   UNL     1      26.774  12.566  28.544  0.00  0.00    +0.000 OA
ATOM     24  H   UNL     1      27.695  12.240  28.653  0.00  0.00    +0.000 HD
ENDBRANCH   4  23
BRANCH   7  25
ATOM     25  O   UNL     1      24.796  14.296  28.272  0.00  0.00    +0.000 OA
ATOM     26  H   UNL     1      24.218  14.544  29.027  0.00  0.00    +0.000 HD
ENDBRANCH   7  25
BRANCH  10  27
ATOM     27  O   UNL     1      20.757  12.432  26.606  0.00  0.00    +0.000 OA
ATOM     28  H   UNL     1      20.585  12.629  25.669  0.00  0.00    +0.000 HD
ENDBRANCH  10  27
BRANCH   2  29
ATOM     29  O   UNL     1      26.523   8.522  26.052  0.00  0.00    +0.000 OA
BRANCH  29  31
ATOM     30  O   UNL     1      25.408   5.366  24.461  0.00  0.00    +0.000 OA
ATOM     31  C   UNL     1      25.553   7.544  25.626  0.00  0.00    +0.000 C 
ATOM     32  C   UNL     1      26.308   6.354  24.983  0.00  0.00    +0.000 C 
ATOM     33  C   UNL     1      24.746   6.994  26.806  0.00  0.00    +0.000 C 
ATOM     34  C   UNL     1      24.101   5.672  26.493  0.00  0.00    +0.000 A 
ATOM     35  C   UNL     1      24.461   4.946  25.354  0.00  0.00    +0.000 A 
ATOM     36  C   UNL     1      23.126   5.136  27.344  0.00  0.00    +0.000 A 
ATOM     37  C   UNL     1      23.831   3.737  25.046  0.00  0.00    +0.000 A 
ATOM     38  C   UNL     1      22.503   3.924  27.057  0.00  0.00    +0.000 A 
ATOM     39  C   UNL     1      22.859   3.237  25.904  0.00  0.00    +0.000 A 
BRANCH  32  40
ATOM     40  C   UNL     1      27.192   6.820  23.834  0.00  0.00    +0.000 A 
ATOM     41  C   UNL     1      26.632   7.292  22.637  0.00  0.00    +0.000 A 
ATOM     42  C   UNL     1      28.589   6.859  23.995  0.00  0.00    +0.000 A 
ATOM     43  C   UNL     1      27.453   7.834  21.650  0.00  0.00    +0.000 A 
ATOM     44  C   UNL     1      29.409   7.386  22.994  0.00  0.00    +0.000 A 
ATOM     45  C   UNL     1      28.834   7.886  21.830  0.00  0.00    +0.000 A 
BRANCH  43  46
ATOM     46  O   UNL     1      26.907   8.382  20.525  0.00  0.00    +0.000 OA
ATOM     47  H   UNL     1      27.202   9.304  20.445  0.00  0.00    +0.000 HD
ENDBRANCH  43  46
BRANCH  45  48
ATOM     48  O   UNL     1      29.611   8.463  20.866  0.00  0.00    +0.000 OA
ATOM     49  H   UNL     1      29.791   7.809  20.171  0.00  0.00    +0.000 HD
ENDBRANCH  45  48
ENDBRANCH  32  40
BRANCH  36  50
ATOM     50  O   UNL     1      22.790   5.832  28.472  0.00  0.00    +0.000 OA
ATOM     51  H   UNL     1      22.573   6.747  28.225  0.00  0.00    +0.000 HD
ENDBRANCH  36  50
BRANCH  39  52
ATOM     52  O   UNL     1      22.224   2.057  25.647  0.00  0.00    +0.000 OA
ATOM     53  H   UNL     1      21.552   1.908  26.334  0.00  0.00    +0.000 HD
ENDBRANCH  39  52
ENDBRANCH  29  31
ENDBRANCH   2  29
TORSDOF 14
ENDMDL
MODEL 4
REMARK VINA RESULT:      -5.6     12.870     17.564
REMARK  Name = 
REMARK  14 active torsions:
REMARK  status: ('A' for Active; 'I' for Inactive)
REMARK    1  A    between atoms: O_1  and  C_14
REMARK    2  A    between atoms: O_1  and  C_15
REMARK    3  A    between atoms: O_4  and  C_16
REMARK    4  A    between atoms: O_5  and  C_18
REMARK    5  A    between atoms: O_6  and  C_26
REMARK    6  A    between atoms: O_7  and  C_29
REMARK    7  A    between atoms: O_8  and  C_35
REMARK    8  A    between atoms: O_9  and  C_36
REMARK    9  A    between atoms: O_10  and  C_39
REMARK   10  A    between atoms: O_11  and  C_40
REMARK   11  A    between atoms: O_12  and  C_41
REMARK   12  A    between atoms: O_13  and  C_43
REMARK   13  A    between atoms: C_14  and  C_20
REMARK   14  A    between atoms: C_17  and  C_24
REMARK                            x       y       z     vdW  Elec       q    Type
REMARK                         _______ _______ _______ _____ _____    ______ ____
ROOT
ATOM      1  O   UNL     1      22.518  -1.045  16.579  0.00  0.00    +0.000 OA
ATOM      2  C   UNL     1      21.468  -0.264  17.167  0.00  0.00    +0.000 C 
ATOM      3  C   UNL     1      21.742   1.261  17.001  0.00  0.00    +0.000 C 
ATOM      4  C   UNL     1      23.107   1.626  17.578  0.00  0.00    +0.000 C 
ATOM      5  C   UNL     1      24.169   0.679  17.103  0.00  0.00    +0.000 A 
ATOM      6  C   UNL     1      23.806  -0.591  16.648  0.00  0.00    +0.000 A 
ATOM      7  C   UNL     1      25.532   1.006  17.137  0.00  0.00    +0.000 A 
ATOM      8  C   UNL     1      24.779  -1.499  16.223  0.00  0.00    +0.000 A 
ATOM      9  C   UNL     1      26.511   0.102  16.735  0.00  0.00    +0.000 A 
ATOM     10  C   UNL     1      26.123  -1.147  16.275  0.00  0.00    +0.000 A 
ENDROOT
BRANCH   2  11
ATOM     11  C   UNL     1      21.210  -0.621  18.644  0.00  0.00    +0.000 A 
ATOM     12  C   UNL     1      20.218   0.059  19.386  0.00  0.00    +0.000 A 
ATOM     13  C   UNL     1      21.941  -1.640  19.292  0.00  0.00    +0.000 A 
ATOM     14  C   UNL     1      19.989  -0.270  20.718  0.00  0.00    +0.000 A 
ATOM     15  C   UNL     1      21.713  -1.953  20.635  0.00  0.00    +0.000 A 
ATOM     16  C   UNL     1      20.744  -1.260  21.337  0.00  0.00    +0.000 A 
BRANCH  14  17
ATOM     17  O   UNL     1      19.028   0.344  21.470  0.00  0.00    +0.000 OA
ATOM     18  H   UNL     1      18.955  -0.103  22.337  0.00  0.00    +0.000 HD
ENDBRANCH  14  17
BRANCH  16  19
ATOM     19  O   UNL     1      20.517  -1.569  22.648  0.00  0.00    +0.000 OA
ATOM     20  H   UNL     1      21.249  -1.132  23.130  0.00  0.00    +0.000 HD
ENDBRANCH  16  19
ENDBRANCH   2  11
BRANCH   3  21
ATOM     21  O   UNL     1      21.710   1.673  15.605  0.00  0.00    +0.000 OA
ATOM     22  H   UNL     1      21.942   0.867  15.100  0.00  0.00    +0.000 HD
ENDBRANCH   3  21
BRANCH   4  23
ATOM     23  O   UNL     1      23.451   2.965  17.185  0.00  0.00    +0.000 OA
ATOM     24  H   UNL     1      22.718   3.515  17.541  0.00  0.00    +0.000 HD
ENDBRANCH   4  23
BRANCH   7  25
ATOM     25  O   UNL     1      25.965   2.238  17.550  0.00  0.00    +0.000 OA
ATOM     26  H   UNL     1      26.362   2.682  16.769  0.00  0.00    +0.000 HD
ENDBRANCH   7  25
BRANCH  10  27
ATOM     27  O   UNL     1      27.040  -2.069  15.860  0.00  0.00    +0.000 OA
ATOM     28  H   UNL     1      26.917  -2.217  14.907  0.00  0.00    +0.000 HD
ENDBRANCH  10  27
BRANCH   2  29
ATOM     29  O   UNL     1      20.258  -0.468  16.385  0.00  0.00    +0.000 OA
BRANCH  29  31
ATOM     30  O   UNL     1      18.857  -3.458  14.703  0.00  0.00    +0.000 OA
ATOM     31  C   UNL     1      20.260  -1.560  15.445  0.00  0.00    +0.000 C 
ATOM     32  C   UNL     1      18.907  -2.306  15.556  0.00  0.00    +0.000 C 
ATOM     33  C   UNL     1      20.396  -1.065  14.001  0.00  0.00    +0.000 C 
ATOM     34  C   UNL     1      19.923  -2.082  12.999  0.00  0.00    +0.000 A 
ATOM     35  C   UNL     1      19.194  -3.205  13.402  0.00  0.00    +0.000 A 
ATOM     36  C   UNL     1      20.198  -1.919  11.636  0.00  0.00    +0.000 A 
ATOM     37  C   UNL     1      18.790  -4.166  12.472  0.00  0.00    +0.000 A 
ATOM     38  C   UNL     1      19.786  -2.863  10.697  0.00  0.00    +0.000 A 
ATOM     39  C   UNL     1      19.089  -3.984  11.127  0.00  0.00    +0.000 A 
BRANCH  32  40
ATOM     40  C   UNL     1      18.656  -2.780  16.981  0.00  0.00    +0.000 A 
ATOM     41  C   UNL     1      19.450  -3.783  17.559  0.00  0.00    +0.000 A 
ATOM     42  C   UNL     1      17.671  -2.154  17.766  0.00  0.00    +0.000 A 
ATOM     43  C   UNL     1      19.288  -4.110  18.904  0.00  0.00    +0.000 A 
ATOM     44  C   UNL     1      17.500  -2.500  19.108  0.00  0.00    +0.000 A 
ATOM     45  C   UNL     1      18.322  -3.468  19.676  0.00  0.00    +0.000 A 
BRANCH  43  46
ATOM     46  O   UNL     1      20.121  -5.015  19.496  0.00  0.00    +0.000 OA
ATOM     47  H   UNL     1      19.655  -5.863  19.588  0.00  0.00    +0.000 HD
ENDBRANCH  43  46
BRANCH  45  48
ATOM     48  O   UNL     1      18.216  -3.776  21.002  0.00  0.00    +0.000 OA
ATOM     49  H   UNL     1      17.552  -4.477  21.112  0.00  0.00    +0.000 HD
ENDBRANCH  45  48
ENDBRANCH  32  40
BRANCH  36  50
ATOM     50  O   UNL     1      20.889  -0.809  11.236  0.00  0.00    +0.000 OA
ATOM     51  H   UNL     1      21.643  -1.088  10.690  0.00  0.00    +0.000 HD
ENDBRANCH  36  50
BRANCH  39  52
ATOM     52  O   UNL     1      18.706  -4.893  10.185  0.00  0.00    +0.000 OA
ATOM     53  H   UNL     1      17.766  -5.105  10.319  0.00  0.00    +0.000 HD
ENDBRANCH  39  52
ENDBRANCH  29  31
ENDBRANCH   2  29
TORSDOF 14
ENDMDL
MODEL 5
REMARK VINA RESULT:      -5.6      7.268     11.892
REMARK  Name = 
REMARK  14 active torsions:
REMARK  status: ('A' for Active; 'I' for Inactive)
REMARK    1  A    between atoms: O_1  and  C_14
REMARK    2  A    between atoms: O_1  and  C_15
REMARK    3  A    between atoms: O_4  and  C_16
REMARK    4  A    between atoms: O_5  and  C_18
REMARK    5  A    between atoms: O_6  and  C_26
REMARK    6  A    between atoms: O_7  and  C_29
REMARK    7  A    between atoms: O_8  and  C_35
REMARK    8  A    between atoms: O_9  and  C_36
REMARK    9  A    between atoms: O_10  and  C_39
REMARK   10  A    between atoms: O_11  and  C_40
REMARK   11  A    between atoms: O_12  and  C_41
REMARK   12  A    between atoms: O_13  and  C_43
REMARK   13  A    between atoms: C_14  and  C_20
REMARK   14  A    between atoms: C_17  and  C_24
REMARK                            x       y       z     vdW  Elec       q    Type
REMARK                         _______ _______ _______ _____ _____    ______ ____
ROOT
ATOM      1  O   UNL     1      29.702  17.474  18.254  0.00  0.00    +0.000 OA
ATOM      2  C   UNL     1      30.707  16.749  17.531  0.00  0.00    +0.000 C 
ATOM      3  C   UNL     1      32.109  17.407  17.705  0.00  0.00    +0.000 C 
ATOM      4  C   UNL     1      32.065  18.875  17.290  0.00  0.00    +0.000 C 
ATOM      5  C   UNL     1      30.892  19.579  17.903  0.00  0.00    +0.000 A 
ATOM      6  C   UNL     1      29.789  18.836  18.332  0.00  0.00    +0.000 A 
ATOM      7  C   UNL     1      30.839  20.976  18.028  0.00  0.00    +0.000 A 
ATOM      8  C   UNL     1      28.676  19.472  18.885  0.00  0.00    +0.000 A 
ATOM      9  C   UNL     1      29.726  21.621  18.559  0.00  0.00    +0.000 A 
ATOM     10  C   UNL     1      28.650  20.858  18.990  0.00  0.00    +0.000 A 
ENDROOT
BRANCH   2  11
ATOM     11  C   UNL     1      30.362  16.569  16.040  0.00  0.00    +0.000 A 
ATOM     12  C   UNL     1      29.069  16.875  15.559  0.00  0.00    +0.000 A 
ATOM     13  C   UNL     1      31.323  16.111  15.114  0.00  0.00    +0.000 A 
ATOM     14  C   UNL     1      28.765  16.713  14.211  0.00  0.00    +0.000 A 
ATOM     15  C   UNL     1      31.003  15.938  13.764  0.00  0.00    +0.000 A 
ATOM     16  C   UNL     1      29.725  16.234  13.327  0.00  0.00    +0.000 A 
BRANCH  14  17
ATOM     17  O   UNL     1      27.536  17.015  13.695  0.00  0.00    +0.000 OA
ATOM     18  H   UNL     1      27.557  16.915  12.722  0.00  0.00    +0.000 HD
ENDBRANCH  14  17
BRANCH  16  19
ATOM     19  O   UNL     1      29.414  16.069  12.008  0.00  0.00    +0.000 OA
ATOM     20  H   UNL     1      28.645  15.463  12.014  0.00  0.00    +0.000 HD
ENDBRANCH  16  19
ENDBRANCH   2  11
BRANCH   3  21
ATOM     21  O   UNL     1      32.581  17.334  19.080  0.00  0.00    +0.000 OA
ATOM     22  H   UNL     1      32.768  16.385  19.230  0.00  0.00    +0.000 HD
ENDBRANCH   3  21
BRANCH   4  23
ATOM     23  O   UNL     1      33.280  19.525  17.699  0.00  0.00    +0.000 OA
ATOM     24  H   UNL     1      33.980  19.081  17.170  0.00  0.00    +0.000 HD
ENDBRANCH   4  23
BRANCH   7  25
ATOM     25  O   UNL     1      31.889  21.770  17.650  0.00  0.00    +0.000 OA
ATOM     26  H   UNL     1      31.669  22.137  16.765  0.00  0.00    +0.000 HD
ENDBRANCH   7  25
BRANCH  10  27
ATOM     27  O   UNL     1      27.538  21.437  19.526  0.00  0.00    +0.000 OA
ATOM     28  H   UNL     1      27.755  22.353  19.769  0.00  0.00    +0.000 HD
ENDBRANCH  10  27
BRANCH   2  29
ATOM     29  O   UNL     1      30.873  15.449  18.165  0.00  0.00    +0.000 OA
BRANCH  29  31
ATOM     30  O   UNL     1      28.550  12.772  19.245  0.00  0.00    +0.000 OA
ATOM     31  C   UNL     1      29.735  14.911  18.866  0.00  0.00    +0.000 C 
ATOM     32  C   UNL     1      29.701  13.378  18.641  0.00  0.00    +0.000 C 
ATOM     33  C   UNL     1      29.832  15.152  20.376  0.00  0.00    +0.000 C 
ATOM     34  C   UNL     1      28.958  14.216  21.164  0.00  0.00    +0.000 A 
ATOM     35  C   UNL     1      28.374  13.098  20.563  0.00  0.00    +0.000 A 
ATOM     36  C   UNL     1      28.718  14.442  22.525  0.00  0.00    +0.000 A 
ATOM     37  C   UNL     1      27.532  12.252  21.289  0.00  0.00    +0.000 A 
ATOM     38  C   UNL     1      27.894  13.597  23.265  0.00  0.00    +0.000 A 
ATOM     39  C   UNL     1      27.302  12.510  22.635  0.00  0.00    +0.000 A 
BRANCH  32  40
ATOM     40  C   UNL     1      29.669  13.041  17.157  0.00  0.00    +0.000 A 
ATOM     41  C   UNL     1      28.537  13.323  16.376  0.00  0.00    +0.000 A 
ATOM     42  C   UNL     1      30.815  12.516  16.532  0.00  0.00    +0.000 A 
ATOM     43  C   UNL     1      28.577  13.126  14.997  0.00  0.00    +0.000 A 
ATOM     44  C   UNL     1      30.842  12.303  15.151  0.00  0.00    +0.000 A 
ATOM     45  C   UNL     1      29.725  12.625  14.387  0.00  0.00    +0.000 A 
BRANCH  43  46
ATOM     46  O   UNL     1      27.513  13.488  14.221  0.00  0.00    +0.000 OA
ATOM     47  H   UNL     1      27.278  14.411  14.413  0.00  0.00    +0.000 HD
ENDBRANCH  43  46
BRANCH  45  48
ATOM     48  O   UNL     1      29.751  12.485  13.029  0.00  0.00    +0.000 OA
ATOM     49  H   UNL     1      29.397  11.611  12.793  0.00  0.00    +0.000 HD
ENDBRANCH  45  48
ENDBRANCH  32  40
BRANCH  36  50
ATOM     50  O   UNL     1      29.309  15.521  23.123  0.00  0.00    +0.000 OA
ATOM     51  H   UNL     1      28.687  15.905  23.764  0.00  0.00    +0.000 HD
ENDBRANCH  36  50
BRANCH  39  52
ATOM     52  O   UNL     1      26.493  11.706  23.385  0.00  0.00    +0.000 OA
ATOM     53  H   UNL     1      26.073  11.053  22.799  0.00  0.00    +0.000 HD
ENDBRANCH  39  52
ENDBRANCH  29  31
ENDBRANCH   2  29
TORSDOF 14
ENDMDL
MODEL 6
REMARK VINA RESULT:      -5.6     22.585     26.520
REMARK  Name = 
REMARK  14 active torsions:
REMARK  status: ('A' for Active; 'I' for Inactive)
REMARK    1  A    between atoms: O_1  and  C_14
REMARK    2  A    between atoms: O_1  and  C_15
REMARK    3  A    between atoms: O_4  and  C_16
REMARK    4  A    between atoms: O_5  and  C_18
REMARK    5  A    between atoms: O_6  and  C_26
REMARK    6  A    between atoms: O_7  and  C_29
REMARK    7  A    between atoms: O_8  and  C_35
REMARK    8  A    between atoms: O_9  and  C_36
REMARK    9  A    between atoms: O_10  and  C_39
REMARK   10  A    between atoms: O_11  and  C_40
REMARK   11  A    between atoms: O_12  and  C_41
REMARK   12  A    between atoms: O_13  and  C_43
REMARK   13  A    between atoms: C_14  and  C_20
REMARK   14  A    between atoms: C_17  and  C_24
REMARK                            x       y       z     vdW  Elec       q    Type
REMARK                         _______ _______ _______ _____ _____    ______ ____
ROOT
ATOM      1  O   UNL     1      17.946  18.688   1.596  0.00  0.00    +0.000 OA
ATOM      2  C   UNL     1      17.713  17.659   0.625  0.00  0.00    +0.000 C 
ATOM      3  C   UNL     1      17.836  18.217  -0.825  0.00  0.00    +0.000 C 
ATOM      4  C   UNL     1      16.896  19.402  -1.024  0.00  0.00    +0.000 C 
ATOM      5  C   UNL     1      17.011  20.383   0.104  0.00  0.00    +0.000 A 
ATOM      6  C   UNL     1      17.516  19.960   1.337  0.00  0.00    +0.000 A 
ATOM      7  C   UNL     1      16.590  21.716  -0.017  0.00  0.00    +0.000 A 
ATOM      8  C   UNL     1      17.611  20.850   2.409  0.00  0.00    +0.000 A 
ATOM      9  C   UNL     1      16.662  22.605   1.051  0.00  0.00    +0.000 A 
ATOM     10  C   UNL     1      17.179  22.163   2.260  0.00  0.00    +0.000 A 
ENDROOT
BRANCH   2  11
ATOM     11  C   UNL     1      16.366  16.937   0.827  0.00  0.00    +0.000 A 
ATOM     12  C   UNL     1      16.004  15.847   0.003  0.00  0.00    +0.000 A 
ATOM     13  C   UNL     1      15.467  17.329   1.841  0.00  0.00    +0.000 A 
ATOM     14  C   UNL     1      14.787  15.199   0.193  0.00  0.00    +0.000 A 
ATOM     15  C   UNL     1      14.241  16.680   2.014  0.00  0.00    +0.000 A 
ATOM     16  C   UNL     1      13.910  15.625   1.183  0.00  0.00    +0.000 A 
BRANCH  14  17
ATOM     17  O   UNL     1      14.402  14.128  -0.564  0.00  0.00    +0.000 OA
ATOM     18  H   UNL     1      15.049  13.402  -0.455  0.00  0.00    +0.000 HD
ENDBRANCH  14  17
BRANCH  16  19
ATOM     19  O   UNL     1      12.715  14.988   1.354  0.00  0.00    +0.000 OA
ATOM     20  H   UNL     1      12.131  15.381   0.674  0.00  0.00    +0.000 HD
ENDBRANCH  16  19
ENDBRANCH   2  11
BRANCH   3  21
ATOM     21  O   UNL     1      19.192  18.651  -1.131  0.00  0.00    +0.000 OA
ATOM     22  H   UNL     1      19.419  18.194  -1.966  0.00  0.00    +0.000 HD
ENDBRANCH   3  21
BRANCH   4  23
ATOM     23  O   UNL     1      17.209  20.060  -2.263  0.00  0.00    +0.000 OA
ATOM     24  H   UNL     1      18.006  20.598  -2.054  0.00  0.00    +0.000 HD
ENDBRANCH   4  23
BRANCH   7  25
ATOM     25  O   UNL     1      16.104  22.210  -1.198  0.00  0.00    +0.000 OA
ATOM     26  H   UNL     1      16.321  21.555  -1.897  0.00  0.00    +0.000 HD
ENDBRANCH   7  25
BRANCH  10  27
ATOM     27  O   UNL     1      17.281  22.994   3.337  0.00  0.00    +0.000 OA
ATOM     28  H   UNL     1      18.192  23.329   3.381  0.00  0.00    +0.000 HD
ENDBRANCH  10  27
BRANCH   2  29
ATOM     29  O   UNL     1      18.808  16.704   0.704  0.00  0.00    +0.000 OA
BRANCH  29  31
ATOM     30  O   UNL     1      20.614  15.532   3.720  0.00  0.00    +0.000 OA
ATOM     31  C   UNL     1      19.712  16.833   1.819  0.00  0.00    +0.000 C 
ATOM     32  C   UNL     1      19.790  15.469   2.548  0.00  0.00    +0.000 C 
ATOM     33  C   UNL     1      21.130  17.192   1.361  0.00  0.00    +0.000 C 
ATOM     34  C   UNL     1      22.169  16.861   2.396  0.00  0.00    +0.000 A 
ATOM     35  C   UNL     1      21.856  16.065   3.502  0.00  0.00    +0.000 A 
ATOM     36  C   UNL     1      23.478  17.341   2.270  0.00  0.00    +0.000 A 
ATOM     37  C   UNL     1      22.813  15.792   4.482  0.00  0.00    +0.000 A 
ATOM     38  C   UNL     1      24.446  17.063   3.232  0.00  0.00    +0.000 A 
ATOM     39  C   UNL     1      24.101  16.293   4.335  0.00  0.00    +0.000 A 
BRANCH  32  40
ATOM     40  C   UNL     1      18.409  14.999   2.985  0.00  0.00    +0.000 A 
ATOM     41  C   UNL     1      17.792  13.899   2.370  0.00  0.00    +0.000 A 
ATOM     42  C   UNL     1      17.769  15.619   4.073  0.00  0.00    +0.000 A 
ATOM     43  C   UNL     1      16.588  13.407   2.870  0.00  0.00    +0.000 A 
ATOM     44  C   UNL     1      16.553  15.133   4.558  0.00  0.00    +0.000 A 
ATOM     45  C   UNL     1      15.975  14.016   3.963  0.00  0.00    +0.000 A 
BRANCH  43  46
ATOM     46  O   UNL     1      16.032  12.279   2.337  0.00  0.00    +0.000 OA
ATOM     47  H   UNL     1      15.614  11.764   3.048  0.00  0.00    +0.000 HD
ENDBRANCH  43  46
BRANCH  45  48
ATOM     48  O   UNL     1      14.819  13.486   4.460  0.00  0.00    +0.000 OA
ATOM     49  H   UNL     1      14.187  13.365   3.732  0.00  0.00    +0.000 HD
ENDBRANCH  45  48
ENDBRANCH  32  40
BRANCH  36  50
ATOM     50  O   UNL     1      23.794  18.099   1.177  0.00  0.00    +0.000 OA
ATOM     51  H   UNL     1      24.451  17.622   0.642  0.00  0.00    +0.000 HD
ENDBRANCH  36  50
BRANCH  39  52
ATOM     52  O   UNL     1      25.070  16.045   5.263  0.00  0.00    +0.000 OA
ATOM     53  H   UNL     1      25.912  16.410   4.941  0.00  0.00    +0.000 HD
ENDBRANCH  39  52
ENDBRANCH  29  31
ENDBRANCH   2  29
TORSDOF 14
ENDMDL
MODEL 7
REMARK VINA RESULT:      -5.6      2.615      6.149
REMARK  Name = 
REMARK  14 active torsions:
REMARK  status: ('A' for Active; 'I' for Inactive)
REMARK    1  A    between atoms: O_1  and  C_14
REMARK    2  A    between atoms: O_1  and  C_15
REMARK    3  A    between atoms: O_4  and  C_16
REMARK    4  A    between atoms: O_5  and  C_18
REMARK    5  A    between atoms: O_6  and  C_26
REMARK    6  A    between atoms: O_7  and  C_29
REMARK    7  A    between atoms: O_8  and  C_35
REMARK    8  A    between atoms: O_9  and  C_36
REMARK    9  A    between atoms: O_10  and  C_39
REMARK   10  A    between atoms: O_11  and  C_40
REMARK   11  A    between atoms: O_12  and  C_41
REMARK   12  A    between atoms: O_13  and  C_43
REMARK   13  A    between atoms: C_14  and  C_20
REMARK   14  A    between atoms: C_17  and  C_24
REMARK                            x       y       z     vdW  Elec       q    Type
REMARK                         _______ _______ _______ _____ _____    ______ ____
ROOT
ATOM      1  O   UNL     1      26.087  10.719  25.082  0.00  0.00    +0.000 OA
ATOM      2  C   UNL     1      25.305   9.570  24.730  0.00  0.00    +0.000 C 
ATOM      3  C   UNL     1      23.780   9.891  24.781  0.00  0.00    +0.000 C 
ATOM      4  C   UNL     1      23.395  10.436  26.153  0.00  0.00    +0.000 C 
ATOM      5  C   UNL     1      24.341  11.511  26.597  0.00  0.00    +0.000 A 
ATOM      6  C   UNL     1      25.622  11.574  26.042  0.00  0.00    +0.000 A 
ATOM      7  C   UNL     1      24.002  12.444  27.589  0.00  0.00    +0.000 A 
ATOM      8  C   UNL     1      26.528  12.553  26.457  0.00  0.00    +0.000 A 
ATOM      9  C   UNL     1      24.905  13.410  28.023  0.00  0.00    +0.000 A 
ATOM     10  C   UNL     1      26.165  13.458  27.446  0.00  0.00    +0.000 A 
ENDROOT
BRANCH   2  11
ATOM     11  C   UNL     1      25.638   8.332  25.585  0.00  0.00    +0.000 A 
ATOM     12  C   UNL     1      24.849   7.163  25.497  0.00  0.00    +0.000 A 
ATOM     13  C   UNL     1      26.741   8.322  26.465  0.00  0.00    +0.000 A 
ATOM     14  C   UNL     1      25.157   6.048  26.270  0.00  0.00    +0.000 A 
ATOM     15  C   UNL     1      27.033   7.202  27.249  0.00  0.00    +0.000 A 
ATOM     16  C   UNL     1      26.234   6.078  27.148  0.00  0.00    +0.000 A 
BRANCH  14  17
ATOM     17  O   UNL     1      24.437   4.889  26.204  0.00  0.00    +0.000 OA
ATOM     18  H   UNL     1      24.749   4.270  26.896  0.00  0.00    +0.000 HD
ENDBRANCH  14  17
BRANCH  16  19
ATOM     19  O   UNL     1      26.521   4.982  27.910  0.00  0.00    +0.000 OA
ATOM     20  H   UNL     1      26.318   5.263  28.826  0.00  0.00    +0.000 HD
ENDBRANCH  16  19
ENDBRANCH   2  11
BRANCH   3  21
ATOM     21  O   UNL     1      23.393  10.868  23.774  0.00  0.00    +0.000 OA
ATOM     22  H   UNL     1      22.439  10.711  23.626  0.00  0.00    +0.000 HD
ENDBRANCH   3  21
BRANCH   4  23
ATOM     23  O   UNL     1      22.059  10.967  26.100  0.00  0.00    +0.000 OA
ATOM     24  H   UNL     1      22.097  11.766  26.673  0.00  0.00    +0.000 HD
ENDBRANCH   4  23
BRANCH   7  25
ATOM     25  O   UNL     1      22.759  12.460  28.164  0.00  0.00    +0.000 OA
ATOM     26  H   UNL     1      22.747  13.204  28.805  0.00  0.00    +0.000 HD
ENDBRANCH   7  25
BRANCH  10  27
ATOM     27  O   UNL     1      27.086  14.390  27.828  0.00  0.00    +0.000 OA
ATOM     28  H   UNL     1      26.652  15.026  28.421  0.00  0.00    +0.000 HD
ENDBRANCH  10  27
BRANCH   2  29
ATOM     29  O   UNL     1      25.533   9.280  23.322  0.00  0.00    +0.000 OA
BRANCH  29  31
ATOM     30  O   UNL     1      28.540   8.694  21.238  0.00  0.00    +0.000 OA
ATOM     31  C   UNL     1      26.835   9.592  22.790  0.00  0.00    +0.000 C 
ATOM     32  C   UNL     1      27.219   8.499  21.761  0.00  0.00    +0.000 C 
ATOM     33  C   UNL     1      26.841  10.937  22.057  0.00  0.00    +0.000 C 
ATOM     34  C   UNL     1      27.995  11.065  21.101  0.00  0.00    +0.000 A 
ATOM     35  C   UNL     1      28.769   9.953  20.753  0.00  0.00    +0.000 A 
ATOM     36  C   UNL     1      28.314  12.304  20.532  0.00  0.00    +0.000 A 
ATOM     37  C   UNL     1      29.864  10.083  19.895  0.00  0.00    +0.000 A 
ATOM     38  C   UNL     1      29.394  12.443  19.662  0.00  0.00    +0.000 A 
ATOM     39  C   UNL     1      30.164  11.329  19.356  0.00  0.00    +0.000 A 
BRANCH  32  40
ATOM     40  C   UNL     1      27.175   7.113  22.389  0.00  0.00    +0.000 A 
ATOM     41  C   UNL     1      28.133   6.719  23.337  0.00  0.00    +0.000 A 
ATOM     42  C   UNL     1      26.118   6.237  22.083  0.00  0.00    +0.000 A 
ATOM     43  C   UNL     1      28.000   5.497  23.993  0.00  0.00    +0.000 A 
ATOM     44  C   UNL     1      26.001   5.004  22.731  0.00  0.00    +0.000 A 
ATOM     45  C   UNL     1      26.936   4.647  23.697  0.00  0.00    +0.000 A 
BRANCH  43  46
ATOM     46  O   UNL     1      28.874   5.151  24.984  0.00  0.00    +0.000 OA
ATOM     47  H   UNL     1      29.623   5.771  24.979  0.00  0.00    +0.000 HD
ENDBRANCH  43  46
BRANCH  45  48
ATOM     48  O   UNL     1      26.806   3.476  24.388  0.00  0.00    +0.000 OA
ATOM     49  H   UNL     1      27.528   3.408  25.035  0.00  0.00    +0.000 HD
ENDBRANCH  45  48
ENDBRANCH  32  40
BRANCH  36  50
ATOM     50  O   UNL     1      27.544  13.387  20.850  0.00  0.00    +0.000 OA
ATOM     51  H   UNL     1      27.630  14.052  20.146  0.00  0.00    +0.000 HD
ENDBRANCH  36  50
BRANCH  39  52
ATOM     52  O   UNL     1      31.218  11.500  18.507  0.00  0.00    +0.000 OA
ATOM     53  H   UNL     1      32.043  11.456  19.021  0.00  0.00    +0.000 HD
ENDBRANCH  39  52
ENDBRANCH  29  31
ENDBRANCH   2  29
TORSDOF 14
ENDMDL
MODEL 8
REMARK VINA RESULT:      -5.5      2.480      7.132
REMARK  Name = 
REMARK  14 active torsions:
REMARK  status: ('A' for Active; 'I' for Inactive)
REMARK    1  A    between atoms: O_1  and  C_14
REMARK    2  A    between atoms: O_1  and  C_15
REMARK    3  A    between atoms: O_4  and  C_16
REMARK    4  A    between atoms: O_5  and  C_18
REMARK    5  A    between atoms: O_6  and  C_26
REMARK    6  A    between atoms: O_7  and  C_29
REMARK    7  A    between atoms: O_8  and  C_35
REMARK    8  A    between atoms: O_9  and  C_36
REMARK    9  A    between atoms: O_10  and  C_39
REMARK   10  A    between atoms: O_11  and  C_40
REMARK   11  A    between atoms: O_12  and  C_41
REMARK   12  A    between atoms: O_13  and  C_43
REMARK   13  A    between atoms: C_14  and  C_20
REMARK   14  A    between atoms: C_17  and  C_24
REMARK                            x       y       z     vdW  Elec       q    Type
REMARK                         _______ _______ _______ _____ _____    ______ ____
ROOT
ATOM      1  O   UNL     1      24.795   6.997  26.322  0.00  0.00    +0.000 OA
ATOM      2  C   UNL     1      25.663   8.039  26.789  0.00  0.00    +0.000 C 
ATOM      3  C   UNL     1      26.388   7.619  28.103  0.00  0.00    +0.000 C 
ATOM      4  C   UNL     1      25.373   7.212  29.167  0.00  0.00    +0.000 C 
ATOM      5  C   UNL     1      24.351   6.265  28.611  0.00  0.00    +0.000 A 
ATOM      6  C   UNL     1      24.124   6.230  27.232  0.00  0.00    +0.000 A 
ATOM      7  C   UNL     1      23.576   5.433  29.432  0.00  0.00    +0.000 A 
ATOM      8  C   UNL     1      23.161   5.373  26.694  0.00  0.00    +0.000 A 
ATOM      9  C   UNL     1      22.600   4.591  28.907  0.00  0.00    +0.000 A 
ATOM     10  C   UNL     1      22.404   4.565  27.534  0.00  0.00    +0.000 A 
ENDROOT
BRANCH   2  11
ATOM     11  C   UNL     1      24.940   9.389  26.964  0.00  0.00    +0.000 A 
ATOM     12  C   UNL     1      23.599   9.547  26.546  0.00  0.00    +0.000 A 
ATOM     13  C   UNL     1      25.585  10.496  27.556  0.00  0.00    +0.000 A 
ATOM     14  C   UNL     1      22.952  10.768  26.710  0.00  0.00    +0.000 A 
ATOM     15  C   UNL     1      24.930  11.722  27.703  0.00  0.00    +0.000 A 
ATOM     16  C   UNL     1      23.622  11.848  27.272  0.00  0.00    +0.000 A 
BRANCH  14  17
ATOM     17  O   UNL     1      21.651  10.963  26.341  0.00  0.00    +0.000 OA
ATOM     18  H   UNL     1      21.492  10.544  25.471  0.00  0.00    +0.000 HD
ENDBRANCH  14  17
BRANCH  16  19
ATOM     19  O   UNL     1      22.981  13.045  27.419  0.00  0.00    +0.000 OA
ATOM     20  H   UNL     1      22.070  12.873  27.105  0.00  0.00    +0.000 HD
ENDBRANCH  16  19
ENDBRANCH   2  11
BRANCH   3  21
ATOM     21  O   UNL     1      27.302   6.506  27.891  0.00  0.00    +0.000 OA
ATOM     22  H   UNL     1      28.183   6.855  28.136  0.00  0.00    +0.000 HD
ENDBRANCH   3  21
BRANCH   4  23
ATOM     23  O   UNL     1      26.056   6.585  30.266  0.00  0.00    +0.000 OA
ATOM     24  H   UNL     1      25.513   5.788  30.462  0.00  0.00    +0.000 HD
ENDBRANCH   4  23
BRANCH   7  25
ATOM     25  O   UNL     1      23.755   5.397  30.790  0.00  0.00    +0.000 OA
ATOM     26  H   UNL     1      23.975   6.310  31.077  0.00  0.00    +0.000 HD
ENDBRANCH   7  25
BRANCH  10  27
ATOM     27  O   UNL     1      21.468   3.752  26.965  0.00  0.00    +0.000 OA
ATOM     28  H   UNL     1      21.906   2.932  26.680  0.00  0.00    +0.000 HD
ENDBRANCH  10  27
BRANCH   2  29
ATOM     29  O   UNL     1      26.757   8.178  25.839  0.00  0.00    +0.000 OA
BRANCH  29  31
ATOM     30  O   UNL     1      26.825   8.429  22.143  0.00  0.00    +0.000 OA
ATOM     31  C   UNL     1      26.520   7.720  24.494  0.00  0.00    +0.000 C 
ATOM     32  C   UNL     1      27.089   8.774  23.510  0.00  0.00    +0.000 C 
ATOM     33  C   UNL     1      27.235   6.395  24.212  0.00  0.00    +0.000 C 
ATOM     34  C   UNL     1      27.420   6.144  22.741  0.00  0.00    +0.000 A 
ATOM     35  C   UNL     1      27.205   7.159  21.804  0.00  0.00    +0.000 A 
ATOM     36  C   UNL     1      27.820   4.884  22.278  0.00  0.00    +0.000 A 
ATOM     37  C   UNL     1      27.340   6.911  20.436  0.00  0.00    +0.000 A 
ATOM     38  C   UNL     1      27.974   4.629  20.917  0.00  0.00    +0.000 A 
ATOM     39  C   UNL     1      27.725   5.647  20.006  0.00  0.00    +0.000 A 
BRANCH  32  40
ATOM     40  C   UNL     1      26.478  10.146  23.762  0.00  0.00    +0.000 A 
ATOM     41  C   UNL     1      27.250  11.195  24.287  0.00  0.00    +0.000 A 
ATOM     42  C   UNL     1      25.146  10.400  23.390  0.00  0.00    +0.000 A 
ATOM     43  C   UNL     1      26.708  12.474  24.387  0.00  0.00    +0.000 A 
ATOM     44  C   UNL     1      24.602  11.681  23.512  0.00  0.00    +0.000 A 
ATOM     45  C   UNL     1      25.393  12.718  23.996  0.00  0.00    +0.000 A 
BRANCH  43  46
ATOM     46  O   UNL     1      27.483  13.518  24.807  0.00  0.00    +0.000 OA
ATOM     47  H   UNL     1      28.271  13.576  24.242  0.00  0.00    +0.000 HD
ENDBRANCH  43  46
BRANCH  45  48
ATOM     48  O   UNL     1      24.902  13.990  24.064  0.00  0.00    +0.000 OA
ATOM     49  H   UNL     1      24.868  14.366  23.169  0.00  0.00    +0.000 HD
ENDBRANCH  45  48
ENDBRANCH  32  40
BRANCH  36  50
ATOM     50  O   UNL     1      28.055   3.896  23.193  0.00  0.00    +0.000 OA
ATOM     51  H   UNL     1      27.356   3.919  23.868  0.00  0.00    +0.000 HD
ENDBRANCH  36  50
BRANCH  39  52
ATOM     52  O   UNL     1      27.878   5.363  18.680  0.00  0.00    +0.000 OA
ATOM     53  H   UNL     1      27.003   5.171  18.300  0.00  0.00    +0.000 HD
ENDBRANCH  39  52
ENDBRANCH  29  31
ENDBRANCH   2  29
TORSDOF 14
ENDMDL
MODEL 9
REMARK VINA RESULT:      -5.4     26.372     30.056
REMARK  Name = 
REMARK  14 active torsions:
REMARK  status: ('A' for Active; 'I' for Inactive)
REMARK    1  A    between atoms: O_1  and  C_14
REMARK    2  A    between atoms: O_1  and  C_15
REMARK    3  A    between atoms: O_4  and  C_16
REMARK    4  A    between atoms: O_5  and  C_18
REMARK    5  A    between atoms: O_6  and  C_26
REMARK    6  A    between atoms: O_7  and  C_29
REMARK    7  A    between atoms: O_8  and  C_35
REMARK    8  A    between atoms: O_9  and  C_36
REMARK    9  A    between atoms: O_10  and  C_39
REMARK   10  A    between atoms: O_11  and  C_40
REMARK   11  A    between atoms: O_12  and  C_41
REMARK   12  A    between atoms: O_13  and  C_43
REMARK   13  A    between atoms: C_14  and  C_20
REMARK   14  A    between atoms: C_17  and  C_24
REMARK                            x       y       z     vdW  Elec       q    Type
REMARK                         _______ _______ _______ _____ _____    ______ ____
ROOT
ATOM      1  O   UNL     1      19.510  34.948   6.903  0.00  0.00    +0.000 OA
ATOM      2  C   UNL     1      20.695  34.159   7.079  0.00  0.00    +0.000 C 
ATOM      3  C   UNL     1      21.868  35.025   7.632  0.00  0.00    +0.000 C 
ATOM      4  C   UNL     1      22.119  36.226   6.725  0.00  0.00    +0.000 C 
ATOM      5  C   UNL     1      20.840  36.933   6.391  0.00  0.00    +0.000 A 
ATOM      6  C   UNL     1      19.627  36.246   6.491  0.00  0.00    +0.000 A 
ATOM      7  C   UNL     1      20.815  38.259   5.936  0.00  0.00    +0.000 A 
ATOM      8  C   UNL     1      18.425  36.876   6.162  0.00  0.00    +0.000 A 
ATOM      9  C   UNL     1      19.624  38.890   5.586  0.00  0.00    +0.000 A 
ATOM     10  C   UNL     1      18.433  38.190   5.708  0.00  0.00    +0.000 A 
ENDROOT
BRANCH   2  11
ATOM     11  C   UNL     1      21.115  33.413   5.799  0.00  0.00    +0.000 A 
ATOM     12  C   UNL     1      22.319  32.674   5.759  0.00  0.00    +0.000 A 
ATOM     13  C   UNL     1      20.310  33.431   4.640  0.00  0.00    +0.000 A 
ATOM     14  C   UNL     1      22.691  32.000   4.600  0.00  0.00    +0.000 A 
ATOM     15  C   UNL     1      20.700  32.763   3.476  0.00  0.00    +0.000 A 
ATOM     16  C   UNL     1      21.890  32.059   3.465  0.00  0.00    +0.000 A 
BRANCH  14  17
ATOM     17  O   UNL     1      23.834  31.256   4.519  0.00  0.00    +0.000 OA
ATOM     18  H   UNL     1      24.430  31.492   5.259  0.00  0.00    +0.000 HD
ENDBRANCH  14  17
BRANCH  16  19
ATOM     19  O   UNL     1      22.269  31.403   2.329  0.00  0.00    +0.000 OA
ATOM     20  H   UNL     1      22.710  30.591   2.654  0.00  0.00    +0.000 HD
ENDBRANCH  16  19
ENDBRANCH   2  11
BRANCH   3  21
ATOM     21  O   UNL     1      21.600  35.514   8.977  0.00  0.00    +0.000 OA
ATOM     22  H   UNL     1      21.038  34.825   9.387  0.00  0.00    +0.000 HD
ENDBRANCH   3  21
BRANCH   4  23
ATOM     23  O   UNL     1      23.013  37.142   7.381  0.00  0.00    +0.000 OA
ATOM     24  H   UNL     1      23.552  36.569   7.971  0.00  0.00    +0.000 HD
ENDBRANCH   4  23
BRANCH   7  25
ATOM     25  O   UNL     1      21.959  39.004   5.831  0.00  0.00    +0.000 OA
ATOM     26  H   UNL     1      21.686  39.944   5.746  0.00  0.00    +0.000 HD
ENDBRANCH   7  25
BRANCH  10  27
ATOM     27  O   UNL     1      17.236  38.762   5.387  0.00  0.00    +0.000 OA
ATOM     28  H   UNL     1      17.071  38.617   4.441  0.00  0.00    +0.000 HD
ENDBRANCH  10  27
BRANCH   2  29
ATOM     29  O   UNL     1      20.452  33.209   8.155  0.00  0.00    +0.000 OA
BRANCH  29  31
ATOM     30  O   UNL     1      17.782  30.707   8.738  0.00  0.00    +0.000 OA
ATOM     31  C   UNL     1      19.094  32.768   8.346  0.00  0.00    +0.000 C 
ATOM     32  C   UNL     1      19.107  31.242   8.612  0.00  0.00    +0.000 C 
ATOM     33  C   UNL     1      18.444  33.441   9.559  0.00  0.00    +0.000 C 
ATOM     34  C   UNL     1      17.255  32.676  10.072  0.00  0.00    +0.000 A 
ATOM     35  C   UNL     1      16.994  31.373   9.636  0.00  0.00    +0.000 A 
ATOM     36  C   UNL     1      16.385  33.254  11.004  0.00  0.00    +0.000 A 
ATOM     37  C   UNL     1      15.867  30.681  10.085  0.00  0.00    +0.000 A 
ATOM     38  C   UNL     1      15.266  32.567  11.472  0.00  0.00    +0.000 A 
ATOM     39  C   UNL     1      15.014  31.285  11.001  0.00  0.00    +0.000 A 
BRANCH  32  40
ATOM     40  C   UNL     1      19.797  30.492   7.480  0.00  0.00    +0.000 A 
ATOM     41  C   UNL     1      21.045  29.879   7.675  0.00  0.00    +0.000 A 
ATOM     42  C   UNL     1      19.146  30.337   6.243  0.00  0.00    +0.000 A 
ATOM     43  C   UNL     1      21.597  29.090   6.667  0.00  0.00    +0.000 A 
ATOM     44  C   UNL     1      19.714  29.561   5.230  0.00  0.00    +0.000 A 
ATOM     45  C   UNL     1      20.932  28.927   5.453  0.00  0.00    +0.000 A 
BRANCH  43  46
ATOM     46  O   UNL     1      22.763  28.414   6.885  0.00  0.00    +0.000 OA
ATOM     47  H   UNL     1      23.505  29.040   6.848  0.00  0.00    +0.000 HD
ENDBRANCH  43  46
BRANCH  45  48
ATOM     48  O   UNL     1      21.475  28.113   4.501  0.00  0.00    +0.000 OA
ATOM     49  H   UNL     1      20.759  27.699   3.991  0.00  0.00    +0.000 HD
ENDBRANCH  45  48
ENDBRANCH  32  40
BRANCH  36  50
ATOM     50  O   UNL     1      16.651  34.518  11.451  0.00  0.00    +0.000 OA
ATOM     51  H   UNL     1      17.611  34.669  11.414  0.00  0.00    +0.000 HD
ENDBRANCH  36  50
BRANCH  39  52
ATOM     52  O   UNL     1      13.907  30.643  11.473  0.00  0.00    +0.000 OA
ATOM     53  H   UNL     1      13.291  30.501  10.734  0.00  0.00    +0.000 HD
ENDBRANCH  39  52
ENDBRANCH  29  31
ENDBRANCH   2  29
TORSDOF 14
ENDMDL
