MODEL 1
REMARK VINA RESULT:      -6.3      0.000      0.000
REMARK  Name = Progesterone.pdbqt.pdb
REMARK  1 active torsions:
REMARK  status: ('A' for Active; 'I' for Inactive)
REMARK    1  A    between atoms: C_7  and  C_21
REMARK                            x       y       z     vdW  Elec       q    Type
REMARK                         _______ _______ _______ _____ _____    ______ ____
ROOT
ATOM      1  O   UNL     1      13.613  15.513  28.617  0.00  0.00    +0.000 OA
ATOM      2  C   UNL     1      10.446  22.045  31.049  0.00  0.00    +0.000 C 
ATOM      3  C   UNL     1       8.899  22.423  30.730  0.00  0.00    +0.000 C 
ATOM      4  C   UNL     1      10.921  20.649  31.126  0.00  0.00    +0.000 C 
ATOM      5  C   UNL     1      10.164  19.431  30.675  0.00  0.00    +0.000 C 
ATOM      6  C   UNL     1      10.656  17.982  30.887  0.00  0.00    +0.000 C 
ATOM      7  C   UNL     1       9.025  23.569  29.771  0.00  0.00    +0.000 C 
ATOM      8  C   UNL     1       8.343  21.194  30.163  0.00  0.00    +0.000 C 
ATOM      9  C   UNL     1       8.894  19.790  30.146  0.00  0.00    +0.000 C 
ATOM     10  C   UNL     1      11.262  23.051  30.440  0.00  0.00    +0.000 C 
ATOM     11  C   UNL     1      12.244  20.348  31.524  0.00  0.00    +0.000 C 
ATOM     12  C   UNL     1      10.384  23.969  29.632  0.00  0.00    +0.000 C 
ATOM     13  C   UNL     1      12.286  17.824  31.139  0.00  0.00    +0.000 C 
ATOM     14  C   UNL     1       8.266  22.863  32.071  0.00  0.00    +0.000 C 
ATOM     15  C   UNL     1      12.934  19.017  31.545  0.00  0.00    +0.000 C 
ATOM     16  C   UNL     1      10.434  17.169  29.645  0.00  0.00    +0.000 C 
ATOM     17  C   UNL     1       9.945  17.361  32.118  0.00  0.00    +0.000 C 
ATOM     18  C   UNL     1      11.362  16.267  28.801  0.00  0.00    +0.000 C 
ATOM     19  C   UNL     1      12.950  16.997  30.360  0.00  0.00    +0.000 C 
ATOM     20  C   UNL     1      12.754  16.152  29.191  0.00  0.00    +0.000 C 
ENDROOT
BRANCH   7  21
ATOM     21  C   UNL     1       7.905  24.202  29.119  0.00  0.00    +0.000 C 
ATOM     22  O   UNL     1       7.464  23.897  28.024  0.00  0.00    +0.000 OA
ATOM     23  C   UNL     1       7.066  25.264  29.749  0.00  0.00    +0.000 C 
ENDBRANCH   7  21
TORSDOF 1
ENDMDL
MODEL 2
REMARK VINA RESULT:      -6.0     28.665     30.115
REMARK  Name = Progesterone.pdbqt.pdb
REMARK  1 active torsions:
REMARK  status: ('A' for Active; 'I' for Inactive)
REMARK    1  A    between atoms: C_7  and  C_21
REMARK                            x       y       z     vdW  Elec       q    Type
REMARK                         _______ _______ _______ _____ _____    ______ ____
ROOT
ATOM      1  O   UNL     1      24.046  28.261   7.292  0.00  0.00    +0.000 OA
ATOM      2  C   UNL     1      20.423  24.281   1.846  0.00  0.00    +0.000 C 
ATOM      3  C   UNL     1      18.891  24.607   1.417  0.00  0.00    +0.000 C 
ATOM      4  C   UNL     1      21.320  25.305   2.417  0.00  0.00    +0.000 C 
ATOM      5  C   UNL     1      20.909  26.659   2.924  0.00  0.00    +0.000 C 
ATOM      6  C   UNL     1      21.903  27.741   3.402  0.00  0.00    +0.000 C 
ATOM      7  C   UNL     1      18.140  23.409   1.919  0.00  0.00    +0.000 C 
ATOM      8  C   UNL     1      18.589  25.863   2.104  0.00  0.00    +0.000 C 
ATOM      9  C   UNL     1      19.506  26.847   2.788  0.00  0.00    +0.000 C 
ATOM     10  C   UNL     1      20.445  22.941   2.350  0.00  0.00    +0.000 C 
ATOM     11  C   UNL     1      22.683  25.024   2.668  0.00  0.00    +0.000 C 
ATOM     12  C   UNL     1      19.035  22.420   2.419  0.00  0.00    +0.000 C 
ATOM     13  C   UNL     1      23.395  27.174   3.848  0.00  0.00    +0.000 C 
ATOM     14  C   UNL     1      18.873  24.690  -0.127  0.00  0.00    +0.000 C 
ATOM     15  C   UNL     1      23.705  25.885   3.347  0.00  0.00    +0.000 C 
ATOM     16  C   UNL     1      21.405  28.386   4.662  0.00  0.00    +0.000 C 
ATOM     17  C   UNL     1      22.131  28.779   2.272  0.00  0.00    +0.000 C 
ATOM     18  C   UNL     1      22.058  28.644   6.038  0.00  0.00    +0.000 C 
ATOM     19  C   UNL     1      23.840  27.494   5.045  0.00  0.00    +0.000 C 
ATOM     20  C   UNL     1      23.409  28.167   6.261  0.00  0.00    +0.000 C 
ENDROOT
BRANCH   7  21
ATOM     21  C   UNL     1      16.706  23.271   1.854  0.00  0.00    +0.000 C 
ATOM     22  O   UNL     1      15.904  24.179   1.995  0.00  0.00    +0.000 OA
ATOM     23  C   UNL     1      16.006  21.998   1.508  0.00  0.00    +0.000 C 
ENDBRANCH   7  21
TORSDOF 1
ENDMDL
MODEL 3
REMARK VINA RESULT:      -5.5     27.702     29.360
REMARK  Name = Progesterone.pdbqt.pdb
REMARK  1 active torsions:
REMARK  status: ('A' for Active; 'I' for Inactive)
REMARK    1  A    between atoms: C_7  and  C_21
REMARK                            x       y       z     vdW  Elec       q    Type
REMARK                         _______ _______ _______ _____ _____    ______ ____
ROOT
ATOM      1  O   UNL     1      20.004  28.821  -1.376  0.00  0.00    +0.000 OA
ATOM      2  C   UNL     1      21.491  28.802   6.135  0.00  0.00    +0.000 C 
ATOM      3  C   UNL     1      20.693  29.762   7.173  0.00  0.00    +0.000 C 
ATOM      4  C   UNL     1      20.898  28.346   4.862  0.00  0.00    +0.000 C 
ATOM      5  C   UNL     1      19.649  28.886   4.224  0.00  0.00    +0.000 C 
ATOM      6  C   UNL     1      19.004  28.295   2.951  0.00  0.00    +0.000 C 
ATOM      7  C   UNL     1      21.746  30.742   7.600  0.00  0.00    +0.000 C 
ATOM      8  C   UNL     1      19.606  30.326   6.371  0.00  0.00    +0.000 C 
ATOM      9  C   UNL     1      19.084  29.924   5.014  0.00  0.00    +0.000 C 
ATOM     10  C   UNL     1      22.873  29.168   6.196  0.00  0.00    +0.000 C 
ATOM     11  C   UNL     1      21.568  27.414   4.036  0.00  0.00    +0.000 C 
ATOM     12  C   UNL     1      23.019  30.380   7.077  0.00  0.00    +0.000 C 
ATOM     13  C   UNL     1      20.021  27.392   2.004  0.00  0.00    +0.000 C 
ATOM     14  C   UNL     1      20.235  28.863   8.345  0.00  0.00    +0.000 C 
ATOM     15  C   UNL     1      21.185  26.933   2.669  0.00  0.00    +0.000 C 
ATOM     16  C   UNL     1      18.578  29.394   2.023  0.00  0.00    +0.000 C 
ATOM     17  C   UNL     1      17.816  27.377   3.342  0.00  0.00    +0.000 C 
ATOM     18  C   UNL     1      18.837  29.660   0.523  0.00  0.00    +0.000 C 
ATOM     19  C   UNL     1      20.125  27.716   0.732  0.00  0.00    +0.000 C 
ATOM     20  C   UNL     1      19.681  28.734  -0.207  0.00  0.00    +0.000 C 
ENDROOT
BRANCH   7  21
ATOM     21  C   UNL     1      21.495  31.869   8.464  0.00  0.00    +0.000 C 
ATOM     22  O   UNL     1      21.126  32.971   8.095  0.00  0.00    +0.000 OA
ATOM     23  C   UNL     1      21.565  31.808   9.955  0.00  0.00    +0.000 C 
ENDBRANCH   7  21
TORSDOF 1
ENDMDL
MODEL 4
REMARK VINA RESULT:      -5.3     19.308     23.712
REMARK  Name = Progesterone.pdbqt.pdb
REMARK  1 active torsions:
REMARK  status: ('A' for Active; 'I' for Inactive)
REMARK    1  A    between atoms: C_7  and  C_21
REMARK                            x       y       z     vdW  Elec       q    Type
REMARK                         _______ _______ _______ _____ _____    ______ ____
ROOT
ATOM      1  O   UNL     1      10.656   1.433  30.376  0.00  0.00    +0.000 OA
ATOM      2  C   UNL     1      13.111  -3.827  25.384  0.00  0.00    +0.000 C 
ATOM      3  C   UNL     1      13.827  -3.418  23.985  0.00  0.00    +0.000 C 
ATOM      4  C   UNL     1      13.148  -2.958  26.576  0.00  0.00    +0.000 C 
ATOM      5  C   UNL     1      13.586  -1.520  26.611  0.00  0.00    +0.000 C 
ATOM      6  C   UNL     1      13.720  -0.689  27.906  0.00  0.00    +0.000 C 
ATOM      7  C   UNL     1      12.810  -3.821  22.958  0.00  0.00    +0.000 C 
ATOM      8  C   UNL     1      14.050  -1.977  24.108  0.00  0.00    +0.000 C 
ATOM      9  C   UNL     1      13.971  -1.076  25.316  0.00  0.00    +0.000 C 
ATOM     10  C   UNL     1      11.918  -4.547  25.054  0.00  0.00    +0.000 C 
ATOM     11  C   UNL     1      12.621  -3.392  27.815  0.00  0.00    +0.000 C 
ATOM     12  C   UNL     1      11.724  -4.515  23.562  0.00  0.00    +0.000 C 
ATOM     13  C   UNL     1      12.854  -1.259  29.198  0.00  0.00    +0.000 C 
ATOM     14  C   UNL     1      15.115  -4.268  23.883  0.00  0.00    +0.000 C 
ATOM     15  C   UNL     1      12.462  -2.616  29.087  0.00  0.00    +0.000 C 
ATOM     16  C   UNL     1      13.149   0.684  27.705  0.00  0.00    +0.000 C 
ATOM     17  C   UNL     1      15.208  -0.637  28.344  0.00  0.00    +0.000 C 
ATOM     18  C   UNL     1      12.121   1.519  28.500  0.00  0.00    +0.000 C 
ATOM     19  C   UNL     1      12.031  -0.427  29.800  0.00  0.00    +0.000 C 
ATOM     20  C   UNL     1      11.502   0.923  29.668  0.00  0.00    +0.000 C 
ENDROOT
BRANCH   7  21
ATOM     21  C   UNL     1      12.951  -3.573  21.544  0.00  0.00    +0.000 C 
ATOM     22  O   UNL     1      13.825  -2.894  21.032  0.00  0.00    +0.000 OA
ATOM     23  C   UNL     1      12.090  -4.200  20.498  0.00  0.00    +0.000 C 
ENDBRANCH   7  21
TORSDOF 1
ENDMDL
MODEL 5
REMARK VINA RESULT:      -5.3     19.349     20.743
REMARK  Name = Progesterone.pdbqt.pdb
REMARK  1 active torsions:
REMARK  status: ('A' for Active; 'I' for Inactive)
REMARK    1  A    between atoms: C_7  and  C_21
REMARK                            x       y       z     vdW  Elec       q    Type
REMARK                         _______ _______ _______ _____ _____    ______ ____
ROOT
ATOM      1  O   UNL     1      -4.678  17.028  17.832  0.00  0.00    +0.000 OA
ATOM      2  C   UNL     1      -3.596  24.343  15.849  0.00  0.00    +0.000 C 
ATOM      3  C   UNL     1      -2.748  24.761  14.528  0.00  0.00    +0.000 C 
ATOM      4  C   UNL     1      -4.302  23.052  15.961  0.00  0.00    +0.000 C 
ATOM      5  C   UNL     1      -4.135  21.869  15.048  0.00  0.00    +0.000 C 
ATOM      6  C   UNL     1      -4.986  20.583  15.137  0.00  0.00    +0.000 C 
ATOM      7  C   UNL     1      -1.513  25.384  15.106  0.00  0.00    +0.000 C 
ATOM      8  C   UNL     1      -2.537  23.494  13.827  0.00  0.00    +0.000 C 
ATOM      9  C   UNL     1      -3.184  22.146  14.028  0.00  0.00    +0.000 C 
ATOM     10  C   UNL     1      -2.913  24.891  16.981  0.00  0.00    +0.000 C 
ATOM     11  C   UNL     1      -5.131  22.766  17.071  0.00  0.00    +0.000 C 
ATOM     12  C   UNL     1      -1.618  25.506  16.521  0.00  0.00    +0.000 C 
ATOM     13  C   UNL     1      -5.717  20.325  16.602  0.00  0.00    +0.000 C 
ATOM     14  C   UNL     1      -3.607  25.792  13.760  0.00  0.00    +0.000 C 
ATOM     15  C   UNL     1      -5.823  21.481  17.414  0.00  0.00    +0.000 C 
ATOM     16  C   UNL     1      -4.115  19.370  14.985  0.00  0.00    +0.000 C 
ATOM     17  C   UNL     1      -6.111  20.623  14.069  0.00  0.00    +0.000 C 
ATOM     18  C   UNL     1      -3.948  18.086  15.828  0.00  0.00    +0.000 C 
ATOM     19  C   UNL     1      -5.507  19.170  17.197  0.00  0.00    +0.000 C 
ATOM     20  C   UNL     1      -4.720  17.955  17.048  0.00  0.00    +0.000 C 
ENDROOT
BRANCH   7  21
ATOM     21  C   UNL     1      -0.394  25.839  14.317  0.00  0.00    +0.000 C 
ATOM     22  O   UNL     1      -0.042  25.358  13.253  0.00  0.00    +0.000 OA
ATOM     23  C   UNL     1       0.434  27.034  14.656  0.00  0.00    +0.000 C 
ENDBRANCH   7  21
TORSDOF 1
ENDMDL
MODEL 6
REMARK VINA RESULT:      -5.1     13.485     14.770
REMARK  Name = Progesterone.pdbqt.pdb
REMARK  1 active torsions:
REMARK  status: ('A' for Active; 'I' for Inactive)
REMARK    1  A    between atoms: C_7  and  C_21
REMARK                            x       y       z     vdW  Elec       q    Type
REMARK                         _______ _______ _______ _____ _____    ______ ____
ROOT
ATOM      1  O   UNL     1       1.734   9.213  20.841  0.00  0.00    +0.000 OA
ATOM      2  C   UNL     1      -0.652  15.742  24.051  0.00  0.00    +0.000 C 
ATOM      3  C   UNL     1      -1.856  16.625  23.414  0.00  0.00    +0.000 C 
ATOM      4  C   UNL     1      -0.544  14.284  23.846  0.00  0.00    +0.000 C 
ATOM      5  C   UNL     1      -1.320  13.470  22.848  0.00  0.00    +0.000 C 
ATOM      6  C   UNL     1      -1.258  11.930  22.754  0.00  0.00    +0.000 C 
ATOM      7  C   UNL     1      -1.148  17.852  22.923  0.00  0.00    +0.000 C 
ATOM      8  C   UNL     1      -2.410  15.765  22.367  0.00  0.00    +0.000 C 
ATOM      9  C   UNL     1      -2.201  14.296  22.096  0.00  0.00    +0.000 C 
ATOM     10  C   UNL     1       0.523  16.559  24.042  0.00  0.00    +0.000 C 
ATOM     11  C   UNL     1       0.445  13.523  24.511  0.00  0.00    +0.000 C 
ATOM     12  C   UNL     1       0.219  17.845  23.322  0.00  0.00    +0.000 C 
ATOM     13  C   UNL     1       0.093  11.241  23.422  0.00  0.00    +0.000 C 
ATOM     14  C   UNL     1      -2.829  16.946  24.572  0.00  0.00    +0.000 C 
ATOM     15  C   UNL     1       0.782  12.072  24.339  0.00  0.00    +0.000 C 
ATOM     16  C   UNL     1      -1.174  11.498  21.319  0.00  0.00    +0.000 C 
ATOM     17  C   UNL     1      -2.485  11.310  23.473  0.00  0.00    +0.000 C 
ATOM     18  C   UNL     1      -0.214  10.554  20.562  0.00  0.00    +0.000 C 
ATOM     19  C   UNL     1       0.806  10.432  22.666  0.00  0.00    +0.000 C 
ATOM     20  C   UNL     1       0.880   9.948  21.296  0.00  0.00    +0.000 C 
ENDROOT
BRANCH   7  21
ATOM     21  C   UNL     1      -1.790  18.914  22.188  0.00  0.00    +0.000 C 
ATOM     22  O   UNL     1      -1.657  19.124  20.994  0.00  0.00    +0.000 OA
ATOM     23  C   UNL     1      -2.791  19.851  22.779  0.00  0.00    +0.000 C 
ENDBRANCH   7  21
TORSDOF 1
ENDMDL
MODEL 7
REMARK VINA RESULT:      -5.1     22.246     24.064
REMARK  Name = Progesterone.pdbqt.pdb
REMARK  1 active torsions:
REMARK  status: ('A' for Active; 'I' for Inactive)
REMARK    1  A    between atoms: C_7  and  C_21
REMARK                            x       y       z     vdW  Elec       q    Type
REMARK                         _______ _______ _______ _____ _____    ______ ____
ROOT
ATOM      1  O   UNL     1      22.823  33.730  14.889  0.00  0.00    +0.000 OA
ATOM      2  C   UNL     1      15.959  34.232  11.534  0.00  0.00    +0.000 C 
ATOM      3  C   UNL     1      14.722  35.031  12.219  0.00  0.00    +0.000 C 
ATOM      4  C   UNL     1      17.369  34.570  11.809  0.00  0.00    +0.000 C 
ATOM      5  C   UNL     1      17.867  35.465  12.909  0.00  0.00    +0.000 C 
ATOM      6  C   UNL     1      19.344  35.882  13.081  0.00  0.00    +0.000 C 
ATOM      7  C   UNL     1      13.772  33.930  12.583  0.00  0.00    +0.000 C 
ATOM      8  C   UNL     1      15.333  35.726  13.352  0.00  0.00    +0.000 C 
ATOM      9  C   UNL     1      16.785  35.966  13.684  0.00  0.00    +0.000 C 
ATOM     10  C   UNL     1      15.558  32.864  11.403  0.00  0.00    +0.000 C 
ATOM     11  C   UNL     1      18.422  33.938  11.107  0.00  0.00    +0.000 C 
ATOM     12  C   UNL     1      14.224  32.679  12.075  0.00  0.00    +0.000 C 
ATOM     13  C   UNL     1      20.445  34.886  12.344  0.00  0.00    +0.000 C 
ATOM     14  C   UNL     1      14.137  35.958  11.129  0.00  0.00    +0.000 C 
ATOM     15  C   UNL     1      19.899  34.060  11.330  0.00  0.00    +0.000 C 
ATOM     16  C   UNL     1      19.744  35.804  14.526  0.00  0.00    +0.000 C 
ATOM     17  C   UNL     1      19.559  37.304  12.499  0.00  0.00    +0.000 C 
ATOM     18  C   UNL     1      20.925  35.122  15.252  0.00  0.00    +0.000 C 
ATOM     19  C   UNL     1      21.419  34.396  13.081  0.00  0.00    +0.000 C 
ATOM     20  C   UNL     1      21.866  34.349  14.465  0.00  0.00    +0.000 C 
ENDROOT
BRANCH   7  21
ATOM     21  C   UNL     1      12.542  34.133  13.310  0.00  0.00    +0.000 C 
ATOM     22  O   UNL     1      12.463  34.520  14.464  0.00  0.00    +0.000 OA
ATOM     23  C   UNL     1      11.184  33.985  12.708  0.00  0.00    +0.000 C 
ENDBRANCH   7  21
TORSDOF 1
ENDMDL
MODEL 8
REMARK VINA RESULT:      -5.1      2.095      2.628
REMARK  Name = Progesterone.pdbqt.pdb
REMARK  1 active torsions:
REMARK  status: ('A' for Active; 'I' for Inactive)
REMARK    1  A    between atoms: C_7  and  C_21
REMARK                            x       y       z     vdW  Elec       q    Type
REMARK                         _______ _______ _______ _____ _____    ______ ____
ROOT
ATOM      1  O   UNL     1      13.020  15.862  28.135  0.00  0.00    +0.000 OA
ATOM      2  C   UNL     1       8.518  21.130  31.392  0.00  0.00    +0.000 C 
ATOM      3  C   UNL     1       7.001  20.793  31.862  0.00  0.00    +0.000 C 
ATOM      4  C   UNL     1       9.570  20.097  31.312  0.00  0.00    +0.000 C 
ATOM      5  C   UNL     1       9.358  18.610  31.379  0.00  0.00    +0.000 C 
ATOM      6  C   UNL     1      10.504  17.575  31.411  0.00  0.00    +0.000 C 
ATOM      7  C   UNL     1       6.168  21.581  30.895  0.00  0.00    +0.000 C 
ATOM      8  C   UNL     1       6.902  19.340  31.728  0.00  0.00    +0.000 C 
ATOM      9  C   UNL     1       7.978  18.301  31.530  0.00  0.00    +0.000 C 
ATOM     10  C   UNL     1       8.435  22.152  30.393  0.00  0.00    +0.000 C 
ATOM     11  C   UNL     1      10.910  20.440  31.017  0.00  0.00    +0.000 C 
ATOM     12  C   UNL     1       6.987  22.405  30.072  0.00  0.00    +0.000 C 
ATOM     13  C   UNL     1      11.956  18.118  30.827  0.00  0.00    +0.000 C 
ATOM     14  C   UNL     1       6.859  21.323  33.308  0.00  0.00    +0.000 C 
ATOM     15  C   UNL     1      12.076  19.529  30.777  0.00  0.00    +0.000 C 
ATOM     16  C   UNL     1      10.192  16.423  30.501  0.00  0.00    +0.000 C 
ATOM     17  C   UNL     1      10.748  17.107  32.870  0.00  0.00    +0.000 C 
ATOM     18  C   UNL     1      10.986  15.736  29.367  0.00  0.00    +0.000 C 
ATOM     19  C   UNL     1      12.536  17.416  29.876  0.00  0.00    +0.000 C 
ATOM     20  C   UNL     1      12.289  16.267  29.018  0.00  0.00    +0.000 C 
ENDROOT
BRANCH   7  21
ATOM     21  C   UNL     1       4.727  21.536  30.849  0.00  0.00    +0.000 C 
ATOM     22  O   UNL     1       3.983  22.440  31.191  0.00  0.00    +0.000 OA
ATOM     23  C   UNL     1       3.946  20.398  30.280  0.00  0.00    +0.000 C 
ENDBRANCH   7  21
TORSDOF 1
ENDMDL
MODEL 9
REMARK VINA RESULT:      -5.0     28.466     30.895
REMARK  Name = Progesterone.pdbqt.pdb
REMARK  1 active torsions:
REMARK  status: ('A' for Active; 'I' for Inactive)
REMARK    1  A    between atoms: C_7  and  C_21
REMARK                            x       y       z     vdW  Elec       q    Type
REMARK                         _______ _______ _______ _____ _____    ______ ____
ROOT
ATOM      1  O   UNL     1      21.059  -0.333  11.839  0.00  0.00    +0.000 OA
ATOM      2  C   UNL     1      15.405  -4.608  14.733  0.00  0.00    +0.000 C 
ATOM      3  C   UNL     1      15.034  -6.068  14.127  0.00  0.00    +0.000 C 
ATOM      4  C   UNL     1      16.759  -4.028  14.628  0.00  0.00    +0.000 C 
ATOM      5  C   UNL     1      17.874  -4.535  13.757  0.00  0.00    +0.000 C 
ATOM      6  C   UNL     1      19.310  -3.965  13.773  0.00  0.00    +0.000 C 
ATOM      7  C   UNL     1      13.694  -5.837  13.493  0.00  0.00    +0.000 C 
ATOM      8  C   UNL     1      16.124  -6.353  13.193  0.00  0.00    +0.000 C 
ATOM      9  C   UNL     1      17.461  -5.677  13.017  0.00  0.00    +0.000 C 
ATOM     10  C   UNL     1      14.251  -3.777  14.572  0.00  0.00    +0.000 C 
ATOM     11  C   UNL     1      17.084  -2.810  15.269  0.00  0.00    +0.000 C 
ATOM     12  C   UNL     1      13.213  -4.529  13.784  0.00  0.00    +0.000 C 
ATOM     13  C   UNL     1      19.448  -2.430  14.382  0.00  0.00    +0.000 C 
ATOM     14  C   UNL     1      14.941  -7.035  15.330  0.00  0.00    +0.000 C 
ATOM     15  C   UNL     1      18.352  -2.016  15.179  0.00  0.00    +0.000 C 
ATOM     16  C   UNL     1      19.825  -3.812  12.372  0.00  0.00    +0.000 C 
ATOM     17  C   UNL     1      20.228  -4.877  14.629  0.00  0.00    +0.000 C 
ATOM     18  C   UNL     1      20.468  -2.628  11.614  0.00  0.00    +0.000 C 
ATOM     19  C   UNL     1      20.045  -1.525  13.635  0.00  0.00    +0.000 C 
ATOM     20  C   UNL     1      20.607  -1.361  12.303  0.00  0.00    +0.000 C 
ENDROOT
BRANCH   7  21
ATOM     21  C   UNL     1      12.979  -6.833  12.733  0.00  0.00    +0.000 C 
ATOM     22  O   UNL     1      12.246  -7.686  13.205  0.00  0.00    +0.000 OA
ATOM     23  C   UNL     1      12.967  -6.893  11.241  0.00  0.00    +0.000 C 
ENDBRANCH   7  21
TORSDOF 1
ENDMDL
