MODEL 1
REMARK VINA RESULT:      -6.5      0.000      0.000
REMARK  Name = Quercetin.pdbqt.pdb
REMARK  6 active torsions:
REMARK  status: ('A' for Active; 'I' for Inactive)
REMARK    1  A    between atoms: C_5  and  C_12
REMARK    2  A    between atoms: C_6  and  O_22
REMARK    3  A    between atoms: C_8  and  O_24
REMARK    4  A    between atoms: C_10  and  O_26
REMARK    5  A    between atoms: C_15  and  O_18
REMARK    6  A    between atoms: C_17  and  O_20
REMARK                            x       y       z     vdW  Elec       q    Type
REMARK                         _______ _______ _______ _____ _____    ______ ____
ROOT
ATOM      1  O   UNL     1       8.349  23.225  29.247  0.00  0.00    +0.000 OA
ATOM      2  O   UNL     1       4.422  23.387  30.281  0.00  0.00    +0.000 OA
ATOM      3  C   UNL     1       6.424  22.194  30.300  0.00  0.00    +0.000 A 
ATOM      4  C   UNL     1       7.761  22.189  29.919  0.00  0.00    +0.000 A 
ATOM      5  C   UNL     1       7.588  24.344  28.941  0.00  0.00    +0.000 A 
ATOM      6  C   UNL     1       6.278  24.481  29.237  0.00  0.00    +0.000 A 
ATOM      7  C   UNL     1       5.608  23.364  29.963  0.00  0.00    +0.000 A 
ATOM      8  C   UNL     1       5.888  21.097  30.986  0.00  0.00    +0.000 A 
ATOM      9  C   UNL     1       8.569  21.093  30.219  0.00  0.00    +0.000 A 
ATOM     10  C   UNL     1       8.027  20.009  30.901  0.00  0.00    +0.000 A 
ATOM     11  C   UNL     1       6.691  20.001  31.288  0.00  0.00    +0.000 A 
ENDROOT
BRANCH   5  12
ATOM     12  C   UNL     1       8.374  25.370  28.242  0.00  0.00    +0.000 A 
ATOM     13  C   UNL     1       8.280  25.528  26.855  0.00  0.00    +0.000 A 
ATOM     14  C   UNL     1       9.182  26.246  28.978  0.00  0.00    +0.000 A 
ATOM     15  C   UNL     1       9.005  26.531  26.225  0.00  0.00    +0.000 A 
ATOM     16  C   UNL     1       9.896  27.262  28.344  0.00  0.00    +0.000 A 
ATOM     17  C   UNL     1       9.788  27.408  26.968  0.00  0.00    +0.000 A 
BRANCH  15  18
ATOM     18  O   UNL     1       8.963  26.615  24.864  0.00  0.00    +0.000 OA
ATOM     19  H   UNL     1       9.876  26.498  24.541  0.00  0.00    +0.000 HD
ENDBRANCH  15  18
BRANCH  17  20
ATOM     20  O   UNL     1      10.442  28.437  26.357  0.00  0.00    +0.000 OA
ATOM     21  H   UNL     1      10.308  28.321  25.398  0.00  0.00    +0.000 HD
ENDBRANCH  17  20
ENDBRANCH   5  12
BRANCH   6  22
ATOM     22  O   UNL     1       5.493  25.570  28.907  0.00  0.00    +0.000 OA
ATOM     23  H   UNL     1       6.026  26.380  28.909  0.00  0.00    +0.000 HD
ENDBRANCH   6  22
BRANCH   8  24
ATOM     24  O   UNL     1       4.581  21.033  31.389  0.00  0.00    +0.000 OA
ATOM     25  H   UNL     1       4.183  21.929  31.291  0.00  0.00    +0.000 HD
ENDBRANCH   8  24
BRANCH  10  26
ATOM     26  O   UNL     1       8.839  18.949  31.183  0.00  0.00    +0.000 OA
ATOM     27  H   UNL     1       8.786  18.773  32.140  0.00  0.00    +0.000 HD
ENDBRANCH  10  26
TORSDOF 6
ENDMDL
MODEL 2
REMARK VINA RESULT:      -6.5      1.549      3.405
REMARK  Name = Quercetin.pdbqt.pdb
REMARK  6 active torsions:
REMARK  status: ('A' for Active; 'I' for Inactive)
REMARK    1  A    between atoms: C_5  and  C_12
REMARK    2  A    between atoms: C_6  and  O_22
REMARK    3  A    between atoms: C_8  and  O_24
REMARK    4  A    between atoms: C_10  and  O_26
REMARK    5  A    between atoms: C_15  and  O_18
REMARK    6  A    between atoms: C_17  and  O_20
REMARK                            x       y       z     vdW  Elec       q    Type
REMARK                         _______ _______ _______ _____ _____    ______ ____
ROOT
ATOM      1  O   UNL     1       6.292  25.406  29.087  0.00  0.00    +0.000 OA
ATOM      2  O   UNL     1       7.313  21.835  30.737  0.00  0.00    +0.000 OA
ATOM      3  C   UNL     1       5.659  23.429  30.340  0.00  0.00    +0.000 A 
ATOM      4  C   UNL     1       5.365  24.658  29.760  0.00  0.00    +0.000 A 
ATOM      5  C   UNL     1       7.583  24.916  28.957  0.00  0.00    +0.000 A 
ATOM      6  C   UNL     1       8.013  23.747  29.479  0.00  0.00    +0.000 A 
ATOM      7  C   UNL     1       7.027  22.914  30.224  0.00  0.00    +0.000 A 
ATOM      8  C   UNL     1       4.660  22.717  31.015  0.00  0.00    +0.000 A 
ATOM      9  C   UNL     1       4.077  25.184  29.850  0.00  0.00    +0.000 A 
ATOM     10  C   UNL     1       3.092  24.468  30.522  0.00  0.00    +0.000 A 
ATOM     11  C   UNL     1       3.372  23.238  31.107  0.00  0.00    +0.000 A 
ENDROOT
BRANCH   5  12
ATOM     12  C   UNL     1       8.444  25.827  28.190  0.00  0.00    +0.000 A 
ATOM     13  C   UNL     1       8.399  25.854  26.792  0.00  0.00    +0.000 A 
ATOM     14  C   UNL     1       9.279  26.727  28.866  0.00  0.00    +0.000 A 
ATOM     15  C   UNL     1       9.197  26.751  26.093  0.00  0.00    +0.000 A 
ATOM     16  C   UNL     1      10.065  27.638  28.162  0.00  0.00    +0.000 A 
ATOM     17  C   UNL     1      10.005  27.653  26.775  0.00  0.00    +0.000 A 
BRANCH  15  18
ATOM     18  O   UNL     1       9.198  26.703  24.730  0.00  0.00    +0.000 OA
ATOM     19  H   UNL     1       9.951  26.143  24.464  0.00  0.00    +0.000 HD
ENDBRANCH  15  18
BRANCH  17  20
ATOM     20  O   UNL     1      10.732  28.583  26.091  0.00  0.00    +0.000 OA
ATOM     21  H   UNL     1      10.255  29.429  26.179  0.00  0.00    +0.000 HD
ENDBRANCH  17  20
ENDBRANCH   5  12
BRANCH   6  22
ATOM     22  O   UNL     1       9.304  23.261  29.395  0.00  0.00    +0.000 OA
ATOM     23  H   UNL     1       9.295  22.292  29.348  0.00  0.00    +0.000 HD
ENDBRANCH   6  22
BRANCH   8  24
ATOM     24  O   UNL     1       4.878  21.504  31.611  0.00  0.00    +0.000 OA
ATOM     25  H   UNL     1       5.669  21.091  31.190  0.00  0.00    +0.000 HD
ENDBRANCH   8  24
BRANCH  10  26
ATOM     26  O   UNL     1       1.839  25.004  30.597  0.00  0.00    +0.000 OA
ATOM     27  H   UNL     1       1.762  25.691  29.911  0.00  0.00    +0.000 HD
ENDBRANCH  10  26
TORSDOF 6
ENDMDL
MODEL 3
REMARK VINA RESULT:      -6.0      1.866      7.215
REMARK  Name = Quercetin.pdbqt.pdb
REMARK  6 active torsions:
REMARK  status: ('A' for Active; 'I' for Inactive)
REMARK    1  A    between atoms: C_5  and  C_12
REMARK    2  A    between atoms: C_6  and  O_22
REMARK    3  A    between atoms: C_8  and  O_24
REMARK    4  A    between atoms: C_10  and  O_26
REMARK    5  A    between atoms: C_15  and  O_18
REMARK    6  A    between atoms: C_17  and  O_20
REMARK                            x       y       z     vdW  Elec       q    Type
REMARK                         _______ _______ _______ _____ _____    ______ ____
ROOT
ATOM      1  O   UNL     1       8.716  26.423  29.475  0.00  0.00    +0.000 OA
ATOM      2  O   UNL     1       9.434  27.277  25.566  0.00  0.00    +0.000 OA
ATOM      3  C   UNL     1       9.862  27.758  27.807  0.00  0.00    +0.000 A 
ATOM      4  C   UNL     1       9.577  27.427  29.127  0.00  0.00    +0.000 A 
ATOM      5  C   UNL     1       8.106  25.685  28.471  0.00  0.00    +0.000 A 
ATOM      6  C   UNL     1       8.279  25.902  27.150  0.00  0.00    +0.000 A 
ATOM      7  C   UNL     1       9.206  26.996  26.740  0.00  0.00    +0.000 A 
ATOM      8  C   UNL     1      10.754  28.800  27.523  0.00  0.00    +0.000 A 
ATOM      9  C   UNL     1      10.179  28.130  30.169  0.00  0.00    +0.000 A 
ATOM     10  C   UNL     1      11.064  29.163  29.877  0.00  0.00    +0.000 A 
ATOM     11  C   UNL     1      11.357  29.505  28.561  0.00  0.00    +0.000 A 
ENDROOT
BRANCH   5  12
ATOM     12  C   UNL     1       7.233  24.633  29.013  0.00  0.00    +0.000 A 
ATOM     13  C   UNL     1       7.770  23.462  29.557  0.00  0.00    +0.000 A 
ATOM     14  C   UNL     1       5.847  24.831  29.043  0.00  0.00    +0.000 A 
ATOM     15  C   UNL     1       6.923  22.501  30.096  0.00  0.00    +0.000 A 
ATOM     16  C   UNL     1       5.001  23.873  29.600  0.00  0.00    +0.000 A 
ATOM     17  C   UNL     1       5.550  22.718  30.139  0.00  0.00    +0.000 A 
BRANCH  15  18
ATOM     18  O   UNL     1       7.461  21.331  30.546  0.00  0.00    +0.000 OA
ATOM     19  H   UNL     1       6.796  20.634  30.393  0.00  0.00    +0.000 HD
ENDBRANCH  15  18
BRANCH  17  20
ATOM     20  O   UNL     1       4.727  21.807  30.734  0.00  0.00    +0.000 OA
ATOM     21  H   UNL     1       5.255  21.363  31.423  0.00  0.00    +0.000 HD
ENDBRANCH  17  20
ENDBRANCH   5  12
BRANCH   6  22
ATOM     22  O   UNL     1       7.650  25.205  26.136  0.00  0.00    +0.000 OA
ATOM     23  H   UNL     1       7.536  25.773  25.358  0.00  0.00    +0.000 HD
ENDBRANCH   6  22
BRANCH   8  24
ATOM     24  O   UNL     1      11.078  29.182  26.249  0.00  0.00    +0.000 OA
ATOM     25  H   UNL     1      10.243  29.368  25.760  0.00  0.00    +0.000 HD
ENDBRANCH   8  24
BRANCH  10  26
ATOM     26  O   UNL     1      11.640  29.836  30.915  0.00  0.00    +0.000 OA
ATOM     27  H   UNL     1      12.241  29.224  31.377  0.00  0.00    +0.000 HD
ENDBRANCH  10  26
TORSDOF 6
ENDMDL
MODEL 4
REMARK VINA RESULT:      -5.8     22.805     26.407
REMARK  Name = Quercetin.pdbqt.pdb
REMARK  6 active torsions:
REMARK  status: ('A' for Active; 'I' for Inactive)
REMARK    1  A    between atoms: C_5  and  C_12
REMARK    2  A    between atoms: C_6  and  O_22
REMARK    3  A    between atoms: C_8  and  O_24
REMARK    4  A    between atoms: C_10  and  O_26
REMARK    5  A    between atoms: C_15  and  O_18
REMARK    6  A    between atoms: C_17  and  O_20
REMARK                            x       y       z     vdW  Elec       q    Type
REMARK                         _______ _______ _______ _____ _____    ______ ____
ROOT
ATOM      1  O   UNL     1      19.027  30.028   6.251  0.00  0.00    +0.000 OA
ATOM      2  O   UNL     1      22.737  28.747   7.309  0.00  0.00    +0.000 OA
ATOM      3  C   UNL     1      21.039  28.786   5.713  0.00  0.00    +0.000 A 
ATOM      4  C   UNL     1      19.765  29.248   5.403  0.00  0.00    +0.000 A 
ATOM      5  C   UNL     1      19.575  30.394   7.472  0.00  0.00    +0.000 A 
ATOM      6  C   UNL     1      20.793  30.009   7.910  0.00  0.00    +0.000 A 
ATOM      7  C   UNL     1      21.616  29.152   7.010  0.00  0.00    +0.000 A 
ATOM      8  C   UNL     1      21.737  27.990   4.796  0.00  0.00    +0.000 A 
ATOM      9  C   UNL     1      19.180  28.921   4.181  0.00  0.00    +0.000 A 
ATOM     10  C   UNL     1      19.881  28.130   3.277  0.00  0.00    +0.000 A 
ATOM     11  C   UNL     1      21.157  27.660   3.574  0.00  0.00    +0.000 A 
ENDROOT
BRANCH   5  12
ATOM     12  C   UNL     1      18.666  31.249   8.250  0.00  0.00    +0.000 A 
ATOM     13  C   UNL     1      17.490  30.733   8.802  0.00  0.00    +0.000 A 
ATOM     14  C   UNL     1      19.011  32.584   8.496  0.00  0.00    +0.000 A 
ATOM     15  C   UNL     1      16.668  31.553   9.565  0.00  0.00    +0.000 A 
ATOM     16  C   UNL     1      18.193  33.400   9.275  0.00  0.00    +0.000 A 
ATOM     17  C   UNL     1      17.031  32.871   9.820  0.00  0.00    +0.000 A 
BRANCH  15  18
ATOM     18  O   UNL     1      15.486  31.053  10.025  0.00  0.00    +0.000 OA
ATOM     19  H   UNL     1      14.981  30.751   9.247  0.00  0.00    +0.000 HD
ENDBRANCH  15  18
BRANCH  17  20
ATOM     20  O   UNL     1      16.261  33.655  10.628  0.00  0.00    +0.000 OA
ATOM     21  H   UNL     1      15.723  33.050  11.172  0.00  0.00    +0.000 HD
ENDBRANCH  17  20
ENDBRANCH   5  12
BRANCH   6  22
ATOM     22  O   UNL     1      21.340  30.330   9.138  0.00  0.00    +0.000 OA
ATOM     23  H   UNL     1      21.304  29.563   9.731  0.00  0.00    +0.000 HD
ENDBRANCH   6  22
BRANCH   8  24
ATOM     24  O   UNL     1      22.992  27.499   5.034  0.00  0.00    +0.000 OA
ATOM     25  H   UNL     1      22.984  27.042   5.908  0.00  0.00    +0.000 HD
ENDBRANCH   8  24
BRANCH  10  26
ATOM     26  O   UNL     1      19.288  27.822   2.087  0.00  0.00    +0.000 OA
ATOM     27  H   UNL     1      18.611  28.498   1.903  0.00  0.00    +0.000 HD
ENDBRANCH  10  26
TORSDOF 6
ENDMDL
MODEL 5
REMARK VINA RESULT:      -5.8     16.123     16.841
REMARK  Name = Quercetin.pdbqt.pdb
REMARK  6 active torsions:
REMARK  status: ('A' for Active; 'I' for Inactive)
REMARK    1  A    between atoms: C_5  and  C_12
REMARK    2  A    between atoms: C_6  and  O_22
REMARK    3  A    between atoms: C_8  and  O_24
REMARK    4  A    between atoms: C_10  and  O_26
REMARK    5  A    between atoms: C_15  and  O_18
REMARK    6  A    between atoms: C_17  and  O_20
REMARK                            x       y       z     vdW  Elec       q    Type
REMARK                         _______ _______ _______ _____ _____    ______ ____
ROOT
ATOM      1  O   UNL     1      23.698  23.131  24.596  0.00  0.00    +0.000 OA
ATOM      2  O   UNL     1      23.987  21.751  28.408  0.00  0.00    +0.000 OA
ATOM      3  C   UNL     1      23.490  21.303  26.175  0.00  0.00    +0.000 A 
ATOM      4  C   UNL     1      23.404  21.828  24.890  0.00  0.00    +0.000 A 
ATOM      5  C   UNL     1      24.117  23.971  25.617  0.00  0.00    +0.000 A 
ATOM      6  C   UNL     1      24.234  23.602  26.911  0.00  0.00    +0.000 A 
ATOM      7  C   UNL     1      23.913  22.190  27.263  0.00  0.00    +0.000 A 
ATOM      8  C   UNL     1      23.172  19.958  26.404  0.00  0.00    +0.000 A 
ATOM      9  C   UNL     1      23.003  21.018  23.829  0.00  0.00    +0.000 A 
ATOM     10  C   UNL     1      22.691  19.683  24.067  0.00  0.00    +0.000 A 
ATOM     11  C   UNL     1      22.771  19.145  25.347  0.00  0.00    +0.000 A 
ENDROOT
BRANCH   5  12
ATOM     12  C   UNL     1      24.414  25.326  25.130  0.00  0.00    +0.000 A 
ATOM     13  C   UNL     1      23.414  26.301  25.062  0.00  0.00    +0.000 A 
ATOM     14  C   UNL     1      25.729  25.666  24.786  0.00  0.00    +0.000 A 
ATOM     15  C   UNL     1      23.730  27.584  24.633  0.00  0.00    +0.000 A 
ATOM     16  C   UNL     1      26.046  26.959  24.372  0.00  0.00    +0.000 A 
ATOM     17  C   UNL     1      25.043  27.916  24.315  0.00  0.00    +0.000 A 
BRANCH  15  18
ATOM     18  O   UNL     1      22.726  28.497  24.497  0.00  0.00    +0.000 OA
ATOM     19  H   UNL     1      21.936  28.009  24.197  0.00  0.00    +0.000 HD
ENDBRANCH  15  18
BRANCH  17  20
ATOM     20  O   UNL     1      25.365  29.195  23.964  0.00  0.00    +0.000 OA
ATOM     21  H   UNL     1      25.069  29.767  24.697  0.00  0.00    +0.000 HD
ENDBRANCH  17  20
ENDBRANCH   5  12
BRANCH   6  22
ATOM     22  O   UNL     1      24.612  24.433  27.948  0.00  0.00    +0.000 OA
ATOM     23  H   UNL     1      24.813  25.321  27.611  0.00  0.00    +0.000 HD
ENDBRANCH   6  22
BRANCH   8  24
ATOM     24  O   UNL     1      23.232  19.376  27.641  0.00  0.00    +0.000 OA
ATOM     25  H   UNL     1      24.176  19.174  27.843  0.00  0.00    +0.000 HD
ENDBRANCH   8  24
BRANCH  10  26
ATOM     26  O   UNL     1      22.300  18.911  23.012  0.00  0.00    +0.000 OA
ATOM     27  H   UNL     1      21.371  18.656  23.151  0.00  0.00    +0.000 HD
ENDBRANCH  10  26
TORSDOF 6
ENDMDL
MODEL 6
REMARK VINA RESULT:      -5.7     22.117     24.592
REMARK  Name = Quercetin.pdbqt.pdb
REMARK  6 active torsions:
REMARK  status: ('A' for Active; 'I' for Inactive)
REMARK    1  A    between atoms: C_5  and  C_12
REMARK    2  A    between atoms: C_6  and  O_22
REMARK    3  A    between atoms: C_8  and  O_24
REMARK    4  A    between atoms: C_10  and  O_26
REMARK    5  A    between atoms: C_15  and  O_18
REMARK    6  A    between atoms: C_17  and  O_20
REMARK                            x       y       z     vdW  Elec       q    Type
REMARK                         _______ _______ _______ _____ _____    ______ ____
ROOT
ATOM      1  O   UNL     1      18.759  32.574   9.165  0.00  0.00    +0.000 OA
ATOM      2  O   UNL     1      15.127  31.655  10.744  0.00  0.00    +0.000 OA
ATOM      3  C   UNL     1      16.866  33.195  10.548  0.00  0.00    +0.000 A 
ATOM      4  C   UNL     1      18.110  33.457   9.985  0.00  0.00    +0.000 A 
ATOM      5  C   UNL     1      18.147  31.366   8.863  0.00  0.00    +0.000 A 
ATOM      6  C   UNL     1      16.948  30.974   9.348  0.00  0.00    +0.000 A 
ATOM      7  C   UNL     1      16.222  31.912  10.250  0.00  0.00    +0.000 A 
ATOM      8  C   UNL     1      16.261  34.146  11.380  0.00  0.00    +0.000 A 
ATOM      9  C   UNL     1      18.756  34.664  10.246  0.00  0.00    +0.000 A 
ATOM     10  C   UNL     1      18.146  35.602  11.073  0.00  0.00    +0.000 A 
ATOM     11  C   UNL     1      16.902  35.353  11.643  0.00  0.00    +0.000 A 
ENDROOT
BRANCH   5  12
ATOM     12  C   UNL     1      18.962  30.547   7.955  0.00  0.00    +0.000 A 
ATOM     13  C   UNL     1      18.975  30.794   6.579  0.00  0.00    +0.000 A 
ATOM     14  C   UNL     1      19.786  29.542   8.480  0.00  0.00    +0.000 A 
ATOM     15  C   UNL     1      19.784  30.028   5.749  0.00  0.00    +0.000 A 
ATOM     16  C   UNL     1      20.609  28.787   7.646  0.00  0.00    +0.000 A 
ATOM     17  C   UNL     1      20.614  29.049   6.283  0.00  0.00    +0.000 A 
BRANCH  15  18
ATOM     18  O   UNL     1      19.720  30.232   4.401  0.00  0.00    +0.000 OA
ATOM     19  H   UNL     1      19.716  31.196   4.257  0.00  0.00    +0.000 HD
ENDBRANCH  15  18
BRANCH  17  20
ATOM     20  O   UNL     1      21.461  28.347   5.476  0.00  0.00    +0.000 OA
ATOM     21  H   UNL     1      20.902  27.798   4.895  0.00  0.00    +0.000 HD
ENDBRANCH  17  20
ENDBRANCH   5  12
BRANCH   6  22
ATOM     22  O   UNL     1      16.341  29.759   9.091  0.00  0.00    +0.000 OA
ATOM     23  H   UNL     1      15.865  29.449   9.877  0.00  0.00    +0.000 HD
ENDBRANCH   6  22
BRANCH   8  24
ATOM     24  O   UNL     1      15.040  33.955  11.969  0.00  0.00    +0.000 OA
ATOM     25  H   UNL     1      14.925  32.990  12.137  0.00  0.00    +0.000 HD
ENDBRANCH   8  24
BRANCH  10  26
ATOM     26  O   UNL     1      18.799  36.775  11.314  0.00  0.00    +0.000 OA
ATOM     27  H   UNL     1      18.920  37.235  10.463  0.00  0.00    +0.000 HD
ENDBRANCH  10  26
TORSDOF 6
ENDMDL
MODEL 7
REMARK VINA RESULT:      -5.6      1.541      6.984
REMARK  Name = Quercetin.pdbqt.pdb
REMARK  6 active torsions:
REMARK  status: ('A' for Active; 'I' for Inactive)
REMARK    1  A    between atoms: C_5  and  C_12
REMARK    2  A    between atoms: C_6  and  O_22
REMARK    3  A    between atoms: C_8  and  O_24
REMARK    4  A    between atoms: C_10  and  O_26
REMARK    5  A    between atoms: C_15  and  O_18
REMARK    6  A    between atoms: C_17  and  O_20
REMARK                            x       y       z     vdW  Elec       q    Type
REMARK                         _______ _______ _______ _____ _____    ______ ____
ROOT
ATOM      1  O   UNL     1       8.115  24.162  28.452  0.00  0.00    +0.000 OA
ATOM      2  O   UNL     1       9.773  26.912  30.945  0.00  0.00    +0.000 OA
ATOM      3  C   UNL     1       9.224  26.296  28.765  0.00  0.00    +0.000 A 
ATOM      4  C   UNL     1       8.649  25.321  27.958  0.00  0.00    +0.000 A 
ATOM      5  C   UNL     1       8.128  23.949  29.823  0.00  0.00    +0.000 A 
ATOM      6  C   UNL     1       8.664  24.802  30.724  0.00  0.00    +0.000 A 
ATOM      7  C   UNL     1       9.261  26.069  30.213  0.00  0.00    +0.000 A 
ATOM      8  C   UNL     1       9.753  27.458  28.189  0.00  0.00    +0.000 A 
ATOM      9  C   UNL     1       8.597  25.497  26.576  0.00  0.00    +0.000 A 
ATOM     10  C   UNL     1       9.124  26.656  26.014  0.00  0.00    +0.000 A 
ATOM     11  C   UNL     1       9.703  27.639  26.810  0.00  0.00    +0.000 A 
ENDROOT
BRANCH   5  12
ATOM     12  C   UNL     1       7.497  22.674  30.190  0.00  0.00    +0.000 A 
ATOM     13  C   UNL     1       8.236  21.486  30.214  0.00  0.00    +0.000 A 
ATOM     14  C   UNL     1       6.152  22.653  30.580  0.00  0.00    +0.000 A 
ATOM     15  C   UNL     1       7.623  20.301  30.600  0.00  0.00    +0.000 A 
ATOM     16  C   UNL     1       5.544  21.465  30.983  0.00  0.00    +0.000 A 
ATOM     17  C   UNL     1       6.293  20.296  31.006  0.00  0.00    +0.000 A 
BRANCH  15  18
ATOM     18  O   UNL     1       8.338  19.142  30.538  0.00  0.00    +0.000 OA
ATOM     19  H   UNL     1       7.706  18.408  30.656  0.00  0.00    +0.000 HD
ENDBRANCH  15  18
BRANCH  17  20
ATOM     20  O   UNL     1       5.712  19.146  31.455  0.00  0.00    +0.000 OA
ATOM     21  H   UNL     1       6.370  18.707  32.026  0.00  0.00    +0.000 HD
ENDBRANCH  17  20
ENDBRANCH   5  12
BRANCH   6  22
ATOM     22  O   UNL     1       8.723  24.590  32.088  0.00  0.00    +0.000 OA
ATOM     23  H   UNL     1       9.587  24.865  32.433  0.00  0.00    +0.000 HD
ENDBRANCH   6  22
BRANCH   8  24
ATOM     24  O   UNL     1      10.335  28.457  28.921  0.00  0.00    +0.000 OA
ATOM     25  H   UNL     1      11.054  28.859  28.379  0.00  0.00    +0.000 HD
ENDBRANCH   8  24
BRANCH  10  26
ATOM     26  O   UNL     1       9.062  26.806  24.660  0.00  0.00    +0.000 OA
ATOM     27  H   UNL     1       8.549  26.062  24.296  0.00  0.00    +0.000 HD
ENDBRANCH  10  26
TORSDOF 6
ENDMDL
MODEL 8
REMARK VINA RESULT:      -5.4     16.041     18.581
REMARK  Name = Quercetin.pdbqt.pdb
REMARK  6 active torsions:
REMARK  status: ('A' for Active; 'I' for Inactive)
REMARK    1  A    between atoms: C_5  and  C_12
REMARK    2  A    between atoms: C_6  and  O_22
REMARK    3  A    between atoms: C_8  and  O_24
REMARK    4  A    between atoms: C_10  and  O_26
REMARK    5  A    between atoms: C_15  and  O_18
REMARK    6  A    between atoms: C_17  and  O_20
REMARK                            x       y       z     vdW  Elec       q    Type
REMARK                         _______ _______ _______ _____ _____    ______ ____
ROOT
ATOM      1  O   UNL     1      25.109  23.348  23.994  0.00  0.00    +0.000 OA
ATOM      2  O   UNL     1      23.391  26.697  25.529  0.00  0.00    +0.000 OA
ATOM      3  C   UNL     1      25.007  25.767  24.130  0.00  0.00    +0.000 A 
ATOM      4  C   UNL     1      25.561  24.590  23.639  0.00  0.00    +0.000 A 
ATOM      5  C   UNL     1      24.040  23.249  24.872  0.00  0.00    +0.000 A 
ATOM      6  C   UNL     1      23.414  24.305  25.436  0.00  0.00    +0.000 A 
ATOM      7  C   UNL     1      23.890  25.671  25.074  0.00  0.00    +0.000 A 
ATOM      8  C   UNL     1      25.521  27.005  23.723  0.00  0.00    +0.000 A 
ATOM      9  C   UNL     1      26.626  24.639  22.742  0.00  0.00    +0.000 A 
ATOM     10  C   UNL     1      27.129  25.874  22.343  0.00  0.00    +0.000 A 
ATOM     11  C   UNL     1      26.585  27.059  22.828  0.00  0.00    +0.000 A 
ENDROOT
BRANCH   5  12
ATOM     12  C   UNL     1      23.665  21.852  25.130  0.00  0.00    +0.000 A 
ATOM     13  C   UNL     1      23.154  21.043  24.110  0.00  0.00    +0.000 A 
ATOM     14  C   UNL     1      23.880  21.300  26.400  0.00  0.00    +0.000 A 
ATOM     15  C   UNL     1      22.844  19.715  24.373  0.00  0.00    +0.000 A 
ATOM     16  C   UNL     1      23.584  19.962  26.656  0.00  0.00    +0.000 A 
ATOM     17  C   UNL     1      23.081  19.172  25.631  0.00  0.00    +0.000 A 
BRANCH  15  18
ATOM     18  O   UNL     1      22.270  18.968  23.387  0.00  0.00    +0.000 OA
ATOM     19  H   UNL     1      22.467  18.033  23.585  0.00  0.00    +0.000 HD
ENDBRANCH  15  18
BRANCH  17  20
ATOM     20  O   UNL     1      22.845  17.850  25.868  0.00  0.00    +0.000 OA
ATOM     21  H   UNL     1      22.055  17.611  25.348  0.00  0.00    +0.000 HD
ENDBRANCH  17  20
ENDBRANCH   5  12
BRANCH   6  22
ATOM     22  O   UNL     1      22.373  24.227  26.343  0.00  0.00    +0.000 OA
ATOM     23  H   UNL     1      22.617  24.668  27.171  0.00  0.00    +0.000 HD
ENDBRANCH   6  22
BRANCH   8  24
ATOM     24  O   UNL     1      25.028  28.202  24.167  0.00  0.00    +0.000 OA
ATOM     25  H   UNL     1      25.088  28.215  25.151  0.00  0.00    +0.000 HD
ENDBRANCH   8  24
BRANCH  10  26
ATOM     26  O   UNL     1      28.172  25.896  21.465  0.00  0.00    +0.000 OA
ATOM     27  H   UNL     1      27.908  26.430  20.694  0.00  0.00    +0.000 HD
ENDBRANCH  10  26
TORSDOF 6
ENDMDL
MODEL 9
REMARK VINA RESULT:      -5.3      5.081      8.788
REMARK  Name = Quercetin.pdbqt.pdb
REMARK  6 active torsions:
REMARK  status: ('A' for Active; 'I' for Inactive)
REMARK    1  A    between atoms: C_5  and  C_12
REMARK    2  A    between atoms: C_6  and  O_22
REMARK    3  A    between atoms: C_8  and  O_24
REMARK    4  A    between atoms: C_10  and  O_26
REMARK    5  A    between atoms: C_15  and  O_18
REMARK    6  A    between atoms: C_17  and  O_20
REMARK                            x       y       z     vdW  Elec       q    Type
REMARK                         _______ _______ _______ _____ _____    ______ ____
ROOT
ATOM      1  O   UNL     1      10.448  16.313  30.617  0.00  0.00    +0.000 OA
ATOM      2  O   UNL     1      13.978  17.713  29.166  0.00  0.00    +0.000 OA
ATOM      3  C   UNL     1      12.717  15.885  29.877  0.00  0.00    +0.000 A 
ATOM      4  C   UNL     1      11.491  15.461  30.376  0.00  0.00    +0.000 A 
ATOM      5  C   UNL     1      10.607  17.663  30.338  0.00  0.00    +0.000 A 
ATOM      6  C   UNL     1      11.744  18.217  29.863  0.00  0.00    +0.000 A 
ATOM      7  C   UNL     1      12.900  17.313  29.598  0.00  0.00    +0.000 A 
ATOM      8  C   UNL     1      13.742  14.956  29.655  0.00  0.00    +0.000 A 
ATOM      9  C   UNL     1      11.279  14.112  30.656  0.00  0.00    +0.000 A 
ATOM     10  C   UNL     1      12.303  13.197  30.431  0.00  0.00    +0.000 A 
ATOM     11  C   UNL     1      13.534  13.608  29.933  0.00  0.00    +0.000 A 
ENDROOT
BRANCH   5  12
ATOM     12  C   UNL     1       9.390  18.433  30.630  0.00  0.00    +0.000 A 
ATOM     13  C   UNL     1       9.217  19.725  30.123  0.00  0.00    +0.000 A 
ATOM     14  C   UNL     1       8.360  17.845  31.375  0.00  0.00    +0.000 A 
ATOM     15  C   UNL     1       8.040  20.416  30.383  0.00  0.00    +0.000 A 
ATOM     16  C   UNL     1       7.173  18.535  31.621  0.00  0.00    +0.000 A 
ATOM     17  C   UNL     1       7.016  19.814  31.106  0.00  0.00    +0.000 A 
BRANCH  15  18
ATOM     18  O   UNL     1       7.926  21.704  29.949  0.00  0.00    +0.000 OA
ATOM     19  H   UNL     1       8.304  22.275  30.644  0.00  0.00    +0.000 HD
ENDBRANCH  15  18
BRANCH  17  20
ATOM     20  O   UNL     1       5.833  20.466  31.299  0.00  0.00    +0.000 OA
ATOM     21  H   UNL     1       5.227  19.824  31.714  0.00  0.00    +0.000 HD
ENDBRANCH  17  20
ENDBRANCH   5  12
BRANCH   6  22
ATOM     22  O   UNL     1      11.935  19.563  29.616  0.00  0.00    +0.000 OA
ATOM     23  H   UNL     1      12.569  19.934  30.250  0.00  0.00    +0.000 HD
ENDBRANCH   6  22
BRANCH   8  24
ATOM     24  O   UNL     1      14.973  15.303  29.168  0.00  0.00    +0.000 OA
ATOM     25  H   UNL     1      14.953  16.259  28.928  0.00  0.00    +0.000 HD
ENDBRANCH   8  24
BRANCH  10  26
ATOM     26  O   UNL     1      12.071  11.883  30.713  0.00  0.00    +0.000 OA
ATOM     27  H   UNL     1      11.848  11.429  29.881  0.00  0.00    +0.000 HD
ENDBRANCH  10  26
TORSDOF 6
ENDMDL
