MODEL 1
REMARK VINA RESULT:      -6.7      0.000      0.000
REMARK  Name = 
REMARK  14 active torsions:
REMARK  status: ('A' for Active; 'I' for Inactive)
REMARK    1  A    between atoms: O_1  and  C_24
REMARK    2  A    between atoms: O_1  and  C_36
REMARK    3  A    between atoms: O_4  and  C_30
REMARK    4  A    between atoms: O_4  and  C_37
REMARK    5  A    between atoms: O_7  and  C_33
REMARK    6  A    between atoms: O_7  and  C_38
REMARK    7  A    between atoms: N_10  and  C_23
REMARK    8  A    between atoms: C_15  and  C_26
REMARK    9  A    between atoms: C_16  and  C_24
REMARK   10  A    between atoms: C_31  and  C_34
REMARK   11  A    between atoms: C_32  and  C_35
REMARK   12  A    between atoms: C_36  and  C_39
REMARK   13  A    between atoms: C_39  and  C_40
REMARK   14  A    between atoms: C_41  and  C_42
REMARK                            x       y       z     vdW  Elec       q    Type
REMARK                         _______ _______ _______ _____ _____    ______ ____
ROOT
ATOM      1  O   UNL     1       7.638  17.784  32.285  0.00  0.00    +0.000 OA
ATOM      2  O   UNL     1      12.023  19.900  30.147  0.00  0.00    +0.000 OA
ATOM      3  O   UNL     1       3.553  19.465  30.792  0.00  0.00    +0.000 OA
ATOM      4  O   UNL     1       4.610  24.499  29.443  0.00  0.00    +0.000 OA
ATOM      5  N   UNL     1       7.694  22.332  31.432  0.00  0.00    +0.000 NA
ATOM      6  N   UNL     1       9.006  21.365  33.875  0.00  0.00    +0.000 NA
ATOM      7  C   UNL     1       7.078  21.310  32.317  0.00  0.00    +0.000 C 
ATOM      8  C   UNL     1       8.177  20.434  33.057  0.00  0.00    +0.000 C 
ATOM      9  C   UNL     1       9.732  22.285  32.963  0.00  0.00    +0.000 C 
ATOM     10  C   UNL     1       8.699  23.166  32.165  0.00  0.00    +0.000 C 
ATOM     11  C   UNL     1       6.754  23.130  30.595  0.00  0.00    +0.000 C 
ATOM     12  C   UNL     1       6.091  20.423  31.529  0.00  0.00    +0.000 C 
ATOM     13  C   UNL     1      10.676  21.523  31.991  0.00  0.00    +0.000 C 
ATOM     14  C   UNL     1       9.031  19.658  32.063  0.00  0.00    +0.000 C 
ATOM     15  C   UNL     1      10.164  20.171  31.562  0.00  0.00    +0.000 C 
ATOM     16  C   UNL     1       5.400  22.482  30.357  0.00  0.00    +0.000 C 
ATOM     17  C   UNL     1       5.100  21.241  30.758  0.00  0.00    +0.000 C 
ATOM     18  C   UNL     1       9.863  20.688  34.844  0.00  0.00    +0.000 C 
ATOM     19  C   UNL     1       8.602  18.284  31.713  0.00  0.00    +0.000 C 
ATOM     20  C   UNL     1      10.985  19.420  30.589  0.00  0.00    +0.000 C 
ATOM     21  C   UNL     1       3.789  20.622  30.463  0.00  0.00    +0.000 C 
ATOM     22  C   UNL     1       4.371  23.320  29.687  0.00  0.00    +0.000 C 
ATOM     23  C   UNL     1       9.377  17.553  30.658  0.00  0.00    +0.000 C 
ATOM     24  C   UNL     1      10.503  18.083  30.155  0.00  0.00    +0.000 C 
ATOM     25  C   UNL     1       2.785  21.430  29.727  0.00  0.00    +0.000 C 
ATOM     26  C   UNL     1       3.056  22.688  29.341  0.00  0.00    +0.000 C 
ATOM     27  C   UNL     1      11.371  17.400  29.138  0.00  0.00    +0.000 C 
ATOM     28  C   UNL     1       1.483  20.731  29.459  0.00  0.00    +0.000 C 
ENDROOT
BRANCH  23  29
ATOM     29  O   UNL     1       8.980  16.291  30.229  0.00  0.00    +0.000 OA
ATOM     30  C   UNL     1       9.387  15.205  31.057  0.00  0.00    +0.000 C 
ENDBRANCH  23  29
BRANCH  26  31
ATOM     31  O   UNL     1       2.074  23.414  28.674  0.00  0.00    +0.000 OA
ATOM     32  C   UNL     1       1.298  24.278  29.501  0.00  0.00    +0.000 C 
ENDBRANCH  26  31
BRANCH  10  34
ATOM     33  N   UNL     1       7.618  24.926  33.829  0.00  0.00    +0.000 NA
ATOM     34  C   UNL     1       8.109  24.169  33.099  0.00  0.00    +0.000 C 
ENDBRANCH  10  34
BRANCH  11  35
ATOM     35  C   UNL     1       7.460  23.404  29.233  0.00  0.00    +0.000 C 
BRANCH  35  36
ATOM     36  O   UNL     1       7.946  24.763  29.217  0.00  0.00    +0.000 OA
BRANCH  36  38
ATOM     37  O   UNL     1      10.153  24.167  29.081  0.00  0.00    +0.000 OA
ATOM     38  C   UNL     1       9.224  24.904  28.795  0.00  0.00    +0.000 C 
BRANCH  38  39
ATOM     39  C   UNL     1       9.332  26.018  27.810  0.00  0.00    +0.000 C 
ATOM     40  C   UNL     1       8.502  25.803  26.576  0.00  0.00    +0.000 C 
ATOM     41  C   UNL     1      10.098  27.117  27.969  0.00  0.00    +0.000 C 
ATOM     42  C   UNL     1      11.050  27.432  29.078  0.00  0.00    +0.000 C 
ENDBRANCH  38  39
ENDBRANCH  36  38
ENDBRANCH  35  36
ENDBRANCH  11  35
TORSDOF 7
ENDMDL
MODEL 2
REMARK VINA RESULT:      -6.3     18.278     22.617
REMARK  Name = 
REMARK  14 active torsions:
REMARK  status: ('A' for Active; 'I' for Inactive)
REMARK    1  A    between atoms: O_1  and  C_24
REMARK    2  A    between atoms: O_1  and  C_36
REMARK    3  A    between atoms: O_4  and  C_30
REMARK    4  A    between atoms: O_4  and  C_37
REMARK    5  A    between atoms: O_7  and  C_33
REMARK    6  A    between atoms: O_7  and  C_38
REMARK    7  A    between atoms: N_10  and  C_23
REMARK    8  A    between atoms: C_15  and  C_26
REMARK    9  A    between atoms: C_16  and  C_24
REMARK   10  A    between atoms: C_31  and  C_34
REMARK   11  A    between atoms: C_32  and  C_35
REMARK   12  A    between atoms: C_36  and  C_39
REMARK   13  A    between atoms: C_39  and  C_40
REMARK   14  A    between atoms: C_41  and  C_42
REMARK                            x       y       z     vdW  Elec       q    Type
REMARK                         _______ _______ _______ _____ _____    ______ ____
ROOT
ATOM      1  O   UNL     1      23.392   9.793  24.100  0.00  0.00    +0.000 OA
ATOM      2  O   UNL     1      24.688  10.285  29.233  0.00  0.00    +0.000 OA
ATOM      3  O   UNL     1      26.562  11.214  20.989  0.00  0.00    +0.000 OA
ATOM      4  O   UNL     1      29.221  15.082  23.487  0.00  0.00    +0.000 OA
ATOM      5  N   UNL     1      25.748  13.550  25.422  0.00  0.00    +0.000 NA
ATOM      6  N   UNL     1      22.845  13.509  25.864  0.00  0.00    +0.000 NA
ATOM      7  C   UNL     1      24.792  13.064  24.394  0.00  0.00    +0.000 C 
ATOM      8  C   UNL     1      23.490  12.437  25.053  0.00  0.00    +0.000 C 
ATOM      9  C   UNL     1      23.755  13.878  26.978  0.00  0.00    +0.000 C 
ATOM     10  C   UNL     1      25.090  14.478  26.397  0.00  0.00    +0.000 C 
ATOM     11  C   UNL     1      27.059  14.047  24.919  0.00  0.00    +0.000 C 
ATOM     12  C   UNL     1      25.474  12.063  23.438  0.00  0.00    +0.000 C 
ATOM     13  C   UNL     1      24.051  12.675  27.916  0.00  0.00    +0.000 C 
ATOM     14  C   UNL     1      23.828  11.223  25.907  0.00  0.00    +0.000 C 
ATOM     15  C   UNL     1      24.106  11.341  27.214  0.00  0.00    +0.000 C 
ATOM     16  C   UNL     1      27.455  13.533  23.544  0.00  0.00    +0.000 C 
ATOM     17  C   UNL     1      26.750  12.612  22.875  0.00  0.00    +0.000 C 
ATOM     18  C   UNL     1      21.486  13.186  26.287  0.00  0.00    +0.000 C 
ATOM     19  C   UNL     1      23.779   9.892  25.261  0.00  0.00    +0.000 C 
ATOM     20  C   UNL     1      24.445  10.162  28.038  0.00  0.00    +0.000 C 
ATOM     21  C   UNL     1      27.193  12.096  21.561  0.00  0.00    +0.000 C 
ATOM     22  C   UNL     1      28.660  14.146  22.927  0.00  0.00    +0.000 C 
ATOM     23  C   UNL     1      24.213   8.702  26.065  0.00  0.00    +0.000 C 
ATOM     24  C   UNL     1      24.499   8.836  27.370  0.00  0.00    +0.000 C 
ATOM     25  C   UNL     1      28.438  12.651  20.976  0.00  0.00    +0.000 C 
ATOM     26  C   UNL     1      29.143  13.597  21.617  0.00  0.00    +0.000 C 
ATOM     27  C   UNL     1      24.888   7.695  28.265  0.00  0.00    +0.000 C 
ATOM     28  C   UNL     1      28.825  12.073  19.645  0.00  0.00    +0.000 C 
ENDROOT
BRANCH  23  29
ATOM     29  O   UNL     1      24.263   7.436  25.493  0.00  0.00    +0.000 OA
ATOM     30  C   UNL     1      25.435   7.152  24.733  0.00  0.00    +0.000 C 
ENDBRANCH  23  29
BRANCH  26  31
ATOM     31  O   UNL     1      30.291  14.104  21.017  0.00  0.00    +0.000 OA
ATOM     32  C   UNL     1      30.102  15.301  20.267  0.00  0.00    +0.000 C 
ENDBRANCH  26  31
BRANCH  10  34
ATOM     33  N   UNL     1      24.549  16.885  25.422  0.00  0.00    +0.000 NA
ATOM     34  C   UNL     1      24.803  15.840  25.858  0.00  0.00    +0.000 C 
ENDBRANCH  10  34
BRANCH  11  35
ATOM     35  C   UNL     1      28.142  13.651  25.966  0.00  0.00    +0.000 C 
BRANCH  35  36
ATOM     36  O   UNL     1      27.899  12.299  26.411  0.00  0.00    +0.000 OA
BRANCH  36  38
ATOM     37  O   UNL     1      29.839  11.361  27.187  0.00  0.00    +0.000 OA
ATOM     38  C   UNL     1      28.970  11.475  26.338  0.00  0.00    +0.000 C 
BRANCH  38  39
ATOM     39  C   UNL     1      28.883  10.607  25.129  0.00  0.00    +0.000 C 
ATOM     40  C   UNL     1      27.720   9.657  25.162  0.00  0.00    +0.000 C 
ATOM     41  C   UNL     1      29.750  10.633  24.097  0.00  0.00    +0.000 C 
ATOM     42  C   UNL     1      31.003  11.439  23.957  0.00  0.00    +0.000 C 
ENDBRANCH  38  39
ENDBRANCH  36  38
ENDBRANCH  35  36
ENDBRANCH  11  35
TORSDOF 7
ENDMDL
MODEL 3
REMARK VINA RESULT:      -6.2     17.646     20.540
REMARK  Name = 
REMARK  14 active torsions:
REMARK  status: ('A' for Active; 'I' for Inactive)
REMARK    1  A    between atoms: O_1  and  C_24
REMARK    2  A    between atoms: O_1  and  C_36
REMARK    3  A    between atoms: O_4  and  C_30
REMARK    4  A    between atoms: O_4  and  C_37
REMARK    5  A    between atoms: O_7  and  C_33
REMARK    6  A    between atoms: O_7  and  C_38
REMARK    7  A    between atoms: N_10  and  C_23
REMARK    8  A    between atoms: C_15  and  C_26
REMARK    9  A    between atoms: C_16  and  C_24
REMARK   10  A    between atoms: C_31  and  C_34
REMARK   11  A    between atoms: C_32  and  C_35
REMARK   12  A    between atoms: C_36  and  C_39
REMARK   13  A    between atoms: C_39  and  C_40
REMARK   14  A    between atoms: C_41  and  C_42
REMARK                            x       y       z     vdW  Elec       q    Type
REMARK                         _______ _______ _______ _____ _____    ______ ____
ROOT
ATOM      1  O   UNL     1      -3.192  27.525  19.367  0.00  0.00    +0.000 OA
ATOM      2  O   UNL     1      -7.927  27.152  16.978  0.00  0.00    +0.000 OA
ATOM      3  O   UNL     1       0.342  29.134  16.785  0.00  0.00    +0.000 OA
ATOM      4  O   UNL     1      -0.875  27.667  11.821  0.00  0.00    +0.000 OA
ATOM      5  N   UNL     1      -3.324  26.137  14.954  0.00  0.00    +0.000 NA
ATOM      6  N   UNL     1      -3.904  24.159  17.046  0.00  0.00    +0.000 NA
ATOM      7  C   UNL     1      -2.516  26.029  16.197  0.00  0.00    +0.000 C 
ATOM      8  C   UNL     1      -3.384  25.506  17.419  0.00  0.00    +0.000 C 
ATOM      9  C   UNL     1      -4.830  24.306  15.894  0.00  0.00    +0.000 C 
ATOM     10  C   UNL     1      -4.042  24.858  14.647  0.00  0.00    +0.000 C 
ATOM     11  C   UNL     1      -2.640  26.735  13.774  0.00  0.00    +0.000 C 
ATOM     12  C   UNL     1      -1.835  27.374  16.527  0.00  0.00    +0.000 C 
ATOM     13  C   UNL     1      -6.043  25.218  16.229  0.00  0.00    +0.000 C 
ATOM     14  C   UNL     1      -4.518  26.467  17.748  0.00  0.00    +0.000 C 
ATOM     15  C   UNL     1      -5.728  26.342  17.183  0.00  0.00    +0.000 C 
ATOM     16  C   UNL     1      -1.438  27.607  14.102  0.00  0.00    +0.000 C 
ATOM     17  C   UNL     1      -1.081  27.921  15.353  0.00  0.00    +0.000 C 
ATOM     18  C   UNL     1      -4.466  23.417  18.171  0.00  0.00    +0.000 C 
ATOM     19  C   UNL     1      -4.261  27.512  18.765  0.00  0.00    +0.000 C 
ATOM     20  C   UNL     1      -6.823  27.284  17.496  0.00  0.00    +0.000 C 
ATOM     21  C   UNL     1       0.064  28.815  15.635  0.00  0.00    +0.000 C 
ATOM     22  C   UNL     1      -0.619  28.069  12.952  0.00  0.00    +0.000 C 
ATOM     23  C   UNL     1      -5.336  28.527  19.018  0.00  0.00    +0.000 C 
ATOM     24  C   UNL     1      -6.539  28.398  18.437  0.00  0.00    +0.000 C 
ATOM     25  C   UNL     1       0.839  29.341  14.484  0.00  0.00    +0.000 C 
ATOM     26  C   UNL     1       0.515  29.013  13.222  0.00  0.00    +0.000 C 
ATOM     27  C   UNL     1      -7.690  29.333  18.674  0.00  0.00    +0.000 C 
ATOM     28  C   UNL     1       1.980  30.246  14.850  0.00  0.00    +0.000 C 
ENDROOT
BRANCH  23  29
ATOM     29  O   UNL     1      -5.128  29.579  19.904  0.00  0.00    +0.000 OA
ATOM     30  C   UNL     1      -5.389  29.288  21.275  0.00  0.00    +0.000 C 
ENDBRANCH  23  29
BRANCH  26  31
ATOM     31  O   UNL     1       1.286  29.512  12.178  0.00  0.00    +0.000 OA
ATOM     32  C   UNL     1       0.758  30.673  11.539  0.00  0.00    +0.000 C 
ENDBRANCH  26  31
BRANCH  10  34
ATOM     33  N   UNL     1      -2.511  22.898  13.724  0.00  0.00    +0.000 NA
ATOM     34  C   UNL     1      -3.168  23.770  14.118  0.00  0.00    +0.000 C 
ENDBRANCH  10  34
BRANCH  11  35
ATOM     35  C   UNL     1      -3.700  27.565  12.990  0.00  0.00    +0.000 C 
BRANCH  35  36
ATOM     36  O   UNL     1      -4.647  28.127  13.924  0.00  0.00    +0.000 OA
BRANCH  36  38
ATOM     37  O   UNL     1      -5.807  29.925  13.108  0.00  0.00    +0.000 OA
ATOM     38  C   UNL     1      -4.892  29.447  13.759  0.00  0.00    +0.000 C 
BRANCH  38  39
ATOM     39  C   UNL     1      -3.968  30.262  14.598  0.00  0.00    +0.000 C 
ATOM     40  C   UNL     1      -4.287  30.201  16.065  0.00  0.00    +0.000 C 
ATOM     41  C   UNL     1      -2.947  31.004  14.124  0.00  0.00    +0.000 C 
ATOM     42  C   UNL     1      -2.562  31.251  12.700  0.00  0.00    +0.000 C 
ENDBRANCH  38  39
ENDBRANCH  36  38
ENDBRANCH  35  36
ENDBRANCH  11  35
TORSDOF 7
ENDMDL
MODEL 4
REMARK VINA RESULT:      -6.1      3.325      7.892
REMARK  Name = 
REMARK  14 active torsions:
REMARK  status: ('A' for Active; 'I' for Inactive)
REMARK    1  A    between atoms: O_1  and  C_24
REMARK    2  A    between atoms: O_1  and  C_36
REMARK    3  A    between atoms: O_4  and  C_30
REMARK    4  A    between atoms: O_4  and  C_37
REMARK    5  A    between atoms: O_7  and  C_33
REMARK    6  A    between atoms: O_7  and  C_38
REMARK    7  A    between atoms: N_10  and  C_23
REMARK    8  A    between atoms: C_15  and  C_26
REMARK    9  A    between atoms: C_16  and  C_24
REMARK   10  A    between atoms: C_31  and  C_34
REMARK   11  A    between atoms: C_32  and  C_35
REMARK   12  A    between atoms: C_36  and  C_39
REMARK   13  A    between atoms: C_39  and  C_40
REMARK   14  A    between atoms: C_41  and  C_42
REMARK                            x       y       z     vdW  Elec       q    Type
REMARK                         _______ _______ _______ _____ _____    ______ ____
ROOT
ATOM      1  O   UNL     1       8.196  27.629  31.442  0.00  0.00    +0.000 OA
ATOM      2  O   UNL     1       8.753  25.448  26.626  0.00  0.00    +0.000 OA
ATOM      3  O   UNL     1      10.493  25.589  34.950  0.00  0.00    +0.000 OA
ATOM      4  O   UNL     1      10.797  20.474  33.531  0.00  0.00    +0.000 OA
ATOM      5  N   UNL     1       8.365  23.016  31.126  0.00  0.00    +0.000 NA
ATOM      6  N   UNL     1       5.816  24.351  30.540  0.00  0.00    +0.000 NA
ATOM      7  C   UNL     1       7.830  24.117  31.968  0.00  0.00    +0.000 C 
ATOM      8  C   UNL     1       6.949  25.130  31.119  0.00  0.00    +0.000 C 
ATOM      9  C   UNL     1       6.361  23.353  29.586  0.00  0.00    +0.000 C 
ATOM     10  C   UNL     1       7.280  22.330  30.354  0.00  0.00    +0.000 C 
ATOM     11  C   UNL     1       9.307  22.075  31.794  0.00  0.00    +0.000 C 
ATOM     12  C   UNL     1       8.971  24.849  32.706  0.00  0.00    +0.000 C 
ATOM     13  C   UNL     1       7.136  24.021  28.416  0.00  0.00    +0.000 C 
ATOM     14  C   UNL     1       7.771  25.806  30.030  0.00  0.00    +0.000 C 
ATOM     15  C   UNL     1       7.870  25.282  28.800  0.00  0.00    +0.000 C 
ATOM     16  C   UNL     1       9.991  22.626  33.036  0.00  0.00    +0.000 C 
ATOM     17  C   UNL     1       9.861  23.894  33.442  0.00  0.00    +0.000 C 
ATOM     18  C   UNL     1       4.754  25.187  29.987  0.00  0.00    +0.000 C 
ATOM     19  C   UNL     1       8.410  27.102  30.356  0.00  0.00    +0.000 C 
ATOM     20  C   UNL     1       8.678  25.935  27.749  0.00  0.00    +0.000 C 
ATOM     21  C   UNL     1      10.583  24.410  34.625  0.00  0.00    +0.000 C 
ATOM     22  C   UNL     1      10.792  21.662  33.835  0.00  0.00    +0.000 C 
ATOM     23  C   UNL     1       9.306  27.722  29.326  0.00  0.00    +0.000 C 
ATOM     24  C   UNL     1       9.407  27.181  28.101  0.00  0.00    +0.000 C 
ATOM     25  C   UNL     1      11.445  23.470  35.383  0.00  0.00    +0.000 C 
ATOM     26  C   UNL     1      11.565  22.186  35.009  0.00  0.00    +0.000 C 
ATOM     27  C   UNL     1      10.235  27.762  26.992  0.00  0.00    +0.000 C 
ATOM     28  C   UNL     1      12.149  24.070  36.566  0.00  0.00    +0.000 C 
ENDROOT
BRANCH  23  29
ATOM     29  O   UNL     1       9.997  28.898  29.598  0.00  0.00    +0.000 OA
ATOM     30  C   UNL     1       9.241  30.099  29.459  0.00  0.00    +0.000 C 
ENDBRANCH  23  29
BRANCH  26  31
ATOM     31  O   UNL     1      12.366  21.336  35.765  0.00  0.00    +0.000 OA
ATOM     32  C   UNL     1      11.672  20.567  36.745  0.00  0.00    +0.000 C 
ENDBRANCH  26  31
BRANCH  10  34
ATOM     33  N   UNL     1       5.709  20.737  31.781  0.00  0.00    +0.000 NA
ATOM     34  C   UNL     1       6.411  21.434  31.172  0.00  0.00    +0.000 C 
ENDBRANCH  10  34
BRANCH  11  35
ATOM     35  C   UNL     1      10.375  21.656  30.740  0.00  0.00    +0.000 C 
BRANCH  35  36
ATOM     36  O   UNL     1      10.833  22.831  30.037  0.00  0.00    +0.000 OA
BRANCH  36  38
ATOM     37  O   UNL     1      13.010  22.398  29.470  0.00  0.00    +0.000 OA
ATOM     38  C   UNL     1      12.170  23.036  30.084  0.00  0.00    +0.000 C 
BRANCH  38  39
ATOM     39  C   UNL     1      12.487  24.250  30.890  0.00  0.00    +0.000 C 
ATOM     40  C   UNL     1      11.844  25.500  30.358  0.00  0.00    +0.000 C 
ATOM     41  C   UNL     1      13.278  24.267  31.981  0.00  0.00    +0.000 C 
ATOM     42  C   UNL     1      14.065  23.141  32.574  0.00  0.00    +0.000 C 
ENDBRANCH  38  39
ENDBRANCH  36  38
ENDBRANCH  35  36
ENDBRANCH  11  35
TORSDOF 7
ENDMDL
MODEL 5
REMARK VINA RESULT:      -5.9      2.810      7.316
REMARK  Name = 
REMARK  14 active torsions:
REMARK  status: ('A' for Active; 'I' for Inactive)
REMARK    1  A    between atoms: O_1  and  C_24
REMARK    2  A    between atoms: O_1  and  C_36
REMARK    3  A    between atoms: O_4  and  C_30
REMARK    4  A    between atoms: O_4  and  C_37
REMARK    5  A    between atoms: O_7  and  C_33
REMARK    6  A    between atoms: O_7  and  C_38
REMARK    7  A    between atoms: N_10  and  C_23
REMARK    8  A    between atoms: C_15  and  C_26
REMARK    9  A    between atoms: C_16  and  C_24
REMARK   10  A    between atoms: C_31  and  C_34
REMARK   11  A    between atoms: C_32  and  C_35
REMARK   12  A    between atoms: C_36  and  C_39
REMARK   13  A    between atoms: C_39  and  C_40
REMARK   14  A    between atoms: C_41  and  C_42
REMARK                            x       y       z     vdW  Elec       q    Type
REMARK                         _______ _______ _______ _____ _____    ______ ____
ROOT
ATOM      1  O   UNL     1       5.642  20.999  32.421  0.00  0.00    +0.000 OA
ATOM      2  O   UNL     1       5.074  26.090  33.844  0.00  0.00    +0.000 OA
ATOM      3  O   UNL     1       9.968  19.563  31.438  0.00  0.00    +0.000 OA
ATOM      4  O   UNL     1      12.421  23.914  29.615  0.00  0.00    +0.000 OA
ATOM      5  N   UNL     1       8.219  24.183  30.268  0.00  0.00    +0.000 NA
ATOM      6  N   UNL     1       5.441  23.822  29.386  0.00  0.00    +0.000 NA
ATOM      7  C   UNL     1       7.610  22.841  30.080  0.00  0.00    +0.000 C 
ATOM      8  C   UNL     1       6.045  22.862  30.354  0.00  0.00    +0.000 C 
ATOM      9  C   UNL     1       5.948  25.185  29.686  0.00  0.00    +0.000 C 
ATOM     10  C   UNL     1       7.507  25.232  29.469  0.00  0.00    +0.000 C 
ATOM     11  C   UNL     1       9.703  24.254  30.156  0.00  0.00    +0.000 C 
ATOM     12  C   UNL     1       8.319  21.787  30.957  0.00  0.00    +0.000 C 
ATOM     13  C   UNL     1       5.575  25.647  31.123  0.00  0.00    +0.000 C 
ATOM     14  C   UNL     1       5.737  23.256  31.792  0.00  0.00    +0.000 C 
ATOM     15  C   UNL     1       5.544  24.536  32.142  0.00  0.00    +0.000 C 
ATOM     16  C   UNL     1      10.427  22.936  30.382  0.00  0.00    +0.000 C 
ATOM     17  C   UNL     1       9.805  21.816  30.770  0.00  0.00    +0.000 C 
ATOM     18  C   UNL     1       3.986  23.732  29.304  0.00  0.00    +0.000 C 
ATOM     19  C   UNL     1       5.595  22.169  32.787  0.00  0.00    +0.000 C 
ATOM     20  C   UNL     1       5.257  24.916  33.541  0.00  0.00    +0.000 C 
ATOM     21  C   UNL     1      10.549  20.564  31.031  0.00  0.00    +0.000 C 
ATOM     22  C   UNL     1      11.885  22.922  30.097  0.00  0.00    +0.000 C 
ATOM     23  C   UNL     1       5.397  22.552  34.224  0.00  0.00    +0.000 C 
ATOM     24  C   UNL     1       5.216  23.838  34.563  0.00  0.00    +0.000 C 
ATOM     25  C   UNL     1      12.018  20.566  30.821  0.00  0.00    +0.000 C 
ATOM     26  C   UNL     1      12.655  21.672  30.404  0.00  0.00    +0.000 C 
ATOM     27  C   UNL     1       4.957  24.308  35.965  0.00  0.00    +0.000 C 
ATOM     28  C   UNL     1      12.701  19.262  31.114  0.00  0.00    +0.000 C 
ENDROOT
BRANCH  23  29
ATOM     29  O   UNL     1       5.333  21.581  35.218  0.00  0.00    +0.000 OA
ATOM     30  C   UNL     1       4.070  20.937  35.366  0.00  0.00    +0.000 C 
ENDBRANCH  23  29
BRANCH  26  31
ATOM     31  O   UNL     1      14.030  21.619  30.199  0.00  0.00    +0.000 OA
ATOM     32  C   UNL     1      14.820  22.121  31.275  0.00  0.00    +0.000 C 
ENDBRANCH  26  31
BRANCH  10  34
ATOM     33  N   UNL     1       8.030  25.177  26.869  0.00  0.00    +0.000 NA
ATOM     34  C   UNL     1       7.784  25.187  28.004  0.00  0.00    +0.000 C 
ENDBRANCH  10  34
BRANCH  11  35
ATOM     35  C   UNL     1      10.198  25.315  31.183  0.00  0.00    +0.000 C 
BRANCH  35  36
ATOM     36  O   UNL     1       9.422  25.201  32.394  0.00  0.00    +0.000 OA
BRANCH  36  38
ATOM     37  O   UNL     1      11.276  24.466  33.521  0.00  0.00    +0.000 OA
ATOM     38  C   UNL     1      10.069  24.618  33.431  0.00  0.00    +0.000 C 
BRANCH  38  39
ATOM     39  C   UNL     1       9.116  24.299  34.532  0.00  0.00    +0.000 C 
ATOM     40  C   UNL     1       8.528  25.520  35.182  0.00  0.00    +0.000 C 
ATOM     41  C   UNL     1       8.799  23.054  34.942  0.00  0.00    +0.000 C 
ATOM     42  C   UNL     1       9.365  21.751  34.474  0.00  0.00    +0.000 C 
ENDBRANCH  38  39
ENDBRANCH  36  38
ENDBRANCH  35  36
ENDBRANCH  11  35
TORSDOF 7
ENDMDL
MODEL 6
REMARK VINA RESULT:      -5.8     25.535     28.935
REMARK  Name = 
REMARK  14 active torsions:
REMARK  status: ('A' for Active; 'I' for Inactive)
REMARK    1  A    between atoms: O_1  and  C_24
REMARK    2  A    between atoms: O_1  and  C_36
REMARK    3  A    between atoms: O_4  and  C_30
REMARK    4  A    between atoms: O_4  and  C_37
REMARK    5  A    between atoms: O_7  and  C_33
REMARK    6  A    between atoms: O_7  and  C_38
REMARK    7  A    between atoms: N_10  and  C_23
REMARK    8  A    between atoms: C_15  and  C_26
REMARK    9  A    between atoms: C_16  and  C_24
REMARK   10  A    between atoms: C_31  and  C_34
REMARK   11  A    between atoms: C_32  and  C_35
REMARK   12  A    between atoms: C_36  and  C_39
REMARK   13  A    between atoms: C_39  and  C_40
REMARK   14  A    between atoms: C_41  and  C_42
REMARK                            x       y       z     vdW  Elec       q    Type
REMARK                         _______ _______ _______ _____ _____    ______ ____
ROOT
ATOM      1  O   UNL     1      33.128  16.775  16.730  0.00  0.00    +0.000 OA
ATOM      2  O   UNL     1      28.242  18.048  18.394  0.00  0.00    +0.000 OA
ATOM      3  O   UNL     1      33.424  13.647  13.284  0.00  0.00    +0.000 OA
ATOM      4  O   UNL     1      29.121  10.587  13.906  0.00  0.00    +0.000 OA
ATOM      5  N   UNL     1      29.947  13.423  16.977  0.00  0.00    +0.000 NA
ATOM      6  N   UNL     1      31.309  14.225  19.452  0.00  0.00    +0.000 NA
ATOM      7  C   UNL     1      31.413  13.659  17.040  0.00  0.00    +0.000 C 
ATOM      8  C   UNL     1      31.786  14.745  18.138  0.00  0.00    +0.000 C 
ATOM      9  C   UNL     1      29.827  14.137  19.421  0.00  0.00    +0.000 C 
ATOM     10  C   UNL     1      29.379  13.099  18.325  0.00  0.00    +0.000 C 
ATOM     11  C   UNL     1      29.473  12.513  15.897  0.00  0.00    +0.000 C 
ATOM     12  C   UNL     1      31.967  14.051  15.654  0.00  0.00    +0.000 C 
ATOM     13  C   UNL     1      29.162  15.521  19.179  0.00  0.00    +0.000 C 
ATOM     14  C   UNL     1      31.165  16.097  17.818  0.00  0.00    +0.000 C 
ATOM     15  C   UNL     1      29.953  16.438  18.280  0.00  0.00    +0.000 C 
ATOM     16  C   UNL     1      30.426  12.364  14.720  0.00  0.00    +0.000 C 
ATOM     17  C   UNL     1      31.550  13.079  14.592  0.00  0.00    +0.000 C 
ATOM     18  C   UNL     1      31.839  14.958  20.598  0.00  0.00    +0.000 C 
ATOM     19  C   UNL     1      31.971  17.055  17.027  0.00  0.00    +0.000 C 
ATOM     20  C   UNL     1      29.347  17.747  17.958  0.00  0.00    +0.000 C 
ATOM     21  C   UNL     1      32.427  12.945  13.408  0.00  0.00    +0.000 C 
ATOM     22  C   UNL     1      30.079  11.327  13.713  0.00  0.00    +0.000 C 
ATOM     23  C   UNL     1      31.328  18.346  16.618  0.00  0.00    +0.000 C 
ATOM     24  C   UNL     1      30.109  18.671  17.078  0.00  0.00    +0.000 C 
ATOM     25  C   UNL     1      32.044  11.964  12.362  0.00  0.00    +0.000 C 
ATOM     26  C   UNL     1      30.935  11.217  12.486  0.00  0.00    +0.000 C 
ATOM     27  C   UNL     1      29.412  19.964  16.766  0.00  0.00    +0.000 C 
ATOM     28  C   UNL     1      32.979  11.892  11.190  0.00  0.00    +0.000 C 
ENDROOT
BRANCH  23  29
ATOM     29  O   UNL     1      32.005  19.255  15.811  0.00  0.00    +0.000 OA
ATOM     30  C   UNL     1      32.031  18.940  14.421  0.00  0.00    +0.000 C 
ENDBRANCH  23  29
BRANCH  26  31
ATOM     31  O   UNL     1      30.630  10.295  11.491  0.00  0.00    +0.000 OA
ATOM     32  C   UNL     1      29.693  10.748  10.516  0.00  0.00    +0.000 C 
ENDBRANCH  26  31
BRANCH  10  34
ATOM     33  N   UNL     1      29.925  10.642  19.162  0.00  0.00    +0.000 NA
ATOM     34  C   UNL     1      29.693  11.725  18.815  0.00  0.00    +0.000 C 
ENDBRANCH  10  34
BRANCH  11  35
ATOM     35  C   UNL     1      28.098  13.052  15.402  0.00  0.00    +0.000 C 
BRANCH  35  36
ATOM     36  O   UNL     1      28.208  14.469  15.148  0.00  0.00    +0.000 OA
BRANCH  36  38
ATOM     37  O   UNL     1      26.764  14.573  13.372  0.00  0.00    +0.000 OA
ATOM     38  C   UNL     1      27.823  14.856  13.909  0.00  0.00    +0.000 C 
BRANCH  38  39
ATOM     39  C   UNL     1      28.816  15.801  13.322  0.00  0.00    +0.000 C 
ATOM     40  C   UNL     1      28.925  17.094  14.079  0.00  0.00    +0.000 C 
ATOM     41  C   UNL     1      29.548  15.561  12.216  0.00  0.00    +0.000 C 
ATOM     42  C   UNL     1      29.486  14.380  11.299  0.00  0.00    +0.000 C 
ENDBRANCH  38  39
ENDBRANCH  36  38
ENDBRANCH  35  36
ENDBRANCH  11  35
TORSDOF 7
ENDMDL
MODEL 7
REMARK VINA RESULT:      -5.8     26.079     28.828
REMARK  Name = 
REMARK  14 active torsions:
REMARK  status: ('A' for Active; 'I' for Inactive)
REMARK    1  A    between atoms: O_1  and  C_24
REMARK    2  A    between atoms: O_1  and  C_36
REMARK    3  A    between atoms: O_4  and  C_30
REMARK    4  A    between atoms: O_4  and  C_37
REMARK    5  A    between atoms: O_7  and  C_33
REMARK    6  A    between atoms: O_7  and  C_38
REMARK    7  A    between atoms: N_10  and  C_23
REMARK    8  A    between atoms: C_15  and  C_26
REMARK    9  A    between atoms: C_16  and  C_24
REMARK   10  A    between atoms: C_31  and  C_34
REMARK   11  A    between atoms: C_32  and  C_35
REMARK   12  A    between atoms: C_36  and  C_39
REMARK   13  A    between atoms: C_39  and  C_40
REMARK   14  A    between atoms: C_41  and  C_42
REMARK                            x       y       z     vdW  Elec       q    Type
REMARK                         _______ _______ _______ _____ _____    ______ ____
ROOT
ATOM      1  O   UNL     1      33.750  14.219  16.707  0.00  0.00    +0.000 OA
ATOM      2  O   UNL     1      29.944  15.676  20.122  0.00  0.00    +0.000 OA
ATOM      3  O   UNL     1      32.946  15.045  12.189  0.00  0.00    +0.000 OA
ATOM      4  O   UNL     1      27.656  14.791  11.721  0.00  0.00    +0.000 OA
ATOM      5  N   UNL     1      29.333  13.625  15.460  0.00  0.00    +0.000 NA
ATOM      6  N   UNL     1      30.554  11.624  17.231  0.00  0.00    +0.000 NA
ATOM      7  C   UNL     1      30.701  13.088  15.235  0.00  0.00    +0.000 C 
ATOM      8  C   UNL     1      31.402  12.675  16.599  0.00  0.00    +0.000 C 
ATOM      9  C   UNL     1      29.241  12.220  17.586  0.00  0.00    +0.000 C 
ATOM     10  C   UNL     1      28.498  12.688  16.279  0.00  0.00    +0.000 C 
ATOM     11  C   UNL     1      28.629  14.157  14.260  0.00  0.00    +0.000 C 
ATOM     12  C   UNL     1      31.562  14.094  14.443  0.00  0.00    +0.000 C 
ATOM     13  C   UNL     1      29.383  13.396  18.592  0.00  0.00    +0.000 C 
ATOM     14  C   UNL     1      31.578  13.875  17.520  0.00  0.00    +0.000 C 
ATOM     15  C   UNL     1      30.639  14.213  18.416  0.00  0.00    +0.000 C 
ATOM     16  C   UNL     1      29.538  14.560  13.110  0.00  0.00    +0.000 C 
ATOM     17  C   UNL     1      30.874  14.557  13.195  0.00  0.00    +0.000 C 
ATOM     18  C   UNL     1      31.210  10.927  18.333  0.00  0.00    +0.000 C 
ATOM     19  C   UNL     1      32.852  14.625  17.438  0.00  0.00    +0.000 C 
ATOM     20  C   UNL     1      30.807  15.385  19.301  0.00  0.00    +0.000 C 
ATOM     21  C   UNL     1      31.727  15.005  12.073  0.00  0.00    +0.000 C 
ATOM     22  C   UNL     1      28.871  14.919  11.831  0.00  0.00    +0.000 C 
ATOM     23  C   UNL     1      32.991  15.868  18.265  0.00  0.00    +0.000 C 
ATOM     24  C   UNL     1      32.039  16.203  19.150  0.00  0.00    +0.000 C 
ATOM     25  C   UNL     1      31.061  15.437  10.819  0.00  0.00    +0.000 C 
ATOM     26  C   UNL     1      29.723  15.420  10.703  0.00  0.00    +0.000 C 
ATOM     27  C   UNL     1      32.118  17.396  20.057  0.00  0.00    +0.000 C 
ATOM     28  C   UNL     1      31.993  15.884   9.729  0.00  0.00    +0.000 C 
ENDROOT
BRANCH  23  29
ATOM     29  O   UNL     1      34.131  16.659  18.175  0.00  0.00    +0.000 OA
ATOM     30  C   UNL     1      35.257  16.198  18.917  0.00  0.00    +0.000 C 
ENDBRANCH  23  29
BRANCH  26  31
ATOM     31  O   UNL     1      29.147  15.812   9.500  0.00  0.00    +0.000 OA
ATOM     32  C   UNL     1      28.588  17.125   9.498  0.00  0.00    +0.000 C 
ENDBRANCH  26  31
BRANCH  10  34
ATOM     33  N   UNL     1      27.657  10.519  15.004  0.00  0.00    +0.000 NA
ATOM     34  C   UNL     1      28.024  11.479  15.544  0.00  0.00    +0.000 C 
ENDBRANCH  10  34
BRANCH  11  35
ATOM     35  C   UNL     1      27.781  15.380  14.721  0.00  0.00    +0.000 C 
BRANCH  35  36
ATOM     36  O   UNL     1      28.504  16.101  15.740  0.00  0.00    +0.000 OA
BRANCH  36  38
ATOM     37  O   UNL     1      28.418  18.012  14.479  0.00  0.00    +0.000 OA
ATOM     38  C   UNL     1      28.894  17.348  15.387  0.00  0.00    +0.000 C 
BRANCH  38  39
ATOM     39  C   UNL     1      29.905  17.875  16.347  0.00  0.00    +0.000 C 
ATOM     40  C   UNL     1      29.314  18.286  17.666  0.00  0.00    +0.000 C 
ATOM     41  C   UNL     1      31.222  17.999  16.090  0.00  0.00    +0.000 C 
ATOM     42  C   UNL     1      31.947  17.734  14.808  0.00  0.00    +0.000 C 
ENDBRANCH  38  39
ENDBRANCH  36  38
ENDBRANCH  35  36
ENDBRANCH  11  35
TORSDOF 7
ENDMDL
MODEL 8
REMARK VINA RESULT:      -5.7     28.787     33.283
REMARK  Name = 
REMARK  14 active torsions:
REMARK  status: ('A' for Active; 'I' for Inactive)
REMARK    1  A    between atoms: O_1  and  C_24
REMARK    2  A    between atoms: O_1  and  C_36
REMARK    3  A    between atoms: O_4  and  C_30
REMARK    4  A    between atoms: O_4  and  C_37
REMARK    5  A    between atoms: O_7  and  C_33
REMARK    6  A    between atoms: O_7  and  C_38
REMARK    7  A    between atoms: N_10  and  C_23
REMARK    8  A    between atoms: C_15  and  C_26
REMARK    9  A    between atoms: C_16  and  C_24
REMARK   10  A    between atoms: C_31  and  C_34
REMARK   11  A    between atoms: C_32  and  C_35
REMARK   12  A    between atoms: C_36  and  C_39
REMARK   13  A    between atoms: C_39  and  C_40
REMARK   14  A    between atoms: C_41  and  C_42
REMARK                            x       y       z     vdW  Elec       q    Type
REMARK                         _______ _______ _______ _____ _____    ______ ____
ROOT
ATOM      1  O   UNL     1      22.142  -6.625  13.425  0.00  0.00    +0.000 OA
ATOM      2  O   UNL     1      17.207  -6.444  11.457  0.00  0.00    +0.000 OA
ATOM      3  O   UNL     1      23.248  -3.412  16.619  0.00  0.00    +0.000 OA
ATOM      4  O   UNL     1      20.213   0.775  15.384  0.00  0.00    +0.000 OA
ATOM      5  N   UNL     1      20.241  -2.480  12.636  0.00  0.00    +0.000 NA
ATOM      6  N   UNL     1      21.403  -3.928  10.359  0.00  0.00    +0.000 NA
ATOM      7  C   UNL     1      21.552  -3.176  12.717  0.00  0.00    +0.000 C 
ATOM      8  C   UNL     1      21.612  -4.432  11.747  0.00  0.00    +0.000 C 
ATOM      9  C   UNL     1      20.030  -3.370  10.256  0.00  0.00    +0.000 C 
ATOM     10  C   UNL     1      19.884  -2.136  11.222  0.00  0.00    +0.000 C 
ATOM     11  C   UNL     1      20.030  -1.360  13.594  0.00  0.00    +0.000 C 
ATOM     12  C   UNL     1      21.872  -3.576  14.173  0.00  0.00    +0.000 C 
ATOM     13  C   UNL     1      18.940  -4.437  10.552  0.00  0.00    +0.000 C 
ATOM     14  C   UNL     1      20.568  -5.475  12.121  0.00  0.00    +0.000 C 
ATOM     15  C   UNL     1      19.338  -5.459  11.587  0.00  0.00    +0.000 C 
ATOM     16  C   UNL     1      20.913  -1.399  14.832  0.00  0.00    +0.000 C 
ATOM     17  C   UNL     1      21.735  -2.417  15.113  0.00  0.00    +0.000 C 
ATOM     18  C   UNL     1      21.728  -4.906   9.326  0.00  0.00    +0.000 C 
ATOM     19  C   UNL     1      20.975  -6.552  13.053  0.00  0.00    +0.000 C 
ATOM     20  C   UNL     1      18.324  -6.467  11.961  0.00  0.00    +0.000 C 
ATOM     21  C   UNL     1      22.541  -2.446  16.353  0.00  0.00    +0.000 C 
ATOM     22  C   UNL     1      20.867  -0.207  15.718  0.00  0.00    +0.000 C 
ATOM     23  C   UNL     1      19.926  -7.522  13.509  0.00  0.00    +0.000 C 
ATOM     24  C   UNL     1      18.695  -7.488  12.975  0.00  0.00    +0.000 C 
ATOM     25  C   UNL     1      22.441  -1.292  17.279  0.00  0.00    +0.000 C 
ATOM     26  C   UNL     1      21.644  -0.247  17.001  0.00  0.00    +0.000 C 
ATOM     27  C   UNL     1      17.599  -8.451  13.329  0.00  0.00    +0.000 C 
ATOM     28  C   UNL     1      23.283  -1.399  18.518  0.00  0.00    +0.000 C 
ENDROOT
BRANCH  23  29
ATOM     29  O   UNL     1      20.225  -8.508  14.442  0.00  0.00    +0.000 OA
ATOM     30  C   UNL     1      20.242  -8.082  15.802  0.00  0.00    +0.000 C 
ENDBRANCH  23  29
BRANCH  26  31
ATOM     31  O   UNL     1      21.601   0.822  17.889  0.00  0.00    +0.000 OA
ATOM     32  C   UNL     1      22.464   1.911  17.564  0.00  0.00    +0.000 C 
ENDBRANCH  26  31
BRANCH  10  34
ATOM     33  N   UNL     1      21.255  -0.087  10.242  0.00  0.00    +0.000 NA
ATOM     34  C   UNL     1      20.653  -0.992  10.651  0.00  0.00    +0.000 C 
ENDBRANCH  10  34
BRANCH  11  35
ATOM     35  C   UNL     1      18.529  -1.379  14.011  0.00  0.00    +0.000 C 
BRANCH  35  36
ATOM     36  O   UNL     1      18.094  -2.747  14.153  0.00  0.00    +0.000 OA
BRANCH  36  38
ATOM     37  O   UNL     1      16.236  -2.979  15.472  0.00  0.00    +0.000 OA
ATOM     38  C   UNL     1      17.444  -3.021  15.308  0.00  0.00    +0.000 C 
BRANCH  38  39
ATOM     39  C   UNL     1      18.397  -3.521  16.341  0.00  0.00    +0.000 C 
ATOM     40  C   UNL     1      18.943  -4.886  16.033  0.00  0.00    +0.000 C 
ATOM     41  C   UNL     1      18.745  -2.851  17.457  0.00  0.00    +0.000 C 
ATOM     42  C   UNL     1      18.220  -1.542  17.957  0.00  0.00    +0.000 C 
ENDBRANCH  38  39
ENDBRANCH  36  38
ENDBRANCH  35  36
ENDBRANCH  11  35
TORSDOF 7
ENDMDL
MODEL 9
REMARK VINA RESULT:      -5.6     28.523     31.820
REMARK  Name = 
REMARK  14 active torsions:
REMARK  status: ('A' for Active; 'I' for Inactive)
REMARK    1  A    between atoms: O_1  and  C_24
REMARK    2  A    between atoms: O_1  and  C_36
REMARK    3  A    between atoms: O_4  and  C_30
REMARK    4  A    between atoms: O_4  and  C_37
REMARK    5  A    between atoms: O_7  and  C_33
REMARK    6  A    between atoms: O_7  and  C_38
REMARK    7  A    between atoms: N_10  and  C_23
REMARK    8  A    between atoms: C_15  and  C_26
REMARK    9  A    between atoms: C_16  and  C_24
REMARK   10  A    between atoms: C_31  and  C_34
REMARK   11  A    between atoms: C_32  and  C_35
REMARK   12  A    between atoms: C_36  and  C_39
REMARK   13  A    between atoms: C_39  and  C_40
REMARK   14  A    between atoms: C_41  and  C_42
REMARK                            x       y       z     vdW  Elec       q    Type
REMARK                         _______ _______ _______ _____ _____    ______ ____
ROOT
ATOM      1  O   UNL     1      21.739  -4.340  15.055  0.00  0.00    +0.000 OA
ATOM      2  O   UNL     1      18.667  -0.258  13.581  0.00  0.00    +0.000 OA
ATOM      3  O   UNL     1      19.643  -7.835  17.321  0.00  0.00    +0.000 OA
ATOM      4  O   UNL     1      15.590  -5.515  19.865  0.00  0.00    +0.000 OA
ATOM      5  N   UNL     1      18.396  -2.952  17.938  0.00  0.00    +0.000 NA
ATOM      6  N   UNL     1      20.913  -1.440  17.906  0.00  0.00    +0.000 NA
ATOM      7  C   UNL     1      19.725  -3.616  17.912  0.00  0.00    +0.000 C 
ATOM      8  C   UNL     1      20.810  -2.729  17.164  0.00  0.00    +0.000 C 
ATOM      9  C   UNL     1      19.619  -0.720  17.794  0.00  0.00    +0.000 C 
ATOM     10  C   UNL     1      18.482  -1.560  18.486  0.00  0.00    +0.000 C 
ATOM     11  C   UNL     1      17.273  -3.748  18.507  0.00  0.00    +0.000 C 
ATOM     12  C   UNL     1      19.624  -5.024  17.288  0.00  0.00    +0.000 C 
ATOM     13  C   UNL     1      19.251  -0.401  16.318  0.00  0.00    +0.000 C 
ATOM     14  C   UNL     1      20.435  -2.503  15.706  0.00  0.00    +0.000 C 
ATOM     15  C   UNL     1      19.702  -1.445  15.328  0.00  0.00    +0.000 C 
ATOM     16  C   UNL     1      17.488  -5.254  18.504  0.00  0.00    +0.000 C 
ATOM     17  C   UNL     1      18.545  -5.842  17.929  0.00  0.00    +0.000 C 
ATOM     18  C   UNL     1      22.075  -0.640  17.529  0.00  0.00    +0.000 C 
ATOM     19  C   UNL     1      20.961  -3.458  14.704  0.00  0.00    +0.000 C 
ATOM     20  C   UNL     1      19.330  -1.235  13.913  0.00  0.00    +0.000 C 
ATOM     21  C   UNL     1      18.696  -7.313  17.899  0.00  0.00    +0.000 C 
ATOM     22  C   UNL     1      16.480  -6.071  19.228  0.00  0.00    +0.000 C 
ATOM     23  C   UNL     1      20.511  -3.304  13.282  0.00  0.00    +0.000 C 
ATOM     24  C   UNL     1      19.768  -2.247  12.917  0.00  0.00    +0.000 C 
ATOM     25  C   UNL     1      17.650  -8.136  18.556  0.00  0.00    +0.000 C 
ATOM     26  C   UNL     1      16.598  -7.564  19.164  0.00  0.00    +0.000 C 
ATOM     27  C   UNL     1      19.318  -1.983  11.510  0.00  0.00    +0.000 C 
ATOM     28  C   UNL     1      17.871  -9.619  18.477  0.00  0.00    +0.000 C 
ENDROOT
BRANCH  23  29
ATOM     29  O   UNL     1      20.907  -4.214  12.307  0.00  0.00    +0.000 OA
ATOM     30  C   UNL     1      22.208  -4.003  11.764  0.00  0.00    +0.000 C 
ENDBRANCH  23  29
BRANCH  26  31
ATOM     31  O   UNL     1      15.657  -8.377  19.786  0.00  0.00    +0.000 OA
ATOM     32  C   UNL     1      14.485  -8.640  19.018  0.00  0.00    +0.000 C 
ENDBRANCH  26  31
BRANCH  10  34
ATOM     33  N   UNL     1      18.781  -1.438  21.119  0.00  0.00    +0.000 NA
ATOM     34  C   UNL     1      18.671  -1.489  19.964  0.00  0.00    +0.000 C 
ENDBRANCH  10  34
BRANCH  11  35
ATOM     35  C   UNL     1      15.990  -3.393  17.697  0.00  0.00    +0.000 C 
BRANCH  35  36
ATOM     36  O   UNL     1      16.356  -3.117  16.329  0.00  0.00    +0.000 OA
BRANCH  36  38
ATOM     37  O   UNL     1      14.590  -3.289  14.880  0.00  0.00    +0.000 OA
ATOM     38  C   UNL     1      15.596  -3.743  15.400  0.00  0.00    +0.000 C 
BRANCH  38  39
ATOM     39  C   UNL     1      16.228  -5.027  14.983  0.00  0.00    +0.000 C 
ATOM     40  C   UNL     1      17.445  -4.838  14.121  0.00  0.00    +0.000 C 
ATOM     41  C   UNL     1      15.775  -6.253  15.313  0.00  0.00    +0.000 C 
ATOM     42  C   UNL     1      14.536  -6.612  16.070  0.00  0.00    +0.000 C 
ENDBRANCH  38  39
ENDBRANCH  36  38
ENDBRANCH  35  36
ENDBRANCH  11  35
TORSDOF 7
ENDMDL
