MODEL 1
REMARK VINA RESULT:      -5.4      0.000      0.000
REMARK  Name = Resveratrol.pdbqt.pdb
REMARK  5 active torsions:
REMARK  status: ('A' for Active; 'I' for Inactive)
REMARK    1  A    between atoms: C_1  and  C_11
REMARK    2  A    between atoms: C_4  and  O_7
REMARK    3  A    between atoms: C_5  and  O_9
REMARK    4  A    between atoms: C_12  and  C_13
REMARK    5  A    between atoms: C_18  and  O_19
REMARK                            x       y       z     vdW  Elec       q    Type
REMARK                         _______ _______ _______ _____ _____    ______ ____
ROOT
ATOM      1  C   UNL     1      11.880  17.672  30.207  0.00  0.00    +0.000 A 
ATOM      2  C   UNL     1      12.010  16.740  29.178  0.00  0.00    +0.000 A 
ATOM      3  C   UNL     1      12.939  17.899  31.086  0.00  0.00    +0.000 A 
ATOM      4  C   UNL     1      14.125  17.187  30.927  0.00  0.00    +0.000 A 
ATOM      5  C   UNL     1      13.203  16.039  29.037  0.00  0.00    +0.000 A 
ATOM      6  C   UNL     1      14.269  16.254  29.905  0.00  0.00    +0.000 A 
ENDROOT
BRANCH   4   7
ATOM      7  O   UNL     1      15.178  17.388  31.772  0.00  0.00    +0.000 OA
ATOM      8  H   UNL     1      14.834  17.770  32.599  0.00  0.00    +0.000 HD
ENDBRANCH   4   7
BRANCH   5   9
ATOM      9  O   UNL     1      13.307  15.131  28.022  0.00  0.00    +0.000 OA
ATOM     10  H   UNL     1      12.416  14.985  27.658  0.00  0.00    +0.000 HD
ENDBRANCH   5   9
BRANCH   1  11
ATOM     11  C   UNL     1      10.662  18.396  30.363  0.00  0.00    +0.000 C 
ATOM     12  C   UNL     1       9.635  19.006  30.494  0.00  0.00    +0.000 C 
BRANCH  12  13
ATOM     13  C   UNL     1       8.417  19.730  30.651  0.00  0.00    +0.000 A 
ATOM     14  C   UNL     1       8.329  21.048  30.204  0.00  0.00    +0.000 A 
ATOM     15  C   UNL     1       7.316  19.119  31.252  0.00  0.00    +0.000 A 
ATOM     16  C   UNL     1       7.141  21.757  30.356  0.00  0.00    +0.000 A 
ATOM     17  C   UNL     1       6.126  19.824  31.406  0.00  0.00    +0.000 A 
ATOM     18  C   UNL     1       6.048  21.139  30.957  0.00  0.00    +0.000 A 
BRANCH  18  19
ATOM     19  O   UNL     1       4.871  21.810  31.119  0.00  0.00    +0.000 OA
ATOM     20  H   UNL     1       4.146  21.161  31.113  0.00  0.00    +0.000 HD
ENDBRANCH  18  19
ENDBRANCH  12  13
ENDBRANCH   1  11
TORSDOF 5
ENDMDL
MODEL 2
REMARK VINA RESULT:      -5.4      0.055      2.008
REMARK  Name = Resveratrol.pdbqt.pdb
REMARK  5 active torsions:
REMARK  status: ('A' for Active; 'I' for Inactive)
REMARK    1  A    between atoms: C_1  and  C_11
REMARK    2  A    between atoms: C_4  and  O_7
REMARK    3  A    between atoms: C_5  and  O_9
REMARK    4  A    between atoms: C_12  and  C_13
REMARK    5  A    between atoms: C_18  and  O_19
REMARK                            x       y       z     vdW  Elec       q    Type
REMARK                         _______ _______ _______ _____ _____    ______ ____
ROOT
ATOM      1  C   UNL     1      11.842  17.687  30.210  0.00  0.00    +0.000 A 
ATOM      2  C   UNL     1      12.900  17.897  31.094  0.00  0.00    +0.000 A 
ATOM      3  C   UNL     1      11.967  16.763  29.174  0.00  0.00    +0.000 A 
ATOM      4  C   UNL     1      13.155  16.051  29.030  0.00  0.00    +0.000 A 
ATOM      5  C   UNL     1      14.079  17.175  30.933  0.00  0.00    +0.000 A 
ATOM      6  C   UNL     1      14.218  16.249  29.904  0.00  0.00    +0.000 A 
ENDROOT
BRANCH   4   7
ATOM      7  O   UNL     1      13.304  15.139  28.025  0.00  0.00    +0.000 OA
ATOM      8  H   UNL     1      14.158  15.306  27.589  0.00  0.00    +0.000 HD
ENDBRANCH   4   7
BRANCH   5   9
ATOM      9  O   UNL     1      15.101  17.397  31.811  0.00  0.00    +0.000 OA
ATOM     10  H   UNL     1      15.067  16.702  32.492  0.00  0.00    +0.000 HD
ENDBRANCH   5   9
BRANCH   1  11
ATOM     11  C   UNL     1      10.629  18.421  30.364  0.00  0.00    +0.000 C 
ATOM     12  C   UNL     1       9.607  19.039  30.495  0.00  0.00    +0.000 C 
BRANCH  12  13
ATOM     13  C   UNL     1       8.395  19.773  30.650  0.00  0.00    +0.000 A 
ATOM     14  C   UNL     1       8.326  21.099  30.222  0.00  0.00    +0.000 A 
ATOM     15  C   UNL     1       7.282  19.165  31.229  0.00  0.00    +0.000 A 
ATOM     16  C   UNL     1       7.143  21.817  30.371  0.00  0.00    +0.000 A 
ATOM     17  C   UNL     1       6.097  19.880  31.381  0.00  0.00    +0.000 A 
ATOM     18  C   UNL     1       6.037  21.202  30.951  0.00  0.00    +0.000 A 
BRANCH  18  19
ATOM     19  O   UNL     1       4.866  21.883  31.110  0.00  0.00    +0.000 OA
ATOM     20  H   UNL     1       4.855  22.266  32.004  0.00  0.00    +0.000 HD
ENDBRANCH  18  19
ENDBRANCH  12  13
ENDBRANCH   1  11
TORSDOF 5
ENDMDL
MODEL 3
REMARK VINA RESULT:      -5.4     13.973     14.400
REMARK  Name = Resveratrol.pdbqt.pdb
REMARK  5 active torsions:
REMARK  status: ('A' for Active; 'I' for Inactive)
REMARK    1  A    between atoms: C_1  and  C_11
REMARK    2  A    between atoms: C_4  and  O_7
REMARK    3  A    between atoms: C_5  and  O_9
REMARK    4  A    between atoms: C_12  and  C_13
REMARK    5  A    between atoms: C_18  and  O_19
REMARK                            x       y       z     vdW  Elec       q    Type
REMARK                         _______ _______ _______ _____ _____    ______ ____
ROOT
ATOM      1  C   UNL     1      23.303  14.341  26.562  0.00  0.00    +0.000 A 
ATOM      2  C   UNL     1      22.229  13.492  26.298  0.00  0.00    +0.000 A 
ATOM      3  C   UNL     1      24.433  13.859  27.220  0.00  0.00    +0.000 A 
ATOM      4  C   UNL     1      24.481  12.523  27.610  0.00  0.00    +0.000 A 
ATOM      5  C   UNL     1      22.296  12.161  26.696  0.00  0.00    +0.000 A 
ATOM      6  C   UNL     1      23.418  11.665  27.353  0.00  0.00    +0.000 A 
ENDROOT
BRANCH   4   7
ATOM      7  O   UNL     1      25.575  12.024  28.255  0.00  0.00    +0.000 OA
ATOM      8  H   UNL     1      26.372  12.369  27.813  0.00  0.00    +0.000 HD
ENDBRANCH   4   7
BRANCH   5   9
ATOM      9  O   UNL     1      21.233  11.348  26.427  0.00  0.00    +0.000 OA
ATOM     10  H   UNL     1      21.123  10.738  27.178  0.00  0.00    +0.000 HD
ENDBRANCH   5   9
BRANCH   1  11
ATOM     11  C   UNL     1      23.245  15.708  26.159  0.00  0.00    +0.000 C 
ATOM     12  C   UNL     1      23.198  16.860  25.821  0.00  0.00    +0.000 C 
BRANCH  12  13
ATOM     13  C   UNL     1      23.142  18.227  25.418  0.00  0.00    +0.000 A 
ATOM     14  C   UNL     1      22.652  18.560  24.156  0.00  0.00    +0.000 A 
ATOM     15  C   UNL     1      23.577  19.227  26.288  0.00  0.00    +0.000 A 
ATOM     16  C   UNL     1      22.596  19.893  23.761  0.00  0.00    +0.000 A 
ATOM     17  C   UNL     1      23.523  20.562  25.896  0.00  0.00    +0.000 A 
ATOM     18  C   UNL     1      23.033  20.885  24.635  0.00  0.00    +0.000 A 
BRANCH  18  19
ATOM     19  O   UNL     1      22.989  22.200  24.274  0.00  0.00    +0.000 OA
ATOM     20  H   UNL     1      23.335  22.731  25.013  0.00  0.00    +0.000 HD
ENDBRANCH  18  19
ENDBRANCH  12  13
ENDBRANCH   1  11
TORSDOF 5
ENDMDL
MODEL 4
REMARK VINA RESULT:      -5.4     13.991     14.403
REMARK  Name = Resveratrol.pdbqt.pdb
REMARK  5 active torsions:
REMARK  status: ('A' for Active; 'I' for Inactive)
REMARK    1  A    between atoms: C_1  and  C_11
REMARK    2  A    between atoms: C_4  and  O_7
REMARK    3  A    between atoms: C_5  and  O_9
REMARK    4  A    between atoms: C_12  and  C_13
REMARK    5  A    between atoms: C_18  and  O_19
REMARK                            x       y       z     vdW  Elec       q    Type
REMARK                         _______ _______ _______ _____ _____    ______ ____
ROOT
ATOM      1  C   UNL     1      23.179  14.456  26.843  0.00  0.00    +0.000 A 
ATOM      2  C   UNL     1      24.125  14.077  27.794  0.00  0.00    +0.000 A 
ATOM      3  C   UNL     1      22.259  13.526  26.360  0.00  0.00    +0.000 A 
ATOM      4  C   UNL     1      22.292  12.218  26.837  0.00  0.00    +0.000 A 
ATOM      5  C   UNL     1      24.142  12.765  28.257  0.00  0.00    +0.000 A 
ATOM      6  C   UNL     1      23.230  11.827  27.786  0.00  0.00    +0.000 A 
ENDROOT
BRANCH   4   7
ATOM      7  O   UNL     1      21.403  11.288  26.383  0.00  0.00    +0.000 OA
ATOM      8  H   UNL     1      21.900  10.485  26.144  0.00  0.00    +0.000 HD
ENDBRANCH   4   7
BRANCH   5   9
ATOM      9  O   UNL     1      25.078  12.418  29.189  0.00  0.00    +0.000 OA
ATOM     10  H   UNL     1      25.237  13.192  29.758  0.00  0.00    +0.000 HD
ENDBRANCH   5   9
BRANCH   1  11
ATOM     11  C   UNL     1      23.152  15.797  26.360  0.00  0.00    +0.000 C 
ATOM     12  C   UNL     1      23.129  16.927  25.952  0.00  0.00    +0.000 C 
BRANCH  12  13
ATOM     13  C   UNL     1      23.102  18.268  25.468  0.00  0.00    +0.000 A 
ATOM     14  C   UNL     1      22.613  18.536  24.190  0.00  0.00    +0.000 A 
ATOM     15  C   UNL     1      23.565  19.309  26.273  0.00  0.00    +0.000 A 
ATOM     16  C   UNL     1      22.584  19.844  23.715  0.00  0.00    +0.000 A 
ATOM     17  C   UNL     1      23.539  20.618  25.802  0.00  0.00    +0.000 A 
ATOM     18  C   UNL     1      23.049  20.876  24.526  0.00  0.00    +0.000 A 
BRANCH  18  19
ATOM     19  O   UNL     1      23.033  22.167  24.086  0.00  0.00    +0.000 OA
ATOM     20  H   UNL     1      22.247  22.289  23.526  0.00  0.00    +0.000 HD
ENDBRANCH  18  19
ENDBRANCH  12  13
ENDBRANCH   1  11
TORSDOF 5
ENDMDL
MODEL 5
REMARK VINA RESULT:      -5.3      1.964      2.184
REMARK  Name = Resveratrol.pdbqt.pdb
REMARK  5 active torsions:
REMARK  status: ('A' for Active; 'I' for Inactive)
REMARK    1  A    between atoms: C_1  and  C_11
REMARK    2  A    between atoms: C_4  and  O_7
REMARK    3  A    between atoms: C_5  and  O_9
REMARK    4  A    between atoms: C_12  and  C_13
REMARK    5  A    between atoms: C_18  and  O_19
REMARK                            x       y       z     vdW  Elec       q    Type
REMARK                         _______ _______ _______ _____ _____    ______ ____
ROOT
ATOM      1  C   UNL     1      10.224  17.315  30.290  0.00  0.00    +0.000 A 
ATOM      2  C   UNL     1      11.018  17.090  29.166  0.00  0.00    +0.000 A 
ATOM      3  C   UNL     1      10.258  16.424  31.363  0.00  0.00    +0.000 A 
ATOM      4  C   UNL     1      11.090  15.310  31.302  0.00  0.00    +0.000 A 
ATOM      5  C   UNL     1      11.842  15.970  29.125  0.00  0.00    +0.000 A 
ATOM      6  C   UNL     1      11.888  15.073  30.187  0.00  0.00    +0.000 A 
ENDROOT
BRANCH   4   7
ATOM      7  O   UNL     1      11.144  14.422  32.337  0.00  0.00    +0.000 OA
ATOM      8  H   UNL     1      11.921  13.850  32.207  0.00  0.00    +0.000 HD
ENDBRANCH   4   7
BRANCH   5   9
ATOM      9  O   UNL     1      12.611  15.770  28.014  0.00  0.00    +0.000 OA
ATOM     10  H   UNL     1      12.875  14.833  27.996  0.00  0.00    +0.000 HD
ENDBRANCH   5   9
BRANCH   1  11
ATOM     11  C   UNL     1       9.374  18.458  30.345  0.00  0.00    +0.000 C 
ATOM     12  C   UNL     1       8.657  19.422  30.390  0.00  0.00    +0.000 C 
BRANCH  12  13
ATOM     13  C   UNL     1       7.806  20.565  30.444  0.00  0.00    +0.000 A 
ATOM     14  C   UNL     1       8.258  21.791  29.957  0.00  0.00    +0.000 A 
ATOM     15  C   UNL     1       6.525  20.454  30.984  0.00  0.00    +0.000 A 
ATOM     16  C   UNL     1       7.429  22.908  30.008  0.00  0.00    +0.000 A 
ATOM     17  C   UNL     1       5.694  21.569  31.038  0.00  0.00    +0.000 A 
ATOM     18  C   UNL     1       6.153  22.788  30.550  0.00  0.00    +0.000 A 
BRANCH  18  19
ATOM     19  O   UNL     1       5.319  23.866  30.613  0.00  0.00    +0.000 OA
ATOM     20  H   UNL     1       5.854  24.672  30.504  0.00  0.00    +0.000 HD
ENDBRANCH  18  19
ENDBRANCH  12  13
ENDBRANCH   1  11
TORSDOF 5
ENDMDL
MODEL 6
REMARK VINA RESULT:      -5.3     12.375     14.517
REMARK  Name = Resveratrol.pdbqt.pdb
REMARK  5 active torsions:
REMARK  status: ('A' for Active; 'I' for Inactive)
REMARK    1  A    between atoms: C_1  and  C_11
REMARK    2  A    between atoms: C_4  and  O_7
REMARK    3  A    between atoms: C_5  and  O_9
REMARK    4  A    between atoms: C_12  and  C_13
REMARK    5  A    between atoms: C_18  and  O_19
REMARK                            x       y       z     vdW  Elec       q    Type
REMARK                         _______ _______ _______ _____ _____    ______ ____
ROOT
ATOM      1  C   UNL     1      23.402  12.504  25.497  0.00  0.00    +0.000 A 
ATOM      2  C   UNL     1      23.936  12.277  24.229  0.00  0.00    +0.000 A 
ATOM      3  C   UNL     1      23.135  11.432  26.347  0.00  0.00    +0.000 A 
ATOM      4  C   UNL     1      23.407  10.134  25.920  0.00  0.00    +0.000 A 
ATOM      5  C   UNL     1      24.199  10.973  23.821  0.00  0.00    +0.000 A 
ATOM      6  C   UNL     1      23.940   9.894  24.658  0.00  0.00    +0.000 A 
ENDROOT
BRANCH   4   7
ATOM      7  O   UNL     1      23.156   9.066  26.732  0.00  0.00    +0.000 OA
ATOM      8  H   UNL     1      22.202   8.875  26.696  0.00  0.00    +0.000 HD
ENDBRANCH   4   7
BRANCH   5   9
ATOM      9  O   UNL     1      24.722  10.776  22.575  0.00  0.00    +0.000 OA
ATOM     10  H   UNL     1      24.954   9.834  22.492  0.00  0.00    +0.000 HD
ENDBRANCH   5   9
BRANCH   1  11
ATOM     11  C   UNL     1      23.127  13.835  25.926  0.00  0.00    +0.000 C 
ATOM     12  C   UNL     1      22.894  14.957  26.287  0.00  0.00    +0.000 C 
BRANCH  12  13
ATOM     13  C   UNL     1      22.618  16.289  26.717  0.00  0.00    +0.000 A 
ATOM     14  C   UNL     1      22.871  17.361  25.862  0.00  0.00    +0.000 A 
ATOM     15  C   UNL     1      22.096  16.515  27.990  0.00  0.00    +0.000 A 
ATOM     16  C   UNL     1      22.601  18.662  26.279  0.00  0.00    +0.000 A 
ATOM     17  C   UNL     1      21.825  17.814  28.411  0.00  0.00    +0.000 A 
ATOM     18  C   UNL     1      22.081  18.878  27.552  0.00  0.00    +0.000 A 
BRANCH  18  19
ATOM     19  O   UNL     1      21.808  20.142  27.987  0.00  0.00    +0.000 OA
ATOM     20  H   UNL     1      20.904  20.372  27.708  0.00  0.00    +0.000 HD
ENDBRANCH  18  19
ENDBRANCH  12  13
ENDBRANCH   1  11
TORSDOF 5
ENDMDL
MODEL 7
REMARK VINA RESULT:      -5.1     26.214     27.823
REMARK  Name = Resveratrol.pdbqt.pdb
REMARK  5 active torsions:
REMARK  status: ('A' for Active; 'I' for Inactive)
REMARK    1  A    between atoms: C_1  and  C_11
REMARK    2  A    between atoms: C_4  and  O_7
REMARK    3  A    between atoms: C_5  and  O_9
REMARK    4  A    between atoms: C_12  and  C_13
REMARK    5  A    between atoms: C_18  and  O_19
REMARK                            x       y       z     vdW  Elec       q    Type
REMARK                         _______ _______ _______ _____ _____    ______ ____
ROOT
ATOM      1  C   UNL     1      17.848  31.224   9.053  0.00  0.00    +0.000 A 
ATOM      2  C   UNL     1      18.215  32.436   9.637  0.00  0.00    +0.000 A 
ATOM      3  C   UNL     1      16.598  30.666   9.321  0.00  0.00    +0.000 A 
ATOM      4  C   UNL     1      15.721  31.329  10.175  0.00  0.00    +0.000 A 
ATOM      5  C   UNL     1      17.324  33.082  10.488  0.00  0.00    +0.000 A 
ATOM      6  C   UNL     1      16.074  32.539  10.764  0.00  0.00    +0.000 A 
ENDROOT
BRANCH   4   7
ATOM      7  O   UNL     1      14.492  30.807  10.455  0.00  0.00    +0.000 OA
ATOM      8  H   UNL     1      14.397  29.972   9.962  0.00  0.00    +0.000 HD
ENDBRANCH   4   7
BRANCH   5   9
ATOM      9  O   UNL     1      17.705  34.268  11.048  0.00  0.00    +0.000 OA
ATOM     10  H   UNL     1      18.280  34.729  10.411  0.00  0.00    +0.000 HD
ENDBRANCH   5   9
BRANCH   1  11
ATOM     11  C   UNL     1      18.753  30.550   8.181  0.00  0.00    +0.000 C 
ATOM     12  C   UNL     1      19.515  29.982   7.445  0.00  0.00    +0.000 C 
BRANCH  12  13
ATOM     13  C   UNL     1      20.418  29.309   6.572  0.00  0.00    +0.000 A 
ATOM     14  C   UNL     1      21.764  29.192   6.920  0.00  0.00    +0.000 A 
ATOM     15  C   UNL     1      19.955  28.769   5.372  0.00  0.00    +0.000 A 
ATOM     16  C   UNL     1      22.648  28.535   6.069  0.00  0.00    +0.000 A 
ATOM     17  C   UNL     1      20.836  28.111   4.519  0.00  0.00    +0.000 A 
ATOM     18  C   UNL     1      22.176  28.000   4.874  0.00  0.00    +0.000 A 
BRANCH  18  19
ATOM     19  O   UNL     1      23.021  27.350   4.021  0.00  0.00    +0.000 OA
ATOM     20  H   UNL     1      22.716  27.508   3.111  0.00  0.00    +0.000 HD
ENDBRANCH  18  19
ENDBRANCH  12  13
ENDBRANCH   1  11
TORSDOF 5
ENDMDL
MODEL 8
REMARK VINA RESULT:      -5.1     26.541     28.122
REMARK  Name = Resveratrol.pdbqt.pdb
REMARK  5 active torsions:
REMARK  status: ('A' for Active; 'I' for Inactive)
REMARK    1  A    between atoms: C_1  and  C_11
REMARK    2  A    between atoms: C_4  and  O_7
REMARK    3  A    between atoms: C_5  and  O_9
REMARK    4  A    between atoms: C_12  and  C_13
REMARK    5  A    between atoms: C_18  and  O_19
REMARK                            x       y       z     vdW  Elec       q    Type
REMARK                         _______ _______ _______ _____ _____    ______ ____
ROOT
ATOM      1  C   UNL     1      18.398  31.216   8.750  0.00  0.00    +0.000 A 
ATOM      2  C   UNL     1      17.127  30.732   9.060  0.00  0.00    +0.000 A 
ATOM      3  C   UNL     1      18.835  32.430   9.280  0.00  0.00    +0.000 A 
ATOM      4  C   UNL     1      17.993  33.153  10.121  0.00  0.00    +0.000 A 
ATOM      5  C   UNL     1      16.301  31.471   9.902  0.00  0.00    +0.000 A 
ATOM      6  C   UNL     1      16.723  32.682  10.439  0.00  0.00    +0.000 A 
ENDROOT
BRANCH   4   7
ATOM      7  O   UNL     1      18.394  34.344  10.654  0.00  0.00    +0.000 OA
ATOM      8  H   UNL     1      18.775  34.169  11.533  0.00  0.00    +0.000 HD
ENDBRANCH   4   7
BRANCH   5   9
ATOM      9  O   UNL     1      15.062  30.977  10.192  0.00  0.00    +0.000 OA
ATOM     10  H   UNL     1      15.025  30.055   9.880  0.00  0.00    +0.000 HD
ENDBRANCH   5   9
BRANCH   1  11
ATOM     11  C   UNL     1      19.254  30.470   7.888  0.00  0.00    +0.000 C 
ATOM     12  C   UNL     1      19.974  29.840   7.161  0.00  0.00    +0.000 C 
BRANCH  12  13
ATOM     13  C   UNL     1      20.829  29.094   6.298  0.00  0.00    +0.000 A 
ATOM     14  C   UNL     1      20.332  28.582   5.100  0.00  0.00    +0.000 A 
ATOM     15  C   UNL     1      22.160  28.877   6.655  0.00  0.00    +0.000 A 
ATOM     16  C   UNL     1      21.165  27.853   4.256  0.00  0.00    +0.000 A 
ATOM     17  C   UNL     1      22.996  28.149   5.813  0.00  0.00    +0.000 A 
ATOM     18  C   UNL     1      22.492  27.642   4.620  0.00  0.00    +0.000 A 
BRANCH  18  19
ATOM     19  O   UNL     1      23.330  26.931   3.812  0.00  0.00    +0.000 OA
ATOM     20  H   UNL     1      23.305  25.999   4.090  0.00  0.00    +0.000 HD
ENDBRANCH  18  19
ENDBRANCH  12  13
ENDBRANCH   1  11
TORSDOF 5
ENDMDL
MODEL 9
REMARK VINA RESULT:      -5.0      2.468      3.605
REMARK  Name = Resveratrol.pdbqt.pdb
REMARK  5 active torsions:
REMARK  status: ('A' for Active; 'I' for Inactive)
REMARK    1  A    between atoms: C_1  and  C_11
REMARK    2  A    between atoms: C_4  and  O_7
REMARK    3  A    between atoms: C_5  and  O_9
REMARK    4  A    between atoms: C_12  and  C_13
REMARK    5  A    between atoms: C_18  and  O_19
REMARK                            x       y       z     vdW  Elec       q    Type
REMARK                         _______ _______ _______ _____ _____    ______ ____
ROOT
ATOM      1  C   UNL     1       9.444  18.118  30.168  0.00  0.00    +0.000 A 
ATOM      2  C   UNL     1      10.521  17.788  29.346  0.00  0.00    +0.000 A 
ATOM      3  C   UNL     1       8.856  17.147  30.979  0.00  0.00    +0.000 A 
ATOM      4  C   UNL     1       9.354  15.847  30.960  0.00  0.00    +0.000 A 
ATOM      5  C   UNL     1      11.002  16.482  29.342  0.00  0.00    +0.000 A 
ATOM      6  C   UNL     1      10.427  15.503  30.146  0.00  0.00    +0.000 A 
ENDROOT
BRANCH   4   7
ATOM      7  O   UNL     1       8.798  14.877  31.743  0.00  0.00    +0.000 OA
ATOM      8  H   UNL     1       7.887  14.724  31.437  0.00  0.00    +0.000 HD
ENDBRANCH   4   7
BRANCH   5   9
ATOM      9  O   UNL     1      12.058  16.182  28.530  0.00  0.00    +0.000 OA
ATOM     10  H   UNL     1      11.754  15.534  27.870  0.00  0.00    +0.000 HD
ENDBRANCH   5   9
BRANCH   1  11
ATOM     11  C   UNL     1       8.940  19.452  30.181  0.00  0.00    +0.000 C 
ATOM     12  C   UNL     1       8.516  20.576  30.190  0.00  0.00    +0.000 C 
BRANCH  12  13
ATOM     13  C   UNL     1       8.012  21.910  30.202  0.00  0.00    +0.000 A 
ATOM     14  C   UNL     1       6.657  22.139  30.439  0.00  0.00    +0.000 A 
ATOM     15  C   UNL     1       8.875  22.982  29.975  0.00  0.00    +0.000 A 
ATOM     16  C   UNL     1       6.162  23.440  30.451  0.00  0.00    +0.000 A 
ATOM     17  C   UNL     1       8.384  24.285  29.986  0.00  0.00    +0.000 A 
ATOM     18  C   UNL     1       7.031  24.503  30.224  0.00  0.00    +0.000 A 
BRANCH  18  19
ATOM     19  O   UNL     1       6.573  25.789  30.229  0.00  0.00    +0.000 OA
ATOM     20  H   UNL     1       7.304  26.374  29.964  0.00  0.00    +0.000 HD
ENDBRANCH  18  19
ENDBRANCH  12  13
ENDBRANCH   1  11
TORSDOF 5
ENDMDL
