MODEL 1
REMARK VINA RESULT:      -6.3      0.000      0.000
REMARK  Name = RetinoicAcid.pdbqt.pdb
REMARK  6 active torsions:
REMARK  status: ('A' for Active; 'I' for Inactive)
REMARK    1  A    between atoms: C_1  and  C_3
REMARK    2  A    between atoms: C_1  and  C_5
REMARK    3  A    between atoms: C_3  and  C_15
REMARK    4  A    between atoms: C_4  and  C_9
REMARK    5  A    between atoms: C_16  and  C_17
REMARK    6  A    between atoms: C_21  and  O_22
REMARK                            x       y       z     vdW  Elec       q    Type
REMARK                         _______ _______ _______ _____ _____    ______ ____
ROOT
ATOM      1  C   UNL     1       7.997  19.481  30.782  0.00  0.00    +0.000 C 
ATOM      2  C   UNL     1       6.919  18.710  31.481  0.00  0.00    +0.000 C 
ENDROOT
BRANCH   1   4
ATOM      3  C   UNL     1      10.340  18.380  30.386  0.00  0.00    +0.000 C 
ATOM      4  C   UNL     1       9.265  18.890  30.563  0.00  0.00    +0.000 C 
BRANCH   3   8
ATOM      5  C   UNL     1      12.931  18.615  30.345  0.00  0.00    +0.000 C 
ATOM      6  C   UNL     1      14.095  17.738  30.082  0.00  0.00    +0.000 C 
ATOM      7  C   UNL     1      14.449  16.311  29.709  0.00  0.00    +0.000 C 
ATOM      8  C   UNL     1      11.628  17.763  30.178  0.00  0.00    +0.000 C 
ATOM      9  C   UNL     1      13.000  15.880  29.653  0.00  0.00    +0.000 C 
ATOM     10  C   UNL     1      11.710  16.451  29.845  0.00  0.00    +0.000 C 
ATOM     11  C   UNL     1      12.907  19.782  29.321  0.00  0.00    +0.000 C 
ATOM     12  C   UNL     1      12.992  19.150  31.804  0.00  0.00    +0.000 C 
ATOM     13  C   UNL     1      10.525  15.542  29.673  0.00  0.00    +0.000 C 
ENDBRANCH   3   8
ENDBRANCH   1   4
BRANCH   1  14
ATOM     14  C   UNL     1       7.784  20.708  30.420  0.00  0.00    +0.000 C 
BRANCH  14  15
ATOM     15  C   UNL     1       7.533  22.159  29.990  0.00  0.00    +0.000 C 
ATOM     16  C   UNL     1       7.339  23.295  29.654  0.00  0.00    +0.000 C 
BRANCH  16  17
ATOM     17  C   UNL     1       7.115  24.634  29.255  0.00  0.00    +0.000 C 
ATOM     18  C   UNL     1       6.199  25.506  30.058  0.00  0.00    +0.000 C 
ATOM     19  C   UNL     1       7.672  25.092  28.185  0.00  0.00    +0.000 C 
ATOM     20  O   UNL     1       9.448  25.997  26.992  0.00  0.00    +0.000 OA
ATOM     21  C   UNL     1       8.302  25.589  27.013  0.00  0.00    +0.000 C 
BRANCH  21  22
ATOM     22  O   UNL     1       7.526  25.549  25.917  0.00  0.00    +0.000 OA
ATOM     23  H   UNL     1       6.615  25.642  26.265  0.00  0.00    +0.000 HD
ENDBRANCH  21  22
ENDBRANCH  16  17
ENDBRANCH  14  15
ENDBRANCH   1  14
TORSDOF 6
ENDMDL
MODEL 2
REMARK VINA RESULT:      -6.0     20.630     23.314
REMARK  Name = RetinoicAcid.pdbqt.pdb
REMARK  6 active torsions:
REMARK  status: ('A' for Active; 'I' for Inactive)
REMARK    1  A    between atoms: C_1  and  C_3
REMARK    2  A    between atoms: C_1  and  C_5
REMARK    3  A    between atoms: C_3  and  C_15
REMARK    4  A    between atoms: C_4  and  C_9
REMARK    5  A    between atoms: C_16  and  C_17
REMARK    6  A    between atoms: C_21  and  O_22
REMARK                            x       y       z     vdW  Elec       q    Type
REMARK                         _______ _______ _______ _____ _____    ______ ____
ROOT
ATOM      1  C   UNL     1      14.340  -0.109  26.338  0.00  0.00    +0.000 C 
ATOM      2  C   UNL     1      13.463   0.377  27.451  0.00  0.00    +0.000 C 
ENDROOT
BRANCH   1   4
ATOM      3  C   UNL     1      13.682  -2.267  25.008  0.00  0.00    +0.000 C 
ATOM      4  C   UNL     1      13.988  -1.274  25.615  0.00  0.00    +0.000 C 
BRANCH   3   8
ATOM      5  C   UNL     1      13.902  -3.716  22.859  0.00  0.00    +0.000 C 
ATOM      6  C   UNL     1      13.361  -5.001  22.357  0.00  0.00    +0.000 C 
ATOM      7  C   UNL     1      12.438  -6.138  22.751  0.00  0.00    +0.000 C 
ATOM      8  C   UNL     1      13.308  -3.459  24.285  0.00  0.00    +0.000 C 
ATOM      9  C   UNL     1      12.115  -5.519  24.094  0.00  0.00    +0.000 C 
ATOM     10  C   UNL     1      12.454  -4.354  24.839  0.00  0.00    +0.000 C 
ATOM     11  C   UNL     1      13.473  -2.559  21.916  0.00  0.00    +0.000 C 
ATOM     12  C   UNL     1      15.450  -3.804  22.972  0.00  0.00    +0.000 C 
ATOM     13  C   UNL     1      11.839  -4.210  26.203  0.00  0.00    +0.000 C 
ENDBRANCH   3   8
ENDBRANCH   1   4
BRANCH   1  14
ATOM     14  C   UNL     1      15.446   0.511  26.069  0.00  0.00    +0.000 C 
BRANCH  14  15
ATOM     15  C   UNL     1      16.756   1.243  25.753  0.00  0.00    +0.000 C 
ATOM     16  C   UNL     1      17.782   1.815  25.507  0.00  0.00    +0.000 C 
BRANCH  16  17
ATOM     17  C   UNL     1      18.995   2.486  25.219  0.00  0.00    +0.000 C 
ATOM     18  C   UNL     1      20.024   2.659  26.295  0.00  0.00    +0.000 C 
ATOM     19  C   UNL     1      19.200   2.976  24.043  0.00  0.00    +0.000 C 
ATOM     20  O   UNL     1      19.816   2.826  21.808  0.00  0.00    +0.000 OA
ATOM     21  C   UNL     1      19.419   3.500  22.741  0.00  0.00    +0.000 C 
BRANCH  21  22
ATOM     22  O   UNL     1      19.128   4.805  22.621  0.00  0.00    +0.000 OA
ATOM     23  H   UNL     1      19.904   5.261  23.008  0.00  0.00    +0.000 HD
ENDBRANCH  21  22
ENDBRANCH  16  17
ENDBRANCH  14  15
ENDBRANCH   1  14
TORSDOF 6
ENDMDL
MODEL 3
REMARK VINA RESULT:      -5.3      7.126     12.341
REMARK  Name = RetinoicAcid.pdbqt.pdb
REMARK  6 active torsions:
REMARK  status: ('A' for Active; 'I' for Inactive)
REMARK    1  A    between atoms: C_1  and  C_3
REMARK    2  A    between atoms: C_1  and  C_5
REMARK    3  A    between atoms: C_3  and  C_15
REMARK    4  A    between atoms: C_4  and  C_9
REMARK    5  A    between atoms: C_16  and  C_17
REMARK    6  A    between atoms: C_21  and  O_22
REMARK                            x       y       z     vdW  Elec       q    Type
REMARK                         _______ _______ _______ _____ _____    ______ ____
ROOT
ATOM      1  C   UNL     1      11.001  31.125  28.591  0.00  0.00    +0.000 C 
ATOM      2  C   UNL     1      10.476  32.107  29.593  0.00  0.00    +0.000 C 
ENDROOT
BRANCH   1   4
ATOM      3  C   UNL     1      12.445  31.950  26.567  0.00  0.00    +0.000 C 
ATOM      4  C   UNL     1      11.785  31.575  27.500  0.00  0.00    +0.000 C 
BRANCH   3   8
ATOM      5  C   UNL     1      14.652  33.011  25.687  0.00  0.00    +0.000 C 
ATOM      6  C   UNL     1      15.231  33.375  24.373  0.00  0.00    +0.000 C 
ATOM      7  C   UNL     1      14.919  33.357  22.890  0.00  0.00    +0.000 C 
ATOM      8  C   UNL     1      13.232  32.398  25.443  0.00  0.00    +0.000 C 
ATOM      9  C   UNL     1      13.557  32.733  23.101  0.00  0.00    +0.000 C 
ATOM     10  C   UNL     1      12.747  32.284  24.182  0.00  0.00    +0.000 C 
ATOM     11  C   UNL     1      14.510  34.279  26.571  0.00  0.00    +0.000 C 
ATOM     12  C   UNL     1      15.543  31.941  26.379  0.00  0.00    +0.000 C 
ATOM     13  C   UNL     1      11.405  31.700  23.837  0.00  0.00    +0.000 C 
ENDBRANCH   3   8
ENDBRANCH   1   4
BRANCH   1  14
ATOM     14  C   UNL     1      10.697  29.870  28.696  0.00  0.00    +0.000 C 
BRANCH  14  15
ATOM     15  C   UNL     1      10.336  28.384  28.818  0.00  0.00    +0.000 C 
ATOM     16  C   UNL     1      10.052  27.222  28.912  0.00  0.00    +0.000 C 
BRANCH  16  17
ATOM     17  C   UNL     1       9.714  25.851  29.019  0.00  0.00    +0.000 C 
ATOM     18  C   UNL     1      10.621  24.917  29.761  0.00  0.00    +0.000 C 
ATOM     19  C   UNL     1       8.645  25.402  28.453  0.00  0.00    +0.000 C 
ATOM     20  O   UNL     1       6.357  25.015  28.342  0.00  0.00    +0.000 OA
ATOM     21  C   UNL     1       7.460  24.922  27.835  0.00  0.00    +0.000 C 
BRANCH  21  22
ATOM     22  O   UNL     1       7.657  24.372  26.626  0.00  0.00    +0.000 OA
ATOM     23  H   UNL     1       7.044  24.860  26.038  0.00  0.00    +0.000 HD
ENDBRANCH  21  22
ENDBRANCH  16  17
ENDBRANCH  14  15
ENDBRANCH   1  14
TORSDOF 6
ENDMDL
MODEL 4
REMARK VINA RESULT:      -5.2      1.934      2.387
REMARK  Name = RetinoicAcid.pdbqt.pdb
REMARK  6 active torsions:
REMARK  status: ('A' for Active; 'I' for Inactive)
REMARK    1  A    between atoms: C_1  and  C_3
REMARK    2  A    between atoms: C_1  and  C_5
REMARK    3  A    between atoms: C_3  and  C_15
REMARK    4  A    between atoms: C_4  and  C_9
REMARK    5  A    between atoms: C_16  and  C_17
REMARK    6  A    between atoms: C_21  and  O_22
REMARK                            x       y       z     vdW  Elec       q    Type
REMARK                         _______ _______ _______ _____ _____    ______ ____
ROOT
ATOM      1  C   UNL     1       7.907  19.236  31.347  0.00  0.00    +0.000 C 
ATOM      2  C   UNL     1       7.000  18.579  32.341  0.00  0.00    +0.000 C 
ENDROOT
BRANCH   1   4
ATOM      3  C   UNL     1      10.188  18.121  30.704  0.00  0.00    +0.000 C 
ATOM      4  C   UNL     1       9.138  18.628  30.998  0.00  0.00    +0.000 C 
BRANCH   3   8
ATOM      5  C   UNL     1      12.761  18.374  30.414  0.00  0.00    +0.000 C 
ATOM      6  C   UNL     1      13.898  17.511  30.015  0.00  0.00    +0.000 C 
ATOM      7  C   UNL     1      14.219  16.097  29.573  0.00  0.00    +0.000 C 
ATOM      8  C   UNL     1      11.452  17.518  30.354  0.00  0.00    +0.000 C 
ATOM      9  C   UNL     1      12.773  15.657  29.649  0.00  0.00    +0.000 C 
ATOM     10  C   UNL     1      11.506  16.215  29.982  0.00  0.00    +0.000 C 
ATOM     11  C   UNL     1      12.632  19.565  29.427  0.00  0.00    +0.000 C 
ATOM     12  C   UNL     1      12.964  18.873  31.873  0.00  0.00    +0.000 C 
ATOM     13  C   UNL     1      10.313  15.303  29.904  0.00  0.00    +0.000 C 
ENDBRANCH   3   8
ENDBRANCH   1   4
BRANCH   1  14
ATOM     14  C   UNL     1       7.588  20.387  30.842  0.00  0.00    +0.000 C 
BRANCH  14  15
ATOM     15  C   UNL     1       7.210  21.749  30.247  0.00  0.00    +0.000 C 
ATOM     16  C   UNL     1       6.912  22.814  29.780  0.00  0.00    +0.000 C 
BRANCH  16  17
ATOM     17  C   UNL     1       6.556  24.069  29.231  0.00  0.00    +0.000 C 
ATOM     18  C   UNL     1       7.387  24.665  28.136  0.00  0.00    +0.000 C 
ATOM     19  C   UNL     1       5.538  24.713  29.694  0.00  0.00    +0.000 C 
ATOM     20  O   UNL     1       3.265  25.167  29.857  0.00  0.00    +0.000 OA
ATOM     21  C   UNL     1       4.407  25.406  30.204  0.00  0.00    +0.000 C 
BRANCH  21  22
ATOM     22  O   UNL     1       4.706  26.337  31.124  0.00  0.00    +0.000 OA
ATOM     23  H   UNL     1       5.262  25.861  31.775  0.00  0.00    +0.000 HD
ENDBRANCH  21  22
ENDBRANCH  16  17
ENDBRANCH  14  15
ENDBRANCH   1  14
TORSDOF 6
ENDMDL
MODEL 5
REMARK VINA RESULT:      -5.1      2.467      5.519
REMARK  Name = RetinoicAcid.pdbqt.pdb
REMARK  6 active torsions:
REMARK  status: ('A' for Active; 'I' for Inactive)
REMARK    1  A    between atoms: C_1  and  C_3
REMARK    2  A    between atoms: C_1  and  C_5
REMARK    3  A    between atoms: C_3  and  C_15
REMARK    4  A    between atoms: C_4  and  C_9
REMARK    5  A    between atoms: C_16  and  C_17
REMARK    6  A    between atoms: C_21  and  O_22
REMARK                            x       y       z     vdW  Elec       q    Type
REMARK                         _______ _______ _______ _____ _____    ______ ____
ROOT
ATOM      1  C   UNL     1       8.790  19.298  30.381  0.00  0.00    +0.000 C 
ATOM      2  C   UNL     1      10.108  18.788  29.886  0.00  0.00    +0.000 C 
ENDROOT
BRANCH   1   4
ATOM      3  C   UNL     1       7.207  17.718  31.743  0.00  0.00    +0.000 C 
ATOM      4  C   UNL     1       7.929  18.446  31.115  0.00  0.00    +0.000 C 
BRANCH   3   8
ATOM      5  C   UNL     1       5.431  15.816  31.753  0.00  0.00    +0.000 C 
ATOM      6  C   UNL     1       4.667  15.051  32.766  0.00  0.00    +0.000 C 
ATOM      7  C   UNL     1       4.473  14.926  34.264  0.00  0.00    +0.000 C 
ATOM      8  C   UNL     1       6.346  16.842  32.502  0.00  0.00    +0.000 C 
ATOM      9  C   UNL     1       5.474  16.020  34.568  0.00  0.00    +0.000 C 
ATOM     10  C   UNL     1       6.334  16.904  33.857  0.00  0.00    +0.000 C 
ATOM     11  C   UNL     1       4.453  16.592  30.829  0.00  0.00    +0.000 C 
ATOM     12  C   UNL     1       6.333  14.852  30.932  0.00  0.00    +0.000 C 
ATOM     13  C   UNL     1       7.180  17.841  34.673  0.00  0.00    +0.000 C 
ENDBRANCH   3   8
ENDBRANCH   1   4
BRANCH   1  14
ATOM     14  C   UNL     1       8.416  20.506  30.095  0.00  0.00    +0.000 C 
BRANCH  14  15
ATOM     15  C   UNL     1       7.976  21.936  29.756  0.00  0.00    +0.000 C 
ATOM     16  C   UNL     1       7.630  23.055  29.493  0.00  0.00    +0.000 C 
BRANCH  16  17
ATOM     17  C   UNL     1       7.224  24.376  29.187  0.00  0.00    +0.000 C 
ATOM     18  C   UNL     1       6.201  25.058  30.044  0.00  0.00    +0.000 C 
ATOM     19  C   UNL     1       7.709  24.979  28.154  0.00  0.00    +0.000 C 
ATOM     20  O   UNL     1       9.340  26.198  27.035  0.00  0.00    +0.000 OA
ATOM     21  C   UNL     1       8.259  25.637  27.023  0.00  0.00    +0.000 C 
BRANCH  21  22
ATOM     22  O   UNL     1       7.491  25.568  25.923  0.00  0.00    +0.000 OA
ATOM     23  H   UNL     1       8.092  25.217  25.233  0.00  0.00    +0.000 HD
ENDBRANCH  21  22
ENDBRANCH  16  17
ENDBRANCH  14  15
ENDBRANCH   1  14
TORSDOF 6
ENDMDL
MODEL 6
REMARK VINA RESULT:      -5.1      2.827      5.096
REMARK  Name = RetinoicAcid.pdbqt.pdb
REMARK  6 active torsions:
REMARK  status: ('A' for Active; 'I' for Inactive)
REMARK    1  A    between atoms: C_1  and  C_3
REMARK    2  A    between atoms: C_1  and  C_5
REMARK    3  A    between atoms: C_3  and  C_15
REMARK    4  A    between atoms: C_4  and  C_9
REMARK    5  A    between atoms: C_16  and  C_17
REMARK    6  A    between atoms: C_21  and  O_22
REMARK                            x       y       z     vdW  Elec       q    Type
REMARK                         _______ _______ _______ _____ _____    ______ ____
ROOT
ATOM      1  C   UNL     1      10.993  17.306  30.001  0.00  0.00    +0.000 C 
ATOM      2  C   UNL     1      12.375  17.542  29.473  0.00  0.00    +0.000 C 
ENDROOT
BRANCH   1   4
ATOM      3  C   UNL     1      10.251  14.886  30.673  0.00  0.00    +0.000 C 
ATOM      4  C   UNL     1      10.588  16.000  30.368  0.00  0.00    +0.000 C 
BRANCH   3   8
ATOM      5  C   UNL     1       8.354  13.249  31.374  0.00  0.00    +0.000 C 
ATOM      6  C   UNL     1       8.229  11.810  31.703  0.00  0.00    +0.000 C 
ATOM      7  C   UNL     1       9.053  10.542  31.823  0.00  0.00    +0.000 C 
ATOM      8  C   UNL     1       9.853  13.547  31.037  0.00  0.00    +0.000 C 
ATOM      9  C   UNL     1      10.337  11.243  31.439  0.00  0.00    +0.000 C 
ATOM     10  C   UNL     1      10.772  12.550  31.081  0.00  0.00    +0.000 C 
ATOM     11  C   UNL     1       7.930  14.108  32.597  0.00  0.00    +0.000 C 
ATOM     12  C   UNL     1       7.487  13.583  30.127  0.00  0.00    +0.000 C 
ATOM     13  C   UNL     1      12.231  12.725  30.763  0.00  0.00    +0.000 C 
ENDBRANCH   3   8
ENDBRANCH   1   4
BRANCH   1  14
ATOM     14  C   UNL     1      10.153  18.290  30.077  0.00  0.00    +0.000 C 
BRANCH  14  15
ATOM     15  C   UNL     1       9.160  19.456  30.166  0.00  0.00    +0.000 C 
ATOM     16  C   UNL     1       8.384  20.370  30.234  0.00  0.00    +0.000 C 
BRANCH  16  17
ATOM     17  C   UNL     1       7.469  21.447  30.309  0.00  0.00    +0.000 C 
ATOM     18  C   UNL     1       6.149  21.256  30.992  0.00  0.00    +0.000 C 
ATOM     19  C   UNL     1       7.757  22.580  29.764  0.00  0.00    +0.000 C 
ATOM     20  O   UNL     1       8.792  24.660  29.715  0.00  0.00    +0.000 OA
ATOM     21  C   UNL     1       8.091  23.827  29.170  0.00  0.00    +0.000 C 
BRANCH  21  22
ATOM     22  O   UNL     1       7.584  23.999  27.939  0.00  0.00    +0.000 OA
ATOM     23  H   UNL     1       6.827  24.607  28.074  0.00  0.00    +0.000 HD
ENDBRANCH  21  22
ENDBRANCH  16  17
ENDBRANCH  14  15
ENDBRANCH   1  14
TORSDOF 6
ENDMDL
MODEL 7
REMARK VINA RESULT:      -5.0     21.597     25.806
REMARK  Name = RetinoicAcid.pdbqt.pdb
REMARK  6 active torsions:
REMARK  status: ('A' for Active; 'I' for Inactive)
REMARK    1  A    between atoms: C_1  and  C_3
REMARK    2  A    between atoms: C_1  and  C_5
REMARK    3  A    between atoms: C_3  and  C_15
REMARK    4  A    between atoms: C_4  and  C_9
REMARK    5  A    between atoms: C_16  and  C_17
REMARK    6  A    between atoms: C_21  and  O_22
REMARK                            x       y       z     vdW  Elec       q    Type
REMARK                         _______ _______ _______ _____ _____    ______ ____
ROOT
ATOM      1  C   UNL     1      19.440  -2.013  20.402  0.00  0.00    +0.000 C 
ATOM      2  C   UNL     1      19.703  -3.318  21.088  0.00  0.00    +0.000 C 
ENDROOT
BRANCH   1   4
ATOM      3  C   UNL     1      19.169  -1.923  17.799  0.00  0.00    +0.000 C 
ATOM      4  C   UNL     1      19.298  -1.967  18.994  0.00  0.00    +0.000 C 
BRANCH   3   8
ATOM      5  C   UNL     1      18.323  -3.053  15.613  0.00  0.00    +0.000 C 
ATOM      6  C   UNL     1      18.286  -2.727  14.168  0.00  0.00    +0.000 C 
ATOM      7  C   UNL     1      18.683  -1.646  13.182  0.00  0.00    +0.000 C 
ATOM      8  C   UNL     1      19.009  -1.863  16.365  0.00  0.00    +0.000 C 
ATOM      9  C   UNL     1      19.264  -0.760  14.262  0.00  0.00    +0.000 C 
ATOM     10  C   UNL     1      19.445  -0.781  15.674  0.00  0.00    +0.000 C 
ATOM     11  C   UNL     1      19.156  -4.343  15.842  0.00  0.00    +0.000 C 
ATOM     12  C   UNL     1      16.875  -3.216  16.155  0.00  0.00    +0.000 C 
ATOM     13  C   UNL     1      20.104   0.418  16.299  0.00  0.00    +0.000 C 
ENDBRANCH   3   8
ENDBRANCH   1   4
BRANCH   1  14
ATOM     14  C   UNL     1      19.390  -0.917  21.093  0.00  0.00    +0.000 C 
BRANCH  14  15
ATOM     15  C   UNL     1      19.333   0.380  21.910  0.00  0.00    +0.000 C 
ATOM     16  C   UNL     1      19.286   1.395  22.549  0.00  0.00    +0.000 C 
BRANCH  16  17
ATOM     17  C   UNL     1      19.229   2.589  23.307  0.00  0.00    +0.000 C 
ATOM     18  C   UNL     1      19.097   3.908  22.609  0.00  0.00    +0.000 C 
ATOM     19  C   UNL     1      19.322   2.544  24.593  0.00  0.00    +0.000 C 
ATOM     20  O   UNL     1      18.465   2.227  26.729  0.00  0.00    +0.000 OA
ATOM     21  C   UNL     1      19.413   2.481  26.009  0.00  0.00    +0.000 C 
BRANCH  21  22
ATOM     22  O   UNL     1      20.648   2.703  26.488  0.00  0.00    +0.000 OA
ATOM     23  H   UNL     1      20.521   3.403  27.162  0.00  0.00    +0.000 HD
ENDBRANCH  21  22
ENDBRANCH  16  17
ENDBRANCH  14  15
ENDBRANCH   1  14
TORSDOF 6
ENDMDL
MODEL 8
REMARK VINA RESULT:      -5.0      4.152      8.707
REMARK  Name = RetinoicAcid.pdbqt.pdb
REMARK  6 active torsions:
REMARK  status: ('A' for Active; 'I' for Inactive)
REMARK    1  A    between atoms: C_1  and  C_3
REMARK    2  A    between atoms: C_1  and  C_5
REMARK    3  A    between atoms: C_3  and  C_15
REMARK    4  A    between atoms: C_4  and  C_9
REMARK    5  A    between atoms: C_16  and  C_17
REMARK    6  A    between atoms: C_21  and  O_22
REMARK                            x       y       z     vdW  Elec       q    Type
REMARK                         _______ _______ _______ _____ _____    ______ ____
ROOT
ATOM      1  C   UNL     1      12.169  21.857  31.644  0.00  0.00    +0.000 C 
ATOM      2  C   UNL     1      12.869  23.056  32.207  0.00  0.00    +0.000 C 
ENDROOT
BRANCH   1   4
ATOM      3  C   UNL     1       9.572  21.903  31.307  0.00  0.00    +0.000 C 
ATOM      4  C   UNL     1      10.765  21.878  31.457  0.00  0.00    +0.000 C 
BRANCH   3   8
ATOM      5  C   UNL     1       7.401  23.317  31.064  0.00  0.00    +0.000 C 
ATOM      6  C   UNL     1       5.955  23.059  30.874  0.00  0.00    +0.000 C 
ATOM      7  C   UNL     1       4.958  21.926  30.726  0.00  0.00    +0.000 C 
ATOM      8  C   UNL     1       8.139  21.938  31.131  0.00  0.00    +0.000 C 
ATOM      9  C   UNL     1       6.027  20.862  30.841  0.00  0.00    +0.000 C 
ATOM     10  C   UNL     1       7.438  20.783  31.018  0.00  0.00    +0.000 C 
ATOM     11  C   UNL     1       7.631  24.078  32.397  0.00  0.00    +0.000 C 
ATOM     12  C   UNL     1       7.958  24.121  29.855  0.00  0.00    +0.000 C 
ATOM     13  C   UNL     1       8.049  19.409  31.056  0.00  0.00    +0.000 C 
ENDBRANCH   3   8
ENDBRANCH   1   4
BRANCH   1  14
ATOM     14  C   UNL     1      12.842  20.783  31.374  0.00  0.00    +0.000 C 
BRANCH  14  15
ATOM     15  C   UNL     1      13.637  19.510  31.054  0.00  0.00    +0.000 C 
ATOM     16  C   UNL     1      14.260  18.515  30.806  0.00  0.00    +0.000 C 
BRANCH  16  17
ATOM     17  C   UNL     1      14.994  17.339  30.518  0.00  0.00    +0.000 C 
ATOM     18  C   UNL     1      16.471  17.305  30.765  0.00  0.00    +0.000 C 
ATOM     19  C   UNL     1      14.398  16.312  30.014  0.00  0.00    +0.000 C 
ATOM     20  O   UNL     1      13.115  14.380  30.150  0.00  0.00    +0.000 OA
ATOM     21  C   UNL     1      13.729  15.182  29.472  0.00  0.00    +0.000 C 
BRANCH  21  22
ATOM     22  O   UNL     1      13.813  15.088  28.135  0.00  0.00    +0.000 OA
ATOM     23  H   UNL     1      13.558  14.161  27.944  0.00  0.00    +0.000 HD
ENDBRANCH  21  22
ENDBRANCH  16  17
ENDBRANCH  14  15
ENDBRANCH   1  14
TORSDOF 6
ENDMDL
MODEL 9
REMARK VINA RESULT:      -5.0     14.614     18.660
REMARK  Name = RetinoicAcid.pdbqt.pdb
REMARK  6 active torsions:
REMARK  status: ('A' for Active; 'I' for Inactive)
REMARK    1  A    between atoms: C_1  and  C_3
REMARK    2  A    between atoms: C_1  and  C_5
REMARK    3  A    between atoms: C_3  and  C_15
REMARK    4  A    between atoms: C_4  and  C_9
REMARK    5  A    between atoms: C_16  and  C_17
REMARK    6  A    between atoms: C_21  and  O_22
REMARK                            x       y       z     vdW  Elec       q    Type
REMARK                         _______ _______ _______ _____ _____    ______ ____
ROOT
ATOM      1  C   UNL     1      27.061  15.199  25.120  0.00  0.00    +0.000 C 
ATOM      2  C   UNL     1      27.809  14.836  26.365  0.00  0.00    +0.000 C 
ENDROOT
BRANCH   1   4
ATOM      3  C   UNL     1      27.830  14.234  22.810  0.00  0.00    +0.000 C 
ATOM      4  C   UNL     1      27.471  14.678  23.868  0.00  0.00    +0.000 C 
BRANCH   3   8
ATOM      5  C   UNL     1      28.197  12.154  21.290  0.00  0.00    +0.000 C 
ATOM      6  C   UNL     1      28.695  11.885  19.921  0.00  0.00    +0.000 C 
ATOM      7  C   UNL     1      29.243  12.590  18.695  0.00  0.00    +0.000 C 
ATOM      8  C   UNL     1      28.266  13.697  21.542  0.00  0.00    +0.000 C 
ATOM      9  C   UNL     1      29.143  13.957  19.336  0.00  0.00    +0.000 C 
ATOM     10  C   UNL     1      28.727  14.526  20.573  0.00  0.00    +0.000 C 
ATOM     11  C   UNL     1      29.096  11.431  22.329  0.00  0.00    +0.000 C 
ATOM     12  C   UNL     1      26.716  11.695  21.414  0.00  0.00    +0.000 C 
ATOM     13  C   UNL     1      28.822  16.021  20.707  0.00  0.00    +0.000 C 
ENDBRANCH   3   8
ENDBRANCH   1   4
BRANCH   1  14
ATOM     14  C   UNL     1      26.067  16.029  25.181  0.00  0.00    +0.000 C 
BRANCH  14  15
ATOM     15  C   UNL     1      24.892  17.013  25.253  0.00  0.00    +0.000 C 
ATOM     16  C   UNL     1      23.974  17.784  25.311  0.00  0.00    +0.000 C 
BRANCH  16  17
ATOM     17  C   UNL     1      22.895  18.697  25.379  0.00  0.00    +0.000 C 
ATOM     18  C   UNL     1      21.560  18.237  25.881  0.00  0.00    +0.000 C 
ATOM     19  C   UNL     1      23.051  19.914  24.978  0.00  0.00    +0.000 C 
ATOM     20  O   UNL     1      23.737  22.117  25.245  0.00  0.00    +0.000 OA
ATOM     21  C   UNL     1      23.239  21.254  24.547  0.00  0.00    +0.000 C 
BRANCH  21  22
ATOM     22  O   UNL     1      22.838  21.484  23.286  0.00  0.00    +0.000 OA
ATOM     23  H   UNL     1      23.594  21.952  22.876  0.00  0.00    +0.000 HD
ENDBRANCH  21  22
ENDBRANCH  16  17
ENDBRANCH  14  15
ENDBRANCH   1  14
TORSDOF 6
ENDMDL
