MODEL 1
REMARK VINA RESULT:      -6.6      0.000      0.000
REMARK  Name = SB_202190.pdbqt.pdb
REMARK  4 active torsions:
REMARK  status: ('A' for Active; 'I' for Inactive)
REMARK    1  A    between atoms: C_4  and  C_7
REMARK    2  A    between atoms: C_5  and  C_19
REMARK    3  A    between atoms: C_6  and  C_8
REMARK    4  A    between atoms: C_15  and  O_26
REMARK                            x       y       z     vdW  Elec       q    Type
REMARK                         _______ _______ _______ _____ _____    ______ ____
ROOT
ATOM      1  N   UNL     1       7.806  24.052  29.553  0.00  0.00    +0.000 N 
ATOM      2  N   UNL     1       6.063  25.066  28.679  0.00  0.00    +0.000 NA
ATOM      3  C   UNL     1       6.714  23.377  30.059  0.00  0.00    +0.000 A 
ATOM      4  C   UNL     1       5.634  24.058  29.514  0.00  0.00    +0.000 A 
ATOM      5  C   UNL     1       7.379  25.053  28.714  0.00  0.00    +0.000 A 
ATOM      6  H   UNL     1       8.774  23.827  29.736  0.00  0.00    +0.000 HD
ENDROOT
BRANCH   4   7
ATOM      7  C   UNL     1       4.224  23.825  29.744  0.00  0.00    +0.000 A 
ATOM      8  C   UNL     1       3.345  24.880  29.998  0.00  0.00    +0.000 A 
ATOM      9  C   UNL     1       1.984  24.642  30.172  0.00  0.00    +0.000 A 
ATOM     10  C   UNL     1       1.504  23.341  30.073  0.00  0.00    +0.000 A 
ATOM     11  F   UNL     1       0.195  23.108  30.244  0.00  0.00    +0.000 F 
ATOM     12  C   UNL     1       2.358  22.279  29.803  0.00  0.00    +0.000 A 
ATOM     13  C   UNL     1       3.718  22.527  29.631  0.00  0.00    +0.000 A 
ENDBRANCH   4   7
BRANCH   3  15
ATOM     14  N   UNL     1       7.170  19.980  32.599  0.00  0.00    +0.000 NA
ATOM     15  C   UNL     1       6.854  22.207  30.921  0.00  0.00    +0.000 A 
ATOM     16  C   UNL     1       7.433  21.034  30.442  0.00  0.00    +0.000 A 
ATOM     17  C   UNL     1       6.445  22.257  32.253  0.00  0.00    +0.000 A 
ATOM     18  C   UNL     1       7.564  19.960  31.308  0.00  0.00    +0.000 A 
ATOM     19  C   UNL     1       6.617  21.129  33.039  0.00  0.00    +0.000 A 
ENDBRANCH   3  15
BRANCH   5  20
ATOM     20  C   UNL     1       8.271  25.949  27.987  0.00  0.00    +0.000 A 
ATOM     21  C   UNL     1       8.324  25.892  26.591  0.00  0.00    +0.000 A 
ATOM     22  C   UNL     1       9.080  26.870  28.657  0.00  0.00    +0.000 A 
ATOM     23  C   UNL     1       9.168  26.737  25.875  0.00  0.00    +0.000 A 
ATOM     24  C   UNL     1       9.928  27.720  27.950  0.00  0.00    +0.000 A 
ATOM     25  C   UNL     1       9.965  27.646  26.564  0.00  0.00    +0.000 A 
BRANCH  25  26
ATOM     26  O   UNL     1      10.802  28.488  25.891  0.00  0.00    +0.000 OA
ATOM     27  H   UNL     1      11.049  29.214  26.490  0.00  0.00    +0.000 HD
ENDBRANCH  25  26
ENDBRANCH   5  20
TORSDOF 4
ENDMDL
MODEL 2
REMARK VINA RESULT:      -6.2     15.345     17.065
REMARK  Name = SB_202190.pdbqt.pdb
REMARK  4 active torsions:
REMARK  status: ('A' for Active; 'I' for Inactive)
REMARK    1  A    between atoms: C_4  and  C_7
REMARK    2  A    between atoms: C_5  and  C_19
REMARK    3  A    between atoms: C_6  and  C_8
REMARK    4  A    between atoms: C_15  and  O_26
REMARK                            x       y       z     vdW  Elec       q    Type
REMARK                         _______ _______ _______ _____ _____    ______ ____
ROOT
ATOM      1  N   UNL     1      -0.047  29.768  15.289  0.00  0.00    +0.000 N 
ATOM      2  N   UNL     1       0.546  28.281  13.783  0.00  0.00    +0.000 NA
ATOM      3  C   UNL     1      -0.854  28.675  15.533  0.00  0.00    +0.000 A 
ATOM      4  C   UNL     1      -0.477  27.770  14.551  0.00  0.00    +0.000 A 
ATOM      5  C   UNL     1       0.794  29.490  14.238  0.00  0.00    +0.000 A 
ATOM      6  H   UNL     1      -0.043  30.627  15.820  0.00  0.00    +0.000 HD
ENDROOT
BRANCH   4   7
ATOM      7  C   UNL     1      -1.032  26.460  14.283  0.00  0.00    +0.000 A 
ATOM      8  C   UNL     1      -0.590  25.328  14.972  0.00  0.00    +0.000 A 
ATOM      9  C   UNL     1      -1.167  24.083  14.735  0.00  0.00    +0.000 A 
ATOM     10  C   UNL     1      -2.204  23.980  13.815  0.00  0.00    +0.000 A 
ATOM     11  F   UNL     1      -2.759  22.783  13.580  0.00  0.00    +0.000 F 
ATOM     12  C   UNL     1      -2.672  25.096  13.132  0.00  0.00    +0.000 A 
ATOM     13  C   UNL     1      -2.087  26.337  13.375  0.00  0.00    +0.000 A 
ENDBRANCH   4   7
BRANCH   3  15
ATOM     14  N   UNL     1      -3.651  28.536  18.752  0.00  0.00    +0.000 NA
ATOM     15  C   UNL     1      -1.800  28.640  16.645  0.00  0.00    +0.000 A 
ATOM     16  C   UNL     1      -2.787  29.615  16.772  0.00  0.00    +0.000 A 
ATOM     17  C   UNL     1      -1.757  27.604  17.578  0.00  0.00    +0.000 A 
ATOM     18  C   UNL     1      -3.675  29.522  17.831  0.00  0.00    +0.000 A 
ATOM     19  C   UNL     1      -2.689  27.601  18.603  0.00  0.00    +0.000 A 
ENDBRANCH   3  15
BRANCH   5  20
ATOM     20  C   UNL     1       1.799  30.416  13.728  0.00  0.00    +0.000 A 
ATOM     21  C   UNL     1       2.619  31.111  14.622  0.00  0.00    +0.000 A 
ATOM     22  C   UNL     1       1.964  30.627  12.356  0.00  0.00    +0.000 A 
ATOM     23  C   UNL     1       3.586  32.000  14.158  0.00  0.00    +0.000 A 
ATOM     24  C   UNL     1       2.928  31.514  11.882  0.00  0.00    +0.000 A 
ATOM     25  C   UNL     1       3.732  32.193  12.789  0.00  0.00    +0.000 A 
BRANCH  25  26
ATOM     26  O   UNL     1       4.670  33.057  12.303  0.00  0.00    +0.000 OA
ATOM     27  H   UNL     1       5.544  32.767  12.619  0.00  0.00    +0.000 HD
ENDBRANCH  25  26
ENDBRANCH   5  20
TORSDOF 4
ENDMDL
MODEL 3
REMARK VINA RESULT:      -6.2     15.564     18.069
REMARK  Name = SB_202190.pdbqt.pdb
REMARK  4 active torsions:
REMARK  status: ('A' for Active; 'I' for Inactive)
REMARK    1  A    between atoms: C_4  and  C_7
REMARK    2  A    between atoms: C_5  and  C_19
REMARK    3  A    between atoms: C_6  and  C_8
REMARK    4  A    between atoms: C_15  and  O_26
REMARK                            x       y       z     vdW  Elec       q    Type
REMARK                         _______ _______ _______ _____ _____    ______ ____
ROOT
ATOM      1  N   UNL     1      21.496  16.209  28.946  0.00  0.00    +0.000 N 
ATOM      2  N   UNL     1      20.919  18.295  28.562  0.00  0.00    +0.000 NA
ATOM      3  C   UNL     1      22.195  16.566  27.811  0.00  0.00    +0.000 A 
ATOM      4  C   UNL     1      21.787  17.872  27.580  0.00  0.00    +0.000 A 
ATOM      5  C   UNL     1      20.749  17.278  29.381  0.00  0.00    +0.000 A 
ATOM      6  H   UNL     1      21.549  15.315  29.414  0.00  0.00    +0.000 HD
ENDROOT
BRANCH   4   7
ATOM      7  C   UNL     1      22.154  18.741  26.481  0.00  0.00    +0.000 A 
ATOM      8  C   UNL     1      21.963  18.353  25.153  0.00  0.00    +0.000 A 
ATOM      9  C   UNL     1      22.279  19.220  24.109  0.00  0.00    +0.000 A 
ATOM     10  C   UNL     1      22.773  20.485  24.404  0.00  0.00    +0.000 A 
ATOM     11  F   UNL     1      23.083  21.320  23.402  0.00  0.00    +0.000 F 
ATOM     12  C   UNL     1      22.954  20.898  25.718  0.00  0.00    +0.000 A 
ATOM     13  C   UNL     1      22.636  20.024  26.755  0.00  0.00    +0.000 A 
ENDBRANCH   4   7
BRANCH   3  15
ATOM     14  N   UNL     1      24.951  13.953  25.868  0.00  0.00    +0.000 NA
ATOM     15  C   UNL     1      23.140  15.661  27.162  0.00  0.00    +0.000 A 
ATOM     16  C   UNL     1      22.705  14.467  26.592  0.00  0.00    +0.000 A 
ATOM     17  C   UNL     1      24.490  15.998  27.068  0.00  0.00    +0.000 A 
ATOM     18  C   UNL     1      23.638  13.655  25.967  0.00  0.00    +0.000 A 
ATOM     19  C   UNL     1      25.344  15.117  26.424  0.00  0.00    +0.000 A 
ENDBRANCH   3  15
BRANCH   5  20
ATOM     20  C   UNL     1      19.907  17.258  30.572  0.00  0.00    +0.000 A 
ATOM     21  C   UNL     1      18.518  17.331  30.440  0.00  0.00    +0.000 A 
ATOM     22  C   UNL     1      20.461  17.167  31.852  0.00  0.00    +0.000 A 
ATOM     23  C   UNL     1      17.693  17.313  31.562  0.00  0.00    +0.000 A 
ATOM     24  C   UNL     1      19.646  17.150  32.981  0.00  0.00    +0.000 A 
ATOM     25  C   UNL     1      18.267  17.222  32.826  0.00  0.00    +0.000 A 
BRANCH  25  26
ATOM     26  O   UNL     1      17.487  17.203  33.946  0.00  0.00    +0.000 OA
ATOM     27  H   UNL     1      17.558  18.070  34.381  0.00  0.00    +0.000 HD
ENDBRANCH  25  26
ENDBRANCH   5  20
TORSDOF 4
ENDMDL
MODEL 4
REMARK VINA RESULT:      -6.1     15.206     16.673
REMARK  Name = SB_202190.pdbqt.pdb
REMARK  4 active torsions:
REMARK  status: ('A' for Active; 'I' for Inactive)
REMARK    1  A    between atoms: C_4  and  C_7
REMARK    2  A    between atoms: C_5  and  C_19
REMARK    3  A    between atoms: C_6  and  C_8
REMARK    4  A    between atoms: C_15  and  O_26
REMARK                            x       y       z     vdW  Elec       q    Type
REMARK                         _______ _______ _______ _____ _____    ______ ____
ROOT
ATOM      1  N   UNL     1       0.407  28.274  14.022  0.00  0.00    +0.000 N 
ATOM      2  N   UNL     1      -0.045  29.794  15.544  0.00  0.00    +0.000 NA
ATOM      3  C   UNL     1      -0.621  27.733  14.767  0.00  0.00    +0.000 A 
ATOM      4  C   UNL     1      -0.861  28.700  15.733  0.00  0.00    +0.000 A 
ATOM      5  C   UNL     1       0.718  29.521  14.507  0.00  0.00    +0.000 A 
ATOM      6  H   UNL     1       0.842  27.842  13.218  0.00  0.00    +0.000 HD
ENDROOT
BRANCH   4   7
ATOM      7  C   UNL     1      -1.802  28.649  16.833  0.00  0.00    +0.000 A 
ATOM      8  C   UNL     1      -2.790  29.624  16.990  0.00  0.00    +0.000 A 
ATOM      9  C   UNL     1      -3.715  29.535  18.026  0.00  0.00    +0.000 A 
ATOM     10  C   UNL     1      -3.657  28.453  18.897  0.00  0.00    +0.000 A 
ATOM     11  F   UNL     1      -4.543  28.365  19.898  0.00  0.00    +0.000 F 
ATOM     12  C   UNL     1      -2.694  27.462  18.748  0.00  0.00    +0.000 A 
ATOM     13  C   UNL     1      -1.772  27.561  17.708  0.00  0.00    +0.000 A 
ENDBRANCH   4   7
BRANCH   3  15
ATOM     14  N   UNL     1      -2.423  23.976  13.853  0.00  0.00    +0.000 NA
ATOM     15  C   UNL     1      -1.225  26.445  14.440  0.00  0.00    +0.000 A 
ATOM     16  C   UNL     1      -0.706  25.261  14.962  0.00  0.00    +0.000 A 
ATOM     17  C   UNL     1      -2.359  26.380  13.631  0.00  0.00    +0.000 A 
ATOM     18  C   UNL     1      -1.330  24.068  14.640  0.00  0.00    +0.000 A 
ATOM     19  C   UNL     1      -2.909  25.137  13.365  0.00  0.00    +0.000 A 
ENDBRANCH   3  15
BRANCH   5  20
ATOM     20  C   UNL     1       1.744  30.388  13.937  0.00  0.00    +0.000 A 
ATOM     21  C   UNL     1       1.853  30.515  12.550  0.00  0.00    +0.000 A 
ATOM     22  C   UNL     1       2.627  31.102  14.753  0.00  0.00    +0.000 A 
ATOM     23  C   UNL     1       2.824  31.338  11.983  0.00  0.00    +0.000 A 
ATOM     24  C   UNL     1       3.602  31.926  14.197  0.00  0.00    +0.000 A 
ATOM     25  C   UNL     1       3.692  32.038  12.815  0.00  0.00    +0.000 A 
BRANCH  25  26
ATOM     26  O   UNL     1       4.654  32.851  12.291  0.00  0.00    +0.000 OA
ATOM     27  H   UNL     1       4.581  33.723  12.717  0.00  0.00    +0.000 HD
ENDBRANCH  25  26
ENDBRANCH   5  20
TORSDOF 4
ENDMDL
MODEL 5
REMARK VINA RESULT:      -6.0     24.882     26.544
REMARK  Name = SB_202190.pdbqt.pdb
REMARK  4 active torsions:
REMARK  status: ('A' for Active; 'I' for Inactive)
REMARK    1  A    between atoms: C_4  and  C_7
REMARK    2  A    between atoms: C_5  and  C_19
REMARK    3  A    between atoms: C_6  and  C_8
REMARK    4  A    between atoms: C_15  and  O_26
REMARK                            x       y       z     vdW  Elec       q    Type
REMARK                         _______ _______ _______ _____ _____    ______ ____
ROOT
ATOM      1  N   UNL     1       4.208  12.936   6.438  0.00  0.00    +0.000 N 
ATOM      2  N   UNL     1       2.416  14.106   6.942  0.00  0.00    +0.000 NA
ATOM      3  C   UNL     1       4.045  13.808   5.380  0.00  0.00    +0.000 A 
ATOM      4  C   UNL     1       2.893  14.507   5.714  0.00  0.00    +0.000 A 
ATOM      5  C   UNL     1       3.219  13.154   7.368  0.00  0.00    +0.000 A 
ATOM      6  H   UNL     1       4.958  12.267   6.539  0.00  0.00    +0.000 HD
ENDROOT
BRANCH   4   7
ATOM      7  C   UNL     1       2.208  15.520   4.939  0.00  0.00    +0.000 A 
ATOM      8  C   UNL     1       2.763  16.039   3.767  0.00  0.00    +0.000 A 
ATOM      9  C   UNL     1       2.070  16.979   3.009  0.00  0.00    +0.000 A 
ATOM     10  C   UNL     1       0.806  17.385   3.422  0.00  0.00    +0.000 A 
ATOM     11  F   UNL     1       0.137  18.292   2.698  0.00  0.00    +0.000 F 
ATOM     12  C   UNL     1       0.227  16.867   4.575  0.00  0.00    +0.000 A 
ATOM     13  C   UNL     1       0.929  15.928   5.327  0.00  0.00    +0.000 A 
ENDBRANCH   4   7
BRANCH   3  15
ATOM     14  N   UNL     1       6.783  14.034   2.117  0.00  0.00    +0.000 NA
ATOM     15  C   UNL     1       4.992  13.870   4.271  0.00  0.00    +0.000 A 
ATOM     16  C   UNL     1       4.826  13.064   3.146  0.00  0.00    +0.000 A 
ATOM     17  C   UNL     1       6.058  14.768   4.301  0.00  0.00    +0.000 A 
ATOM     18  C   UNL     1       5.739  13.179   2.111  0.00  0.00    +0.000 A 
ATOM     19  C   UNL     1       6.918  14.806   3.215  0.00  0.00    +0.000 A 
ENDBRANCH   3  15
BRANCH   5  20
ATOM     20  C   UNL     1       3.104  12.424   8.626  0.00  0.00    +0.000 A 
ATOM     21  C   UNL     1       1.889  12.419   9.316  0.00  0.00    +0.000 A 
ATOM     22  C   UNL     1       4.188  11.724   9.162  0.00  0.00    +0.000 A 
ATOM     23  C   UNL     1       1.755  11.730  10.518  0.00  0.00    +0.000 A 
ATOM     24  C   UNL     1       4.065  11.031  10.364  0.00  0.00    +0.000 A 
ATOM     25  C   UNL     1       2.847  11.040  11.032  0.00  0.00    +0.000 A 
BRANCH  25  26
ATOM     26  O   UNL     1       2.748  10.354  12.208  0.00  0.00    +0.000 OA
ATOM     27  H   UNL     1       2.255  10.905  12.841  0.00  0.00    +0.000 HD
ENDBRANCH  25  26
ENDBRANCH   5  20
TORSDOF 4
ENDMDL
MODEL 6
REMARK VINA RESULT:      -6.0      9.499     12.859
REMARK  Name = SB_202190.pdbqt.pdb
REMARK  4 active torsions:
REMARK  status: ('A' for Active; 'I' for Inactive)
REMARK    1  A    between atoms: C_4  and  C_7
REMARK    2  A    between atoms: C_5  and  C_19
REMARK    3  A    between atoms: C_6  and  C_8
REMARK    4  A    between atoms: C_15  and  O_26
REMARK                            x       y       z     vdW  Elec       q    Type
REMARK                         _______ _______ _______ _____ _____    ______ ____
ROOT
ATOM      1  N   UNL     1      12.539  32.210  24.521  0.00  0.00    +0.000 N 
ATOM      2  N   UNL     1      14.665  32.759  24.632  0.00  0.00    +0.000 NA
ATOM      3  C   UNL     1      12.853  32.143  25.864  0.00  0.00    +0.000 A 
ATOM      4  C   UNL     1      14.203  32.464  25.895  0.00  0.00    +0.000 A 
ATOM      5  C   UNL     1      13.649  32.599  23.810  0.00  0.00    +0.000 A 
ATOM      6  H   UNL     1      11.628  32.040  24.120  0.00  0.00    +0.000 HD
ENDROOT
BRANCH   4   7
ATOM      7  C   UNL     1      15.086  32.496  27.042  0.00  0.00    +0.000 A 
ATOM      8  C   UNL     1      15.301  33.673  27.762  0.00  0.00    +0.000 A 
ATOM      9  C   UNL     1      16.118  33.675  28.890  0.00  0.00    +0.000 A 
ATOM     10  C   UNL     1      16.706  32.486  29.304  0.00  0.00    +0.000 A 
ATOM     11  F   UNL     1      17.497  32.484  30.386  0.00  0.00    +0.000 F 
ATOM     12  C   UNL     1      16.492  31.299  28.612  0.00  0.00    +0.000 A 
ATOM     13  C   UNL     1      15.674  31.308  27.485  0.00  0.00    +0.000 A 
ENDBRANCH   4   7
BRANCH   3  15
ATOM     14  N   UNL     1       9.964  31.263  28.877  0.00  0.00    +0.000 NA
ATOM     15  C   UNL     1      11.853  31.833  26.882  0.00  0.00    +0.000 A 
ATOM     16  C   UNL     1      11.833  30.587  27.504  0.00  0.00    +0.000 A 
ATOM     17  C   UNL     1      10.925  32.796  27.277  0.00  0.00    +0.000 A 
ATOM     18  C   UNL     1      10.878  30.352  28.481  0.00  0.00    +0.000 A 
ATOM     19  C   UNL     1      10.009  32.463  28.262  0.00  0.00    +0.000 A 
ENDBRANCH   3  15
BRANCH   5  20
ATOM     20  C   UNL     1      13.668  32.796  22.365  0.00  0.00    +0.000 A 
ATOM     21  C   UNL     1      14.118  31.769  21.531  0.00  0.00    +0.000 A 
ATOM     22  C   UNL     1      13.241  33.996  21.789  0.00  0.00    +0.000 A 
ATOM     23  C   UNL     1      14.145  31.933  20.148  0.00  0.00    +0.000 A 
ATOM     24  C   UNL     1      13.264  34.171  20.408  0.00  0.00    +0.000 A 
ATOM     25  C   UNL     1      13.715  33.137  19.598  0.00  0.00    +0.000 A 
BRANCH  25  26
ATOM     26  O   UNL     1      13.729  33.329  18.247  0.00  0.00    +0.000 OA
ATOM     27  H   UNL     1      14.654  33.424  17.962  0.00  0.00    +0.000 HD
ENDBRANCH  25  26
ENDBRANCH   5  20
TORSDOF 4
ENDMDL
MODEL 7
REMARK VINA RESULT:      -6.0     23.779     24.877
REMARK  Name = SB_202190.pdbqt.pdb
REMARK  4 active torsions:
REMARK  status: ('A' for Active; 'I' for Inactive)
REMARK    1  A    between atoms: C_4  and  C_7
REMARK    2  A    between atoms: C_5  and  C_19
REMARK    3  A    between atoms: C_6  and  C_8
REMARK    4  A    between atoms: C_15  and  O_26
REMARK                            x       y       z     vdW  Elec       q    Type
REMARK                         _______ _______ _______ _____ _____    ______ ____
ROOT
ATOM      1  N   UNL     1       4.124  12.898   6.959  0.00  0.00    +0.000 N 
ATOM      2  N   UNL     1       3.546  14.873   6.186  0.00  0.00    +0.000 NA
ATOM      3  C   UNL     1       3.114  13.325   7.798  0.00  0.00    +0.000 A 
ATOM      4  C   UNL     1       2.795  14.582   7.303  0.00  0.00    +0.000 A 
ATOM      5  C   UNL     1       4.348  13.847   5.991  0.00  0.00    +0.000 A 
ATOM      6  H   UNL     1       4.601  12.010   7.017  0.00  0.00    +0.000 HD
ENDROOT
BRANCH   4   7
ATOM      7  C   UNL     1       1.835  15.531   7.828  0.00  0.00    +0.000 A 
ATOM      8  C   UNL     1       2.095  16.261   8.989  0.00  0.00    +0.000 A 
ATOM      9  C   UNL     1       1.181  17.203   9.454  0.00  0.00    +0.000 A 
ATOM     10  C   UNL     1       0.008  17.421   8.740  0.00  0.00    +0.000 A 
ATOM     11  F   UNL     1      -0.876  18.323   9.187  0.00  0.00    +0.000 F 
ATOM     12  C   UNL     1      -0.262  16.718   7.572  0.00  0.00    +0.000 A 
ATOM     13  C   UNL     1       0.659  15.778   7.115  0.00  0.00    +0.000 A 
ENDBRANCH   4   7
BRANCH   3  15
ATOM     14  N   UNL     1       1.606  10.936  10.994  0.00  0.00    +0.000 NA
ATOM     15  C   UNL     1       2.597  12.492   8.880  0.00  0.00    +0.000 A 
ATOM     16  C   UNL     1       3.452  11.688   9.631  0.00  0.00    +0.000 A 
ATOM     17  C   UNL     1       1.242  12.519   9.207  0.00  0.00    +0.000 A 
ATOM     18  C   UNL     1       2.915  10.935  10.662  0.00  0.00    +0.000 A 
ATOM     19  C   UNL     1       0.802  11.727  10.255  0.00  0.00    +0.000 A 
ENDBRANCH   3  15
BRANCH   5  20
ATOM     20  C   UNL     1       5.331  13.710   4.922  0.00  0.00    +0.000 A 
ATOM     21  C   UNL     1       5.915  14.852   4.367  0.00  0.00    +0.000 A 
ATOM     22  C   UNL     1       5.706  12.454   4.437  0.00  0.00    +0.000 A 
ATOM     23  C   UNL     1       6.857  14.746   3.346  0.00  0.00    +0.000 A 
ATOM     24  C   UNL     1       6.646  12.337   3.416  0.00  0.00    +0.000 A 
ATOM     25  C   UNL     1       7.215  13.485   2.878  0.00  0.00    +0.000 A 
BRANCH  25  26
ATOM     26  O   UNL     1       8.134  13.348   1.879  0.00  0.00    +0.000 OA
ATOM     27  H   UNL     1       9.019  13.492   2.258  0.00  0.00    +0.000 HD
ENDBRANCH  25  26
ENDBRANCH   5  20
TORSDOF 4
ENDMDL
MODEL 8
REMARK VINA RESULT:      -5.9     19.472     21.763
REMARK  Name = SB_202190.pdbqt.pdb
REMARK  4 active torsions:
REMARK  status: ('A' for Active; 'I' for Inactive)
REMARK    1  A    between atoms: C_4  and  C_7
REMARK    2  A    between atoms: C_5  and  C_19
REMARK    3  A    between atoms: C_6  and  C_8
REMARK    4  A    between atoms: C_15  and  O_26
REMARK                            x       y       z     vdW  Elec       q    Type
REMARK                         _______ _______ _______ _____ _____    ______ ____
ROOT
ATOM      1  N   UNL     1      24.228  14.495  25.568  0.00  0.00    +0.000 N 
ATOM      2  N   UNL     1      23.175  13.408  27.162  0.00  0.00    +0.000 NA
ATOM      3  C   UNL     1      24.634  13.182  25.430  0.00  0.00    +0.000 A 
ATOM      4  C   UNL     1      23.978  12.532  26.465  0.00  0.00    +0.000 A 
ATOM      5  C   UNL     1      23.338  14.592  26.611  0.00  0.00    +0.000 A 
ATOM      6  H   UNL     1      24.507  15.263  24.974  0.00  0.00    +0.000 HD
ENDROOT
BRANCH   4   7
ATOM      7  C   UNL     1      24.073  11.138  26.846  0.00  0.00    +0.000 A 
ATOM      8  C   UNL     1      23.494  10.132  26.070  0.00  0.00    +0.000 A 
ATOM      9  C   UNL     1      23.634   8.793  26.427  0.00  0.00    +0.000 A 
ATOM     10  C   UNL     1      24.374   8.465  27.558  0.00  0.00    +0.000 A 
ATOM     11  F   UNL     1      24.507   7.179  27.907  0.00  0.00    +0.000 F 
ATOM     12  C   UNL     1      24.973   9.450  28.334  0.00  0.00    +0.000 A 
ATOM     13  C   UNL     1      24.826  10.787  27.969  0.00  0.00    +0.000 A 
ENDBRANCH   4   7
BRANCH   3  15
ATOM     14  N   UNL     1      27.219  11.975  22.258  0.00  0.00    +0.000 NA
ATOM     15  C   UNL     1      25.521  12.752  24.353  0.00  0.00    +0.000 A 
ATOM     16  C   UNL     1      25.034  11.998  23.287  0.00  0.00    +0.000 A 
ATOM     17  C   UNL     1      26.865  13.124  24.353  0.00  0.00    +0.000 A 
ATOM     18  C   UNL     1      25.913  11.636  22.279  0.00  0.00    +0.000 A 
ATOM     19  C   UNL     1      27.663  12.710  23.298  0.00  0.00    +0.000 A 
ENDBRANCH   3  15
BRANCH   5  20
ATOM     20  C   UNL     1      22.689  15.832  27.020  0.00  0.00    +0.000 A 
ATOM     21  C   UNL     1      22.548  16.877  26.102  0.00  0.00    +0.000 A 
ATOM     22  C   UNL     1      22.200  16.003  28.318  0.00  0.00    +0.000 A 
ATOM     23  C   UNL     1      21.932  18.071  26.469  0.00  0.00    +0.000 A 
ATOM     24  C   UNL     1      21.582  17.192  28.696  0.00  0.00    +0.000 A 
ATOM     25  C   UNL     1      21.453  18.217  27.767  0.00  0.00    +0.000 A 
BRANCH  25  26
ATOM     26  O   UNL     1      20.844  19.374  28.158  0.00  0.00    +0.000 OA
ATOM     27  H   UNL     1      19.976  19.149  28.537  0.00  0.00    +0.000 HD
ENDBRANCH  25  26
ENDBRANCH   5  20
TORSDOF 4
ENDMDL
MODEL 9
REMARK VINA RESULT:      -5.8     17.874     19.101
REMARK  Name = SB_202190.pdbqt.pdb
REMARK  4 active torsions:
REMARK  status: ('A' for Active; 'I' for Inactive)
REMARK    1  A    between atoms: C_4  and  C_7
REMARK    2  A    between atoms: C_5  and  C_19
REMARK    3  A    between atoms: C_6  and  C_8
REMARK    4  A    between atoms: C_15  and  O_26
REMARK                            x       y       z     vdW  Elec       q    Type
REMARK                         _______ _______ _______ _____ _____    ______ ____
ROOT
ATOM      1  N   UNL     1      23.106  16.079  25.808  0.00  0.00    +0.000 N 
ATOM      2  N   UNL     1      23.031  17.199  27.698  0.00  0.00    +0.000 NA
ATOM      3  C   UNL     1      23.058  15.111  26.791  0.00  0.00    +0.000 A 
ATOM      4  C   UNL     1      23.043  15.848  27.967  0.00  0.00    +0.000 A 
ATOM      5  C   UNL     1      23.072  17.324  26.388  0.00  0.00    +0.000 A 
ATOM      6  H   UNL     1      23.122  15.906  24.812  0.00  0.00    +0.000 HD
ENDROOT
BRANCH   4   7
ATOM      7  C   UNL     1      23.054  15.356  29.329  0.00  0.00    +0.000 A 
ATOM      8  C   UNL     1      24.078  14.529  29.795  0.00  0.00    +0.000 A 
ATOM      9  C   UNL     1      24.097  14.103  31.120  0.00  0.00    +0.000 A 
ATOM     10  C   UNL     1      23.092  14.523  31.983  0.00  0.00    +0.000 A 
ATOM     11  F   UNL     1      23.104  14.111  33.258  0.00  0.00    +0.000 F 
ATOM     12  C   UNL     1      22.073  15.361  31.545  0.00  0.00    +0.000 A 
ATOM     13  C   UNL     1      22.063  15.781  30.217  0.00  0.00    +0.000 A 
ENDBRANCH   4   7
BRANCH   3  15
ATOM     14  N   UNL     1      22.913  10.937  25.924  0.00  0.00    +0.000 NA
ATOM     15  C   UNL     1      22.999  13.686  26.478  0.00  0.00    +0.000 A 
ATOM     16  C   UNL     1      23.934  13.105  25.624  0.00  0.00    +0.000 A 
ATOM     17  C   UNL     1      22.027  12.874  27.062  0.00  0.00    +0.000 A 
ATOM     18  C   UNL     1      23.847  11.744  25.379  0.00  0.00    +0.000 A 
ATOM     19  C   UNL     1      22.024  11.524  26.751  0.00  0.00    +0.000 A 
ENDBRANCH   3  15
BRANCH   5  20
ATOM     20  C   UNL     1      23.081  18.576  25.639  0.00  0.00    +0.000 A 
ATOM     21  C   UNL     1      22.627  18.597  24.318  0.00  0.00    +0.000 A 
ATOM     22  C   UNL     1      23.535  19.765  26.217  0.00  0.00    +0.000 A 
ATOM     23  C   UNL     1      22.626  19.781  23.584  0.00  0.00    +0.000 A 
ATOM     24  C   UNL     1      23.538  20.954  25.492  0.00  0.00    +0.000 A 
ATOM     25  C   UNL     1      23.083  20.952  24.180  0.00  0.00    +0.000 A 
BRANCH  25  26
ATOM     26  O   UNL     1      23.094  22.128  23.487  0.00  0.00    +0.000 OA
ATOM     27  H   UNL     1      23.226  21.924  22.545  0.00  0.00    +0.000 HD
ENDBRANCH  25  26
ENDBRANCH   5  20
TORSDOF 4
ENDMDL
