MODEL 1
REMARK VINA RESULT:      -7.2      0.000      0.000
REMARK  Name = Simvastatin.pdbqt.pdb
REMARK  7 active torsions:
REMARK  status: ('A' for Active; 'I' for Inactive)
REMARK    1  A    between atoms: C_2  and  C_13
REMARK    2  A    between atoms: C_3  and  O_24
REMARK    3  A    between atoms: C_14  and  C_15
REMARK    4  A    between atoms: C_20  and  O_22
REMARK    5  A    between atoms: O_24  and  C_25
REMARK    6  A    between atoms: C_25  and  C_27
REMARK    7  A    between atoms: C_27  and  C_30
REMARK                            x       y       z     vdW  Elec       q    Type
REMARK                         _______ _______ _______ _____ _____    ______ ____
ROOT
ATOM      1  C   UNL     1       9.558  17.917  30.290  0.00  0.00    +0.000 A 
ATOM      2  C   UNL     1       8.453  18.783  30.857  0.00  0.00    +0.000 A 
ATOM      3  C   UNL     1      10.857  18.423  29.721  0.00  0.00    +0.000 A 
ATOM      4  C   UNL     1       7.359  18.160  31.651  0.00  0.00    +0.000 A 
ATOM      5  C   UNL     1       9.360  16.389  30.382  0.00  0.00    +0.000 A 
ATOM      6  C   UNL     1      11.737  17.344  29.364  0.00  0.00    +0.000 A 
ATOM      7  C   UNL     1      11.656  15.919  29.472  0.00  0.00    +0.000 A 
ATOM      8  C   UNL     1      10.366  15.649  30.022  0.00  0.00    +0.000 A 
ATOM      9  C   UNL     1       7.462  16.740  31.690  0.00  0.00    +0.000 A 
ATOM     10  C   UNL     1       8.263  16.005  31.185  0.00  0.00    +0.000 A 
ATOM     11  C   UNL     1       6.214  18.872  32.304  0.00  0.00    +0.000 C 
ATOM     12  C   UNL     1      12.848  15.137  29.922  0.00  0.00    +0.000 C 
ENDROOT
BRANCH   2  13
ATOM     13  C   UNL     1       8.356  20.143  30.443  0.00  0.00    +0.000 C 
ATOM     14  C   UNL     1       8.193  21.589  29.957  0.00  0.00    +0.000 C 
BRANCH  14  15
ATOM     15  C   UNL     1       7.981  22.909  29.494  0.00  0.00    +0.000 C 
ATOM     16  O   UNL     1       9.142  23.717  29.208  0.00  0.00    +0.000 OA
ATOM     17  C   UNL     1       8.997  25.046  28.798  0.00  0.00    +0.000 C 
ATOM     18  O   UNL     1       9.933  25.788  28.540  0.00  0.00    +0.000 OA
ATOM     19  C   UNL     1       7.628  25.488  28.709  0.00  0.00    +0.000 C 
ATOM     20  C   UNL     1       6.388  24.859  28.954  0.00  0.00    +0.000 C 
ATOM     21  C   UNL     1       6.719  23.543  29.348  0.00  0.00    +0.000 C 
BRANCH  20  22
ATOM     22  O   UNL     1       5.332  25.547  29.475  0.00  0.00    +0.000 OA
ATOM     23  H   UNL     1       5.521  26.499  29.579  0.00  0.00    +0.000 HD
ENDBRANCH  20  22
ENDBRANCH  14  15
ENDBRANCH   2  13
BRANCH   3  24
ATOM     24  O   UNL     1      11.401  19.530  30.378  0.00  0.00    +0.000 OA
BRANCH  24  25
ATOM     25  C   UNL     1      12.740  19.715  30.084  0.00  0.00    +0.000 C 
ATOM     26  O   UNL     1      13.158  19.976  28.954  0.00  0.00    +0.000 OA
BRANCH  25  27
ATOM     27  C   UNL     1      13.627  19.524  31.363  0.00  0.00    +0.000 C 
ATOM     28  C   UNL     1      12.716  19.083  32.569  0.00  0.00    +0.000 C 
ATOM     29  C   UNL     1      14.360  20.872  31.750  0.00  0.00    +0.000 C 
BRANCH  27  30
ATOM     30  C   UNL     1      14.641  18.480  31.046  0.00  0.00    +0.000 C 
ATOM     31  C   UNL     1      15.694  17.370  30.758  0.00  0.00    +0.000 C 
ENDBRANCH  27  30
ENDBRANCH  25  27
ENDBRANCH  24  25
ENDBRANCH   3  24
TORSDOF 7
ENDMDL
MODEL 2
REMARK VINA RESULT:      -6.9      1.732      2.732
REMARK  Name = Simvastatin.pdbqt.pdb
REMARK  7 active torsions:
REMARK  status: ('A' for Active; 'I' for Inactive)
REMARK    1  A    between atoms: C_2  and  C_13
REMARK    2  A    between atoms: C_3  and  O_24
REMARK    3  A    between atoms: C_14  and  C_15
REMARK    4  A    between atoms: C_20  and  O_22
REMARK    5  A    between atoms: O_24  and  C_25
REMARK    6  A    between atoms: C_25  and  C_27
REMARK    7  A    between atoms: C_27  and  C_30
REMARK                            x       y       z     vdW  Elec       q    Type
REMARK                         _______ _______ _______ _____ _____    ______ ____
ROOT
ATOM      1  C   UNL     1      10.599  18.357  30.142  0.00  0.00    +0.000 A 
ATOM      2  C   UNL     1       9.229  18.789  30.619  0.00  0.00    +0.000 A 
ATOM      3  C   UNL     1      11.781  19.269  29.945  0.00  0.00    +0.000 A 
ATOM      4  C   UNL     1       8.240  17.765  31.052  0.00  0.00    +0.000 A 
ATOM      5  C   UNL     1      10.813  16.845  29.918  0.00  0.00    +0.000 A 
ATOM      6  C   UNL     1      12.965  18.536  29.587  0.00  0.00    +0.000 A 
ATOM      7  C   UNL     1      13.259  17.145  29.421  0.00  0.00    +0.000 A 
ATOM      8  C   UNL     1      12.024  16.463  29.642  0.00  0.00    +0.000 A 
ATOM      9  C   UNL     1       8.718  16.437  30.858  0.00  0.00    +0.000 A 
ATOM     10  C   UNL     1       9.755  16.043  30.401  0.00  0.00    +0.000 A 
ATOM     11  C   UNL     1       6.860  18.021  31.577  0.00  0.00    +0.000 C 
ATOM     12  C   UNL     1      14.538  16.585  29.956  0.00  0.00    +0.000 C 
ENDROOT
BRANCH   2  13
ATOM     13  C   UNL     1       8.828  20.145  30.442  0.00  0.00    +0.000 C 
ATOM     14  C   UNL     1       8.415  21.599  30.182  0.00  0.00    +0.000 C 
BRANCH  14  15
ATOM     15  C   UNL     1       8.030  22.927  29.879  0.00  0.00    +0.000 C 
ATOM     16  O   UNL     1       8.060  23.338  28.496  0.00  0.00    +0.000 OA
ATOM     17  C   UNL     1       7.742  24.652  28.140  0.00  0.00    +0.000 C 
ATOM     18  O   UNL     1       7.747  25.070  26.992  0.00  0.00    +0.000 OA
ATOM     19  C   UNL     1       7.407  25.499  29.258  0.00  0.00    +0.000 C 
ATOM     20  C   UNL     1       7.335  25.283  30.651  0.00  0.00    +0.000 C 
ATOM     21  C   UNL     1       7.678  23.924  30.827  0.00  0.00    +0.000 C 
BRANCH  20  22
ATOM     22  O   UNL     1       7.681  26.257  31.540  0.00  0.00    +0.000 OA
ATOM     23  H   UNL     1       7.549  27.156  31.181  0.00  0.00    +0.000 HD
ENDBRANCH  20  22
ENDBRANCH  14  15
ENDBRANCH   2  13
BRANCH   3  24
ATOM     24  O   UNL     1      11.900  20.297  30.886  0.00  0.00    +0.000 OA
BRANCH  24  25
ATOM     25  C   UNL     1      12.458  21.442  30.349  0.00  0.00    +0.000 C 
ATOM     26  O   UNL     1      13.028  21.475  29.257  0.00  0.00    +0.000 OA
BRANCH  25  27
ATOM     27  C   UNL     1      12.285  22.660  31.323  0.00  0.00    +0.000 C 
ATOM     28  C   UNL     1      13.685  23.043  31.935  0.00  0.00    +0.000 C 
ATOM     29  C   UNL     1      11.297  22.303  32.506  0.00  0.00    +0.000 C 
BRANCH  27  30
ATOM     30  C   UNL     1      11.720  23.785  30.527  0.00  0.00    +0.000 C 
ATOM     31  C   UNL     1      11.109  24.979  29.735  0.00  0.00    +0.000 C 
ENDBRANCH  27  30
ENDBRANCH  25  27
ENDBRANCH  24  25
ENDBRANCH   3  24
TORSDOF 7
ENDMDL
MODEL 3
REMARK VINA RESULT:      -6.6     19.411     21.913
REMARK  Name = Simvastatin.pdbqt.pdb
REMARK  7 active torsions:
REMARK  status: ('A' for Active; 'I' for Inactive)
REMARK    1  A    between atoms: C_2  and  C_13
REMARK    2  A    between atoms: C_3  and  O_24
REMARK    3  A    between atoms: C_14  and  C_15
REMARK    4  A    between atoms: C_20  and  O_22
REMARK    5  A    between atoms: O_24  and  C_25
REMARK    6  A    between atoms: C_25  and  C_27
REMARK    7  A    between atoms: C_27  and  C_30
REMARK                            x       y       z     vdW  Elec       q    Type
REMARK                         _______ _______ _______ _____ _____    ______ ____
ROOT
ATOM      1  C   UNL     1      -0.106  27.503  13.160  0.00  0.00    +0.000 A 
ATOM      2  C   UNL     1       0.036  28.658  12.193  0.00  0.00    +0.000 A 
ATOM      3  C   UNL     1       0.291  27.527  14.613  0.00  0.00    +0.000 A 
ATOM      4  C   UNL     1      -0.656  28.610  10.877  0.00  0.00    +0.000 A 
ATOM      5  C   UNL     1      -0.788  26.226  12.623  0.00  0.00    +0.000 A 
ATOM      6  C   UNL     1      -0.071  26.308  15.284  0.00  0.00    +0.000 A 
ATOM      7  C   UNL     1      -0.751  25.116  14.878  0.00  0.00    +0.000 A 
ATOM      8  C   UNL     1      -1.032  25.288  13.489  0.00  0.00    +0.000 A 
ATOM      9  C   UNL     1      -1.319  27.368  10.660  0.00  0.00    +0.000 A 
ATOM     10  C   UNL     1      -1.385  26.391  11.354  0.00  0.00    +0.000 A 
ATOM     11  C   UNL     1      -0.645  29.675   9.823  0.00  0.00    +0.000 C 
ATOM     12  C   UNL     1      -1.765  24.493  15.783  0.00  0.00    +0.000 C 
ENDROOT
BRANCH   2  13
ATOM     13  C   UNL     1       0.999  29.674  12.463  0.00  0.00    +0.000 C 
ATOM     14  C   UNL     1       1.988  30.798  12.798  0.00  0.00    +0.000 C 
BRANCH  14  15
ATOM     15  C   UNL     1       2.866  31.846  13.161  0.00  0.00    +0.000 C 
ATOM     16  O   UNL     1       3.555  32.544  12.102  0.00  0.00    +0.000 OA
ATOM     17  C   UNL     1       4.476  33.554  12.401  0.00  0.00    +0.000 C 
ATOM     18  O   UNL     1       5.095  34.186  11.558  0.00  0.00    +0.000 OA
ATOM     19  C   UNL     1       4.649  33.792  13.812  0.00  0.00    +0.000 C 
ATOM     20  C   UNL     1       4.083  33.215  14.969  0.00  0.00    +0.000 C 
ATOM     21  C   UNL     1       3.189  32.234  14.488  0.00  0.00    +0.000 C 
BRANCH  20  22
ATOM     22  O   UNL     1       4.809  33.061  16.114  0.00  0.00    +0.000 OA
ATOM     23  H   UNL     1       4.787  32.144  16.450  0.00  0.00    +0.000 HD
ENDBRANCH  20  22
ENDBRANCH  14  15
ENDBRANCH   2  13
BRANCH   3  24
ATOM     24  O   UNL     1       0.056  28.738  15.271  0.00  0.00    +0.000 OA
BRANCH  24  25
ATOM     25  C   UNL     1      -0.964  28.645  16.201  0.00  0.00    +0.000 C 
ATOM     26  O   UNL     1      -0.848  28.064  17.283  0.00  0.00    +0.000 OA
BRANCH  25  27
ATOM     27  C   UNL     1      -2.264  29.350  15.680  0.00  0.00    +0.000 C 
ATOM     28  C   UNL     1      -1.876  30.436  14.608  0.00  0.00    +0.000 C 
ATOM     29  C   UNL     1      -3.037  30.061  16.864  0.00  0.00    +0.000 C 
BRANCH  27  30
ATOM     30  C   UNL     1      -3.131  28.294  15.085  0.00  0.00    +0.000 C 
ATOM     31  C   UNL     1      -3.999  27.178  14.434  0.00  0.00    +0.000 C 
ENDBRANCH  27  30
ENDBRANCH  25  27
ENDBRANCH  24  25
ENDBRANCH   3  24
TORSDOF 7
ENDMDL
MODEL 4
REMARK VINA RESULT:      -6.5     24.364     26.227
REMARK  Name = Simvastatin.pdbqt.pdb
REMARK  7 active torsions:
REMARK  status: ('A' for Active; 'I' for Inactive)
REMARK    1  A    between atoms: C_2  and  C_13
REMARK    2  A    between atoms: C_3  and  O_24
REMARK    3  A    between atoms: C_14  and  C_15
REMARK    4  A    between atoms: C_20  and  O_22
REMARK    5  A    between atoms: O_24  and  C_25
REMARK    6  A    between atoms: C_25  and  C_27
REMARK    7  A    between atoms: C_27  and  C_30
REMARK                            x       y       z     vdW  Elec       q    Type
REMARK                         _______ _______ _______ _____ _____    ______ ____
ROOT
ATOM      1  C   UNL     1       1.726  15.824   4.901  0.00  0.00    +0.000 A 
ATOM      2  C   UNL     1       2.970  15.110   5.385  0.00  0.00    +0.000 A 
ATOM      3  C   UNL     1       0.501  16.101   5.732  0.00  0.00    +0.000 A 
ATOM      4  C   UNL     1       4.214  15.156   4.570  0.00  0.00    +0.000 A 
ATOM      5  C   UNL     1       1.759  16.379   3.461  0.00  0.00    +0.000 A 
ATOM      6  C   UNL     1      -0.461  16.891   5.012  0.00  0.00    +0.000 A 
ATOM      7  C   UNL     1      -0.482  17.489   3.712  0.00  0.00    +0.000 A 
ATOM      8  C   UNL     1       0.748  17.109   3.095  0.00  0.00    +0.000 A 
ATOM      9  C   UNL     1       4.022  15.830   3.329  0.00  0.00    +0.000 A 
ATOM     10  C   UNL     1       3.038  16.331   2.862  0.00  0.00    +0.000 A 
ATOM     11  C   UNL     1       5.532  14.534   4.916  0.00  0.00    +0.000 C 
ATOM     12  C   UNL     1      -1.017  18.874   3.539  0.00  0.00    +0.000 C 
ENDROOT
BRANCH   2  13
ATOM     13  C   UNL     1       2.873  14.225   6.499  0.00  0.00    +0.000 C 
ATOM     14  C   UNL     1       2.825  13.308   7.727  0.00  0.00    +0.000 C 
BRANCH  14  15
ATOM     15  C   UNL     1       2.814  12.507   8.894  0.00  0.00    +0.000 C 
ATOM     16  O   UNL     1       1.634  12.541   9.723  0.00  0.00    +0.000 OA
ATOM     17  C   UNL     1       1.585  11.812  10.916  0.00  0.00    +0.000 C 
ATOM     18  O   UNL     1       0.621  11.794  11.667  0.00  0.00    +0.000 OA
ATOM     19  C   UNL     1       2.789  11.073  11.203  0.00  0.00    +0.000 C 
ATOM     20  C   UNL     1       4.021  10.929  10.531  0.00  0.00    +0.000 C 
ATOM     21  C   UNL     1       3.896  11.717   9.365  0.00  0.00    +0.000 C 
BRANCH  20  22
ATOM     22  O   UNL     1       5.194  10.799  11.216  0.00  0.00    +0.000 OA
ATOM     23  H   UNL     1       5.816  10.185  10.780  0.00  0.00    +0.000 HD
ENDBRANCH  20  22
ENDBRANCH  14  15
ENDBRANCH   2  13
BRANCH   3  24
ATOM     24  O   UNL     1       0.752  16.423   7.069  0.00  0.00    +0.000 OA
BRANCH  24  25
ATOM     25  C   UNL     1      -0.131  15.806   7.936  0.00  0.00    +0.000 C 
ATOM     26  O   UNL     1      -0.563  14.663   7.769  0.00  0.00    +0.000 OA
BRANCH  25  27
ATOM     27  C   UNL     1      -0.511  16.759   9.121  0.00  0.00    +0.000 C 
ATOM     28  C   UNL     1       0.715  16.887  10.102  0.00  0.00    +0.000 C 
ATOM     29  C   UNL     1      -1.748  16.194   9.929  0.00  0.00    +0.000 C 
BRANCH  27  30
ATOM     30  C   UNL     1      -0.865  18.080   8.530  0.00  0.00    +0.000 C 
ATOM     31  C   UNL     1      -1.233  19.480   7.956  0.00  0.00    +0.000 C 
ENDBRANCH  27  30
ENDBRANCH  25  27
ENDBRANCH  24  25
ENDBRANCH   3  24
TORSDOF 7
ENDMDL
MODEL 5
REMARK VINA RESULT:      -6.4     21.318     25.811
REMARK  Name = Simvastatin.pdbqt.pdb
REMARK  7 active torsions:
REMARK  status: ('A' for Active; 'I' for Inactive)
REMARK    1  A    between atoms: C_2  and  C_13
REMARK    2  A    between atoms: C_3  and  O_24
REMARK    3  A    between atoms: C_14  and  C_15
REMARK    4  A    between atoms: C_20  and  O_22
REMARK    5  A    between atoms: O_24  and  C_25
REMARK    6  A    between atoms: C_25  and  C_27
REMARK    7  A    between atoms: C_27  and  C_30
REMARK                            x       y       z     vdW  Elec       q    Type
REMARK                         _______ _______ _______ _____ _____    ______ ____
ROOT
ATOM      1  C   UNL     1      19.387  -1.577  17.484  0.00  0.00    +0.000 A 
ATOM      2  C   UNL     1      19.526  -1.974  18.938  0.00  0.00    +0.000 A 
ATOM      3  C   UNL     1      19.702  -0.218  16.916  0.00  0.00    +0.000 A 
ATOM      4  C   UNL     1      19.468  -3.410  19.321  0.00  0.00    +0.000 A 
ATOM      5  C   UNL     1      18.963  -2.686  16.498  0.00  0.00    +0.000 A 
ATOM      6  C   UNL     1      19.568  -0.195  15.485  0.00  0.00    +0.000 A 
ATOM      7  C   UNL     1      19.242  -1.182  14.503  0.00  0.00    +0.000 A 
ATOM      8  C   UNL     1      18.977  -2.379  15.235  0.00  0.00    +0.000 A 
ATOM      9  C   UNL     1      19.179  -4.254  18.210  0.00  0.00    +0.000 A 
ATOM     10  C   UNL     1      18.972  -3.981  17.061  0.00  0.00    +0.000 A 
ATOM     11  C   UNL     1      19.617  -3.972  20.701  0.00  0.00    +0.000 C 
ATOM     12  C   UNL     1      20.007  -1.236  13.219  0.00  0.00    +0.000 C 
ENDROOT
BRANCH   2  13
ATOM     13  C   UNL     1      19.492  -0.960  19.940  0.00  0.00    +0.000 C 
ATOM     14  C   UNL     1      19.422   0.083  21.062  0.00  0.00    +0.000 C 
BRANCH  14  15
ATOM     15  C   UNL     1      19.347   0.998  22.139  0.00  0.00    +0.000 C 
ATOM     16  O   UNL     1      19.332   2.406  21.827  0.00  0.00    +0.000 OA
ATOM     17  C   UNL     1      19.312   3.359  22.850  0.00  0.00    +0.000 C 
ATOM     18  O   UNL     1      19.299   4.566  22.661  0.00  0.00    +0.000 OA
ATOM     19  C   UNL     1      19.317   2.796  24.177  0.00  0.00    +0.000 C 
ATOM     20  C   UNL     1      19.341   1.473  24.669  0.00  0.00    +0.000 C 
ATOM     21  C   UNL     1      19.354   0.656  23.517  0.00  0.00    +0.000 C 
BRANCH  20  22
ATOM     22  O   UNL     1      20.008   1.153  25.815  0.00  0.00    +0.000 OA
ATOM     23  H   UNL     1      19.889   0.217  26.068  0.00  0.00    +0.000 HD
ENDBRANCH  20  22
ENDBRANCH  14  15
ENDBRANCH   2  13
BRANCH   3  24
ATOM     24  O   UNL     1      20.808   0.420  17.487  0.00  0.00    +0.000 OA
BRANCH  24  25
ATOM     25  C   UNL     1      21.881   0.496  16.617  0.00  0.00    +0.000 C 
ATOM     26  O   UNL     1      21.927   1.270  15.659  0.00  0.00    +0.000 OA
BRANCH  25  27
ATOM     27  C   UNL     1      22.993  -0.539  17.008  0.00  0.00    +0.000 C 
ATOM     28  C   UNL     1      24.394  -0.007  16.522  0.00  0.00    +0.000 C 
ATOM     29  C   UNL     1      22.723  -1.943  16.332  0.00  0.00    +0.000 C 
BRANCH  27  30
ATOM     30  C   UNL     1      22.959  -0.686  18.490  0.00  0.00    +0.000 C 
ATOM     31  C   UNL     1      22.884  -0.810  20.040  0.00  0.00    +0.000 C 
ENDBRANCH  27  30
ENDBRANCH  25  27
ENDBRANCH  24  25
ENDBRANCH   3  24
TORSDOF 7
ENDMDL
MODEL 6
REMARK VINA RESULT:      -6.3      1.793      3.000
REMARK  Name = Simvastatin.pdbqt.pdb
REMARK  7 active torsions:
REMARK  status: ('A' for Active; 'I' for Inactive)
REMARK    1  A    between atoms: C_2  and  C_13
REMARK    2  A    between atoms: C_3  and  O_24
REMARK    3  A    between atoms: C_14  and  C_15
REMARK    4  A    between atoms: C_20  and  O_22
REMARK    5  A    between atoms: O_24  and  C_25
REMARK    6  A    between atoms: C_25  and  C_27
REMARK    7  A    between atoms: C_27  and  C_30
REMARK                            x       y       z     vdW  Elec       q    Type
REMARK                         _______ _______ _______ _____ _____    ______ ____
ROOT
ATOM      1  C   UNL     1       9.619  20.068  30.483  0.00  0.00    +0.000 A 
ATOM      2  C   UNL     1       8.778  21.281  30.819  0.00  0.00    +0.000 A 
ATOM      3  C   UNL     1      11.092  20.088  30.171  0.00  0.00    +0.000 A 
ATOM      4  C   UNL     1       7.417  21.101  31.392  0.00  0.00    +0.000 A 
ATOM      5  C   UNL     1       8.917  18.695  30.548  0.00  0.00    +0.000 A 
ATOM      6  C   UNL     1      11.618  18.761  30.000  0.00  0.00    +0.000 A 
ATOM      7  C   UNL     1      11.054  17.449  30.102  0.00  0.00    +0.000 A 
ATOM      8  C   UNL     1       9.671  17.648  30.395  0.00  0.00    +0.000 A 
ATOM      9  C   UNL     1       7.038  19.730  31.463  0.00  0.00    +0.000 A 
ATOM     10  C   UNL     1       7.629  18.742  31.127  0.00  0.00    +0.000 A 
ATOM     11  C   UNL     1       6.472  22.187  31.806  0.00  0.00    +0.000 C 
ATOM     12  C   UNL     1      11.821  16.360  30.780  0.00  0.00    +0.000 C 
ENDROOT
BRANCH   2  13
ATOM     13  C   UNL     1       9.210  22.568  30.382  0.00  0.00    +0.000 C 
ATOM     14  C   UNL     1       9.680  23.925  29.844  0.00  0.00    +0.000 C 
BRANCH  14  15
ATOM     15  C   UNL     1      10.097  25.158  29.289  0.00  0.00    +0.000 C 
ATOM     16  O   UNL     1       9.315  25.708  28.208  0.00  0.00    +0.000 OA
ATOM     17  C   UNL     1       9.707  26.896  27.583  0.00  0.00    +0.000 C 
ATOM     18  O   UNL     1       9.096  27.420  26.664  0.00  0.00    +0.000 OA
ATOM     19  C   UNL     1      10.921  27.466  28.113  0.00  0.00    +0.000 C 
ATOM     20  C   UNL     1      11.809  27.074  29.137  0.00  0.00    +0.000 C 
ATOM     21  C   UNL     1      11.266  25.877  29.654  0.00  0.00    +0.000 C 
BRANCH  20  22
ATOM     22  O   UNL     1      13.151  27.298  29.039  0.00  0.00    +0.000 OA
ATOM     23  H   UNL     1      13.371  27.952  28.347  0.00  0.00    +0.000 HD
ENDBRANCH  20  22
ENDBRANCH  14  15
ENDBRANCH   2  13
BRANCH   3  24
ATOM     24  O   UNL     1      11.843  21.006  30.912  0.00  0.00    +0.000 OA
BRANCH  24  25
ATOM     25  C   UNL     1      13.117  21.180  30.403  0.00  0.00    +0.000 C 
ATOM     26  O   UNL     1      13.346  21.499  29.234  0.00  0.00    +0.000 OA
BRANCH  25  27
ATOM     27  C   UNL     1      14.202  20.896  31.499  0.00  0.00    +0.000 C 
ATOM     28  C   UNL     1      13.555  21.050  32.926  0.00  0.00    +0.000 C 
ATOM     29  C   UNL     1      15.409  21.912  31.378  0.00  0.00    +0.000 C 
BRANCH  27  30
ATOM     30  C   UNL     1      14.698  19.508  31.280  0.00  0.00    +0.000 C 
ATOM     31  C   UNL     1      15.189  18.043  31.089  0.00  0.00    +0.000 C 
ENDBRANCH  27  30
ENDBRANCH  25  27
ENDBRANCH  24  25
ENDBRANCH   3  24
TORSDOF 7
ENDMDL
MODEL 7
REMARK VINA RESULT:      -6.2      1.934      2.805
REMARK  Name = Simvastatin.pdbqt.pdb
REMARK  7 active torsions:
REMARK  status: ('A' for Active; 'I' for Inactive)
REMARK    1  A    between atoms: C_2  and  C_13
REMARK    2  A    between atoms: C_3  and  O_24
REMARK    3  A    between atoms: C_14  and  C_15
REMARK    4  A    between atoms: C_20  and  O_22
REMARK    5  A    between atoms: O_24  and  C_25
REMARK    6  A    between atoms: C_25  and  C_27
REMARK    7  A    between atoms: C_27  and  C_30
REMARK                            x       y       z     vdW  Elec       q    Type
REMARK                         _______ _______ _______ _____ _____    ______ ____
ROOT
ATOM      1  C   UNL     1       8.904  18.463  32.083  0.00  0.00    +0.000 A 
ATOM      2  C   UNL     1       8.927  19.920  32.492  0.00  0.00    +0.000 A 
ATOM      3  C   UNL     1       8.974  17.953  30.667  0.00  0.00    +0.000 A 
ATOM      4  C   UNL     1       9.147  20.284  33.917  0.00  0.00    +0.000 A 
ATOM      5  C   UNL     1       8.887  17.421  33.222  0.00  0.00    +0.000 A 
ATOM      6  C   UNL     1       9.039  16.517  30.622  0.00  0.00    +0.000 A 
ATOM      7  C   UNL     1       9.089  15.494  31.620  0.00  0.00    +0.000 A 
ATOM      8  C   UNL     1       9.006  16.175  32.873  0.00  0.00    +0.000 A 
ATOM      9  C   UNL     1       9.218  19.140  34.763  0.00  0.00    +0.000 A 
ATOM     10  C   UNL     1       9.115  17.974  34.502  0.00  0.00    +0.000 A 
ATOM     11  C   UNL     1       9.228  21.669  34.482  0.00  0.00    +0.000 C 
ATOM     12  C   UNL     1      10.016  14.333  31.451  0.00  0.00    +0.000 C 
ENDROOT
BRANCH   2  13
ATOM     13  C   UNL     1       8.522  20.911  31.551  0.00  0.00    +0.000 C 
ATOM     14  C   UNL     1       8.045  22.007  30.590  0.00  0.00    +0.000 C 
BRANCH  14  15
ATOM     15  C   UNL     1       7.586  23.054  29.755  0.00  0.00    +0.000 C 
ATOM     16  O   UNL     1       8.524  23.630  28.821  0.00  0.00    +0.000 OA
ATOM     17  C   UNL     1       8.146  24.702  28.007  0.00  0.00    +0.000 C 
ATOM     18  O   UNL     1       8.884  25.239  27.196  0.00  0.00    +0.000 OA
ATOM     19  C   UNL     1       6.787  25.142  28.208  0.00  0.00    +0.000 C 
ATOM     20  C   UNL     1       5.748  24.718  29.064  0.00  0.00    +0.000 C 
ATOM     21  C   UNL     1       6.295  23.643  29.799  0.00  0.00    +0.000 C 
BRANCH  20  22
ATOM     22  O   UNL     1       4.859  25.606  29.597  0.00  0.00    +0.000 OA
ATOM     23  H   UNL     1       4.004  25.607  29.125  0.00  0.00    +0.000 HD
ENDBRANCH  20  22
ENDBRANCH  14  15
ENDBRANCH   2  13
BRANCH   3  24
ATOM     24  O   UNL     1       9.814  18.679  29.817  0.00  0.00    +0.000 OA
BRANCH  24  25
ATOM     25  C   UNL     1      10.955  17.977  29.474  0.00  0.00    +0.000 C 
ATOM     26  O   UNL     1      10.967  17.055  28.656  0.00  0.00    +0.000 OA
BRANCH  25  27
ATOM     27  C   UNL     1      12.197  18.499  30.278  0.00  0.00    +0.000 C 
ATOM     28  C   UNL     1      13.515  18.132  29.497  0.00  0.00    +0.000 C 
ATOM     29  C   UNL     1      12.260  17.841  31.715  0.00  0.00    +0.000 C 
BRANCH  27  30
ATOM     30  C   UNL     1      12.046  19.975  30.413  0.00  0.00    +0.000 C 
ATOM     31  C   UNL     1      11.926  21.518  30.587  0.00  0.00    +0.000 C 
ENDBRANCH  27  30
ENDBRANCH  25  27
ENDBRANCH  24  25
ENDBRANCH   3  24
TORSDOF 7
ENDMDL
MODEL 8
REMARK VINA RESULT:      -6.2     19.475     21.671
REMARK  Name = Simvastatin.pdbqt.pdb
REMARK  7 active torsions:
REMARK  status: ('A' for Active; 'I' for Inactive)
REMARK    1  A    between atoms: C_2  and  C_13
REMARK    2  A    between atoms: C_3  and  O_24
REMARK    3  A    between atoms: C_14  and  C_15
REMARK    4  A    between atoms: C_20  and  O_22
REMARK    5  A    between atoms: O_24  and  C_25
REMARK    6  A    between atoms: C_25  and  C_27
REMARK    7  A    between atoms: C_27  and  C_30
REMARK                            x       y       z     vdW  Elec       q    Type
REMARK                         _______ _______ _______ _____ _____    ______ ____
ROOT
ATOM      1  C   UNL     1      -1.652  27.598  16.423  0.00  0.00    +0.000 A 
ATOM      2  C   UNL     1      -0.842  27.283  15.184  0.00  0.00    +0.000 A 
ATOM      3  C   UNL     1      -2.020  28.980  16.896  0.00  0.00    +0.000 A 
ATOM      4  C   UNL     1      -0.796  25.889  14.666  0.00  0.00    +0.000 A 
ATOM      5  C   UNL     1      -2.208  26.395  17.215  0.00  0.00    +0.000 A 
ATOM      6  C   UNL     1      -2.884  28.936  18.044  0.00  0.00    +0.000 A 
ATOM      7  C   UNL     1      -3.488  27.877  18.793  0.00  0.00    +0.000 A 
ATOM      8  C   UNL     1      -3.016  26.669  18.197  0.00  0.00    +0.000 A 
ATOM      9  C   UNL     1      -1.487  24.975  15.513  0.00  0.00    +0.000 A 
ATOM     10  C   UNL     1      -2.065  25.159  16.547  0.00  0.00    +0.000 A 
ATOM     11  C   UNL     1      -0.072  25.414  13.443  0.00  0.00    +0.000 C 
ATOM     12  C   UNL     1      -4.911  27.995  19.236  0.00  0.00    +0.000 C 
ENDROOT
BRANCH   2  13
ATOM     13  C   UNL     1       0.037  28.274  14.658  0.00  0.00    +0.000 C 
ATOM     14  C   UNL     1       0.999  29.360  14.161  0.00  0.00    +0.000 C 
BRANCH  14  15
ATOM     15  C   UNL     1       1.915  30.362  13.760  0.00  0.00    +0.000 C 
ATOM     16  O   UNL     1       2.561  31.135  14.793  0.00  0.00    +0.000 OA
ATOM     17  C   UNL     1       3.436  32.174  14.458  0.00  0.00    +0.000 C 
ATOM     18  O   UNL     1       4.017  32.870  15.276  0.00  0.00    +0.000 OA
ATOM     19  C   UNL     1       3.596  32.372  13.038  0.00  0.00    +0.000 C 
ATOM     20  C   UNL     1       3.050  31.736  11.903  0.00  0.00    +0.000 C 
ATOM     21  C   UNL     1       2.208  30.727  12.419  0.00  0.00    +0.000 C 
BRANCH  20  22
ATOM     22  O   UNL     1       2.762  32.434  10.767  0.00  0.00    +0.000 OA
ATOM     23  H   UNL     1       2.111  33.146  10.920  0.00  0.00    +0.000 HD
ENDBRANCH  20  22
ENDBRANCH  14  15
ENDBRANCH   2  13
BRANCH   3  24
ATOM     24  O   UNL     1      -2.316  29.894  15.880  0.00  0.00    +0.000 OA
BRANCH  24  25
ATOM     25  C   UNL     1      -3.300  30.793  16.249  0.00  0.00    +0.000 C 
ATOM     26  O   UNL     1      -3.133  31.679  17.090  0.00  0.00    +0.000 OA
BRANCH  25  27
ATOM     27  C   UNL     1      -4.635  30.512  15.474  0.00  0.00    +0.000 C 
ATOM     28  C   UNL     1      -4.944  31.720  14.512  0.00  0.00    +0.000 C 
ATOM     29  C   UNL     1      -5.847  30.341  16.476  0.00  0.00    +0.000 C 
BRANCH  27  30
ATOM     30  C   UNL     1      -4.443  29.250  14.707  0.00  0.00    +0.000 C 
ATOM     31  C   UNL     1      -4.286  27.915  13.920  0.00  0.00    +0.000 C 
ENDBRANCH  27  30
ENDBRANCH  25  27
ENDBRANCH  24  25
ENDBRANCH   3  24
TORSDOF 7
ENDMDL
MODEL 9
REMARK VINA RESULT:      -6.0     21.696     23.970
REMARK  Name = Simvastatin.pdbqt.pdb
REMARK  7 active torsions:
REMARK  status: ('A' for Active; 'I' for Inactive)
REMARK    1  A    between atoms: C_2  and  C_13
REMARK    2  A    between atoms: C_3  and  O_24
REMARK    3  A    between atoms: C_14  and  C_15
REMARK    4  A    between atoms: C_20  and  O_22
REMARK    5  A    between atoms: O_24  and  C_25
REMARK    6  A    between atoms: C_25  and  C_27
REMARK    7  A    between atoms: C_27  and  C_30
REMARK                            x       y       z     vdW  Elec       q    Type
REMARK                         _______ _______ _______ _____ _____    ______ ____
ROOT
ATOM      1  C   UNL     1      29.242  14.003  17.717  0.00  0.00    +0.000 A 
ATOM      2  C   UNL     1      29.759  14.918  18.806  0.00  0.00    +0.000 A 
ATOM      3  C   UNL     1      28.942  14.416  16.300  0.00  0.00    +0.000 A 
ATOM      4  C   UNL     1      30.292  14.338  20.068  0.00  0.00    +0.000 A 
ATOM      5  C   UNL     1      29.090  12.509  18.078  0.00  0.00    +0.000 A 
ATOM      6  C   UNL     1      28.569  13.291  15.486  0.00  0.00    +0.000 A 
ATOM      7  C   UNL     1      28.464  11.884  15.724  0.00  0.00    +0.000 A 
ATOM      8  C   UNL     1      28.779  11.705  17.105  0.00  0.00    +0.000 A 
ATOM      9  C   UNL     1      30.147  12.921  20.115  0.00  0.00    +0.000 A 
ATOM     10  C   UNL     1      29.664  12.163  19.321  0.00  0.00    +0.000 A 
ATOM     11  C   UNL     1      30.867  15.095  21.226  0.00  0.00    +0.000 C 
ATOM     12  C   UNL     1      28.967  10.916  14.703  0.00  0.00    +0.000 C 
ENDROOT
BRANCH   2  13
ATOM     13  C   UNL     1      29.530  16.321  18.700  0.00  0.00    +0.000 C 
ATOM     14  C   UNL     1      29.243  17.817  18.527  0.00  0.00    +0.000 C 
BRANCH  14  15
ATOM     15  C   UNL     1      28.928  19.183  18.329  0.00  0.00    +0.000 C 
ATOM     16  O   UNL     1      29.076  19.722  16.998  0.00  0.00    +0.000 OA
ATOM     17  C   UNL     1      28.831  21.076  16.751  0.00  0.00    +0.000 C 
ATOM     18  O   UNL     1      28.935  21.601  15.653  0.00  0.00    +0.000 OA
ATOM     19  C   UNL     1      28.445  21.827  17.921  0.00  0.00    +0.000 C 
ATOM     20  C   UNL     1      28.263  21.482  19.277  0.00  0.00    +0.000 C 
ATOM     21  C   UNL     1      28.544  20.099  19.343  0.00  0.00    +0.000 C 
BRANCH  20  22
ATOM     22  O   UNL     1      28.577  22.352  20.280  0.00  0.00    +0.000 OA
ATOM     23  H   UNL     1      29.513  22.628  20.257  0.00  0.00    +0.000 HD
ENDBRANCH  20  22
ENDBRANCH  14  15
ENDBRANCH   2  13
BRANCH   3  24
ATOM     24  O   UNL     1      29.820  15.360  15.760  0.00  0.00    +0.000 OA
BRANCH  24  25
ATOM     25  C   UNL     1      29.168  16.316  15.002  0.00  0.00    +0.000 C 
ATOM     26  O   UNL     1      28.177  16.936  15.394  0.00  0.00    +0.000 OA
BRANCH  25  27
ATOM     27  C   UNL     1      29.844  16.473  13.595  0.00  0.00    +0.000 C 
ATOM     28  C   UNL     1      31.324  15.939  13.665  0.00  0.00    +0.000 C 
ATOM     29  C   UNL     1      29.873  17.990  13.147  0.00  0.00    +0.000 C 
BRANCH  27  30
ATOM     30  C   UNL     1      29.033  15.685  12.625  0.00  0.00    +0.000 C 
ATOM     31  C   UNL     1      28.176  14.902  11.587  0.00  0.00    +0.000 C 
ENDBRANCH  27  30
ENDBRANCH  25  27
ENDBRANCH  24  25
ENDBRANCH   3  24
TORSDOF 7
ENDMDL
