MODEL 1
REMARK VINA RESULT:      -7.3      0.000      0.000
REMARK  Name = Staurosporine.pdbqt.pdb
REMARK  2 active torsions:
REMARK  status: ('A' for Active; 'I' for Inactive)
REMARK    1  A    between atoms: C_3  and  O_11
REMARK    2  A    between atoms: C_5  and  N_8
REMARK                            x       y       z     vdW  Elec       q    Type
REMARK                         _______ _______ _______ _____ _____    ______ ____
ROOT
ATOM      1  O   UNL     1       0.695  26.694  15.186  0.00  0.00    +0.000 OA
ATOM      2  C   UNL     1      -0.703  26.350  14.986  0.00  0.00    +0.000 C 
ATOM      3  C   UNL     1      -1.677  26.959  16.015  0.00  0.00    +0.000 C 
ATOM      4  C   UNL     1       0.906  28.051  15.364  0.00  0.00    +0.000 C 
ATOM      5  C   UNL     1      -1.268  28.161  16.739  0.00  0.00    +0.000 C 
ATOM      6  C   UNL     1       0.023  28.556  16.343  0.00  0.00    +0.000 C 
ATOM      7  C   UNL     1      -0.725  24.799  15.201  0.00  0.00    +0.000 C 
ATOM      8  N   UNL     1      -1.051  26.714  13.593  0.00  0.00    +0.000 N 
ATOM      9  C   UNL     1      -0.506  27.629  12.728  0.00  0.00    +0.000 A 
ATOM     10  C   UNL     1       0.485  28.578  12.997  0.00  0.00    +0.000 A 
ATOM     11  C   UNL     1      -1.014  27.714  11.425  0.00  0.00    +0.000 A 
ATOM     12  N   UNL     1       1.066  28.791  14.211  0.00  0.00    +0.000 N 
ATOM     13  C   UNL     1       0.768  29.460  11.944  0.00  0.00    +0.000 A 
ATOM     14  C   UNL     1       1.746  29.999  13.957  0.00  0.00    +0.000 A 
ATOM     15  C   UNL     1       1.610  30.400  12.577  0.00  0.00    +0.000 A 
ATOM     16  C   UNL     1       2.510  30.763  14.854  0.00  0.00    +0.000 A 
ATOM     17  C   UNL     1       2.255  31.584  12.168  0.00  0.00    +0.000 A 
ATOM     18  C   UNL     1       3.008  32.329  13.074  0.00  0.00    +0.000 A 
ATOM     19  C   UNL     1       3.130  31.924  14.394  0.00  0.00    +0.000 A 
ATOM     20  C   UNL     1       0.271  29.547  10.629  0.00  0.00    +0.000 A 
ATOM     21  C   UNL     1      -0.717  28.561  10.349  0.00  0.00    +0.000 A 
ATOM     22  C   UNL     1       0.467  30.405   9.483  0.00  0.00    +0.000 C 
ATOM     23  C   UNL     1      -1.175  28.798   8.954  0.00  0.00    +0.000 C 
ATOM     24  N   UNL     1      -0.440  29.862   8.563  0.00  0.00    +0.000 N 
ATOM     25  H   UNL     1      -0.524  30.265   7.641  0.00  0.00    +0.000 HD
ATOM     26  O   UNL     1       1.190  31.364   9.255  0.00  0.00    +0.000 OA
ATOM     27  C   UNL     1      -2.040  26.755  11.440  0.00  0.00    +0.000 A 
ATOM     28  C   UNL     1      -2.066  26.169  12.759  0.00  0.00    +0.000 A 
ATOM     29  C   UNL     1      -2.985  26.316  10.490  0.00  0.00    +0.000 A 
ATOM     30  C   UNL     1      -3.019  25.181  13.062  0.00  0.00    +0.000 A 
ATOM     31  C   UNL     1      -3.932  24.777  12.087  0.00  0.00    +0.000 A 
ATOM     32  C   UNL     1      -3.916  25.334  10.819  0.00  0.00    +0.000 A 
ENDROOT
BRANCH   5  33
ATOM     33  N   UNL     1      -2.138  28.936  17.553  0.00  0.00    +0.000 N 
ATOM     34  C   UNL     1      -2.841  29.995  16.863  0.00  0.00    +0.000 C 
ATOM     35  H   UNL     1      -1.766  29.176  18.475  0.00  0.00    +0.000 HD
ENDBRANCH   5  33
BRANCH   3  36
ATOM     36  O   UNL     1      -3.012  26.687  15.809  0.00  0.00    +0.000 OA
ATOM     37  C   UNL     1      -3.560  25.934  16.858  0.00  0.00    +0.000 C 
ENDBRANCH   3  36
TORSDOF 2
ENDMDL
MODEL 2
REMARK VINA RESULT:      -7.2     22.570     25.395
REMARK  Name = Staurosporine.pdbqt.pdb
REMARK  2 active torsions:
REMARK  status: ('A' for Active; 'I' for Inactive)
REMARK    1  A    between atoms: C_3  and  O_11
REMARK    2  A    between atoms: C_5  and  N_8
REMARK                            x       y       z     vdW  Elec       q    Type
REMARK                         _______ _______ _______ _____ _____    ______ ____
ROOT
ATOM      1  O   UNL     1      14.192  22.225  31.277  0.00  0.00    +0.000 OA
ATOM      2  C   UNL     1      15.247  21.526  31.993  0.00  0.00    +0.000 C 
ATOM      3  C   UNL     1      15.135  21.579  33.530  0.00  0.00    +0.000 C 
ATOM      4  C   UNL     1      12.920  21.899  31.719  0.00  0.00    +0.000 C 
ATOM      5  C   UNL     1      13.827  21.833  34.128  0.00  0.00    +0.000 C 
ATOM      6  C   UNL     1      12.854  22.001  33.125  0.00  0.00    +0.000 C 
ATOM      7  C   UNL     1      16.535  22.327  31.602  0.00  0.00    +0.000 C 
ATOM      8  N   UNL     1      15.287  20.139  31.476  0.00  0.00    +0.000 N 
ATOM      9  C   UNL     1      14.329  19.366  30.871  0.00  0.00    +0.000 A 
ATOM     10  C   UNL     1      12.974  19.664  30.691  0.00  0.00    +0.000 A 
ATOM     11  C   UNL     1      14.678  18.084  30.423  0.00  0.00    +0.000 A 
ATOM     12  N   UNL     1      12.348  20.788  31.136  0.00  0.00    +0.000 N 
ATOM     13  C   UNL     1      12.206  18.630  30.136  0.00  0.00    +0.000 A 
ATOM     14  C   UNL     1      11.002  20.425  30.928  0.00  0.00    +0.000 A 
ATOM     15  C   UNL     1      10.896  19.137  30.286  0.00  0.00    +0.000 A 
ATOM     16  C   UNL     1       9.851  21.168  31.239  0.00  0.00    +0.000 A 
ATOM     17  C   UNL     1       9.607  18.648  29.996  0.00  0.00    +0.000 A 
ATOM     18  C   UNL     1       8.477  19.400  30.313  0.00  0.00    +0.000 A 
ATOM     19  C   UNL     1       8.601  20.638  30.926  0.00  0.00    +0.000 A 
ATOM     20  C   UNL     1      12.549  17.345  29.673  0.00  0.00    +0.000 A 
ATOM     21  C   UNL     1      13.933  17.056  29.831  0.00  0.00    +0.000 A 
ATOM     22  C   UNL     1      11.856  16.209  29.110  0.00  0.00    +0.000 C 
ATOM     23  C   UNL     1      14.138  15.665  29.344  0.00  0.00    +0.000 C 
ATOM     24  N   UNL     1      12.900  15.285  28.961  0.00  0.00    +0.000 N 
ATOM     25  H   UNL     1      12.712  14.371  28.574  0.00  0.00    +0.000 HD
ATOM     26  O   UNL     1      10.693  15.990  28.803  0.00  0.00    +0.000 OA
ATOM     27  C   UNL     1      16.026  17.991  30.804  0.00  0.00    +0.000 A 
ATOM     28  C   UNL     1      16.380  19.230  31.454  0.00  0.00    +0.000 A 
ATOM     29  C   UNL     1      17.006  16.982  30.698  0.00  0.00    +0.000 A 
ATOM     30  C   UNL     1      17.681  19.404  31.957  0.00  0.00    +0.000 A 
ATOM     31  C   UNL     1      18.617  18.378  31.826  0.00  0.00    +0.000 A 
ATOM     32  C   UNL     1      18.288  17.185  31.205  0.00  0.00    +0.000 A 
ENDROOT
BRANCH   5  33
ATOM     33  N   UNL     1      13.545  21.703  35.515  0.00  0.00    +0.000 N 
ATOM     34  C   UNL     1      13.063  20.402  35.924  0.00  0.00    +0.000 C 
ATOM     35  H   UNL     1      13.072  22.505  35.936  0.00  0.00    +0.000 HD
ENDBRANCH   5  33
BRANCH   3  36
ATOM     36  O   UNL     1      16.098  20.878  34.224  0.00  0.00    +0.000 OA
ATOM     37  C   UNL     1      16.889  21.722  35.017  0.00  0.00    +0.000 C 
ENDBRANCH   3  36
TORSDOF 2
ENDMDL
MODEL 3
REMARK VINA RESULT:      -7.0     31.150     32.683
REMARK  Name = Staurosporine.pdbqt.pdb
REMARK  2 active torsions:
REMARK  status: ('A' for Active; 'I' for Inactive)
REMARK    1  A    between atoms: C_3  and  O_11
REMARK    2  A    between atoms: C_5  and  N_8
REMARK                            x       y       z     vdW  Elec       q    Type
REMARK                         _______ _______ _______ _____ _____    ______ ____
ROOT
ATOM      1  O   UNL     1      30.930  15.804  21.003  0.00  0.00    +0.000 OA
ATOM      2  C   UNL     1      30.104  14.623  20.815  0.00  0.00    +0.000 C 
ATOM      3  C   UNL     1      28.884  14.526  21.753  0.00  0.00    +0.000 C 
ATOM      4  C   UNL     1      30.202  16.982  21.037  0.00  0.00    +0.000 C 
ATOM      5  C   UNL     1      28.361  15.752  22.350  0.00  0.00    +0.000 C 
ATOM      6  C   UNL     1      29.124  16.861  21.938  0.00  0.00    +0.000 C 
ATOM      7  C   UNL     1      31.067  13.448  21.197  0.00  0.00    +0.000 C 
ATOM      8  N   UNL     1      29.723  14.575  19.384  0.00  0.00    +0.000 N 
ATOM      9  C   UNL     1      29.622  15.562  18.436  0.00  0.00    +0.000 A 
ATOM     10  C   UNL     1      29.744  16.943  18.619  0.00  0.00    +0.000 A 
ATOM     11  C   UNL     1      29.291  15.205  17.122  0.00  0.00    +0.000 A 
ATOM     12  N   UNL     1      29.946  17.565  19.813  0.00  0.00    +0.000 N 
ATOM     13  C   UNL     1      29.481  17.720  17.482  0.00  0.00    +0.000 A 
ATOM     14  C   UNL     1      29.708  18.904  19.443  0.00  0.00    +0.000 A 
ATOM     15  C   UNL     1      29.464  19.023  18.025  0.00  0.00    +0.000 A 
ATOM     16  C   UNL     1      29.722  20.042  20.266  0.00  0.00    +0.000 A 
ATOM     17  C   UNL     1      29.227  20.310  17.503  0.00  0.00    +0.000 A 
ATOM     18  C   UNL     1      29.245  21.427  18.336  0.00  0.00    +0.000 A 
ATOM     19  C   UNL     1      29.487  21.291  19.695  0.00  0.00    +0.000 A 
ATOM     20  C   UNL     1      29.158  17.371  16.156  0.00  0.00    +0.000 A 
ATOM     21  C   UNL     1      29.065  15.964  15.966  0.00  0.00    +0.000 A 
ATOM     22  C   UNL     1      28.853  18.068  14.928  0.00  0.00    +0.000 C 
ATOM     23  C   UNL     1      28.682  15.748  14.545  0.00  0.00    +0.000 C 
ATOM     24  N   UNL     1      28.590  17.004  14.055  0.00  0.00    +0.000 N 
ATOM     25  H   UNL     1      28.345  17.190  13.093  0.00  0.00    +0.000 HD
ATOM     26  O   UNL     1      28.806  19.247  14.611  0.00  0.00    +0.000 OA
ATOM     27  C   UNL     1      29.126  13.814  17.221  0.00  0.00    +0.000 A 
ATOM     28  C   UNL     1      29.372  13.445  18.595  0.00  0.00    +0.000 A 
ATOM     29  C   UNL     1      28.770  12.801  16.306  0.00  0.00    +0.000 A 
ATOM     30  C   UNL     1      29.257  12.100  18.985  0.00  0.00    +0.000 A 
ATOM     31  C   UNL     1      28.904  11.133  18.043  0.00  0.00    +0.000 A 
ATOM     32  C   UNL     1      28.665  11.476  16.723  0.00  0.00    +0.000 A 
ENDROOT
BRANCH   5  33
ATOM     33  N   UNL     1      27.132  15.833  23.058  0.00  0.00    +0.000 N 
ATOM     34  C   UNL     1      27.251  15.808  24.500  0.00  0.00    +0.000 C 
ATOM     35  H   UNL     1      26.370  15.276  22.665  0.00  0.00    +0.000 HD
ENDBRANCH   5  33
BRANCH   3  36
ATOM     36  O   UNL     1      28.060  13.439  21.552  0.00  0.00    +0.000 OA
ATOM     37  C   UNL     1      28.048  12.581  22.662  0.00  0.00    +0.000 C 
ENDBRANCH   3  36
TORSDOF 2
ENDMDL
MODEL 4
REMARK VINA RESULT:      -6.9      2.538      6.146
REMARK  Name = Staurosporine.pdbqt.pdb
REMARK  2 active torsions:
REMARK  status: ('A' for Active; 'I' for Inactive)
REMARK    1  A    between atoms: C_3  and  O_11
REMARK    2  A    between atoms: C_5  and  N_8
REMARK                            x       y       z     vdW  Elec       q    Type
REMARK                         _______ _______ _______ _____ _____    ______ ____
ROOT
ATOM      1  O   UNL     1      -1.103  30.191   8.511  0.00  0.00    +0.000 OA
ATOM      2  C   UNL     1      -1.213  28.751   8.674  0.00  0.00    +0.000 C 
ATOM      3  C   UNL     1      -0.367  27.919   7.689  0.00  0.00    +0.000 C 
ATOM      4  C   UNL     1       0.207  30.637   8.441  0.00  0.00    +0.000 C 
ATOM      5  C   UNL     1       0.796  28.544   7.064  0.00  0.00    +0.000 C 
ATOM      6  C   UNL     1       0.930  29.875   7.499  0.00  0.00    +0.000 C 
ATOM      7  C   UNL     1      -2.716  28.467   8.337  0.00  0.00    +0.000 C 
ATOM      8  N   UNL     1      -0.901  28.442  10.088  0.00  0.00    +0.000 N 
ATOM      9  C   UNL     1      -0.162  29.119  11.026  0.00  0.00    +0.000 A 
ATOM     10  C   UNL     1       0.618  30.265  10.839  0.00  0.00    +0.000 A 
ATOM     11  C   UNL     1      -0.090  28.606  12.328  0.00  0.00    +0.000 A 
ATOM     12  N   UNL     1       0.818  30.898   9.650  0.00  0.00    +0.000 N 
ATOM     13  C   UNL     1       1.355  30.673  11.960  0.00  0.00    +0.000 A 
ATOM     14  C   UNL     1       1.867  31.771  10.003  0.00  0.00    +0.000 A 
ATOM     15  C   UNL     1       2.179  31.678  11.409  0.00  0.00    +0.000 A 
ATOM     16  C   UNL     1       2.552  32.673   9.174  0.00  0.00    +0.000 A 
ATOM     17  C   UNL     1       3.200  32.508  11.914  0.00  0.00    +0.000 A 
ATOM     18  C   UNL     1       3.869  33.397  11.075  0.00  0.00    +0.000 A 
ATOM     19  C   UNL     1       3.550  33.474   9.728  0.00  0.00    +0.000 A 
ATOM     20  C   UNL     1       1.426  30.171  13.275  0.00  0.00    +0.000 A 
ATOM     21  C   UNL     1       0.608  29.023  13.469  0.00  0.00    +0.000 A 
ATOM     22  C   UNL     1       2.147  30.489  14.486  0.00  0.00    +0.000 C 
ATOM     23  C   UNL     1       0.815  28.584  14.876  0.00  0.00    +0.000 C 
ATOM     24  N   UNL     1       1.702  29.483  15.354  0.00  0.00    +0.000 N 
ATOM     25  H   UNL     1       2.043  29.451  16.304  0.00  0.00    +0.000 HD
ATOM     26  O   UNL     1       2.946  31.361  14.793  0.00  0.00    +0.000 OA
ATOM     27  C   UNL     1      -0.852  27.431  12.231  0.00  0.00    +0.000 A 
ATOM     28  C   UNL     1      -1.323  27.332  10.870  0.00  0.00    +0.000 A 
ATOM     29  C   UNL     1      -1.191  26.405  13.137  0.00  0.00    +0.000 A 
ATOM     30  C   UNL     1      -2.105  26.230  10.484  0.00  0.00    +0.000 A 
ATOM     31  C   UNL     1      -2.417  25.240  11.417  0.00  0.00    +0.000 A 
ATOM     32  C   UNL     1      -1.970  25.325  12.725  0.00  0.00    +0.000 A 
ENDROOT
BRANCH   5  33
ATOM     33  N   UNL     1       1.770  27.837   6.307  0.00  0.00    +0.000 N 
ATOM     34  C   UNL     1       1.675  28.007   4.874  0.00  0.00    +0.000 C 
ATOM     35  H   UNL     1       1.961  26.886   6.630  0.00  0.00    +0.000 HD
ENDBRANCH   5  33
BRANCH   3  36
ATOM     36  O   UNL     1      -0.419  26.552   7.863  0.00  0.00    +0.000 OA
ATOM     37  C   UNL     1      -1.035  25.910   6.779  0.00  0.00    +0.000 C 
ENDBRANCH   3  36
TORSDOF 2
ENDMDL
MODEL 5
REMARK VINA RESULT:      -6.6     15.720     18.817
REMARK  Name = Staurosporine.pdbqt.pdb
REMARK  2 active torsions:
REMARK  status: ('A' for Active; 'I' for Inactive)
REMARK    1  A    between atoms: C_3  and  O_11
REMARK    2  A    between atoms: C_5  and  N_8
REMARK                            x       y       z     vdW  Elec       q    Type
REMARK                         _______ _______ _______ _____ _____    ______ ____
ROOT
ATOM      1  O   UNL     1      -0.264  15.906  22.054  0.00  0.00    +0.000 OA
ATOM      2  C   UNL     1      -0.525  15.838  23.482  0.00  0.00    +0.000 C 
ATOM      3  C   UNL     1      -1.977  16.154  23.894  0.00  0.00    +0.000 C 
ATOM      4  C   UNL     1      -1.187  15.205  21.294  0.00  0.00    +0.000 C 
ATOM      5  C   UNL     1      -3.037  15.991  22.902  0.00  0.00    +0.000 C 
ATOM      6  C   UNL     1      -2.499  15.557  21.677  0.00  0.00    +0.000 C 
ATOM      7  C   UNL     1       0.373  16.982  24.064  0.00  0.00    +0.000 C 
ATOM      8  N   UNL     1      -0.082  14.504  23.948  0.00  0.00    +0.000 N 
ATOM      9  C   UNL     1       0.065  13.311  23.286  0.00  0.00    +0.000 A 
ATOM     10  C   UNL     1      -0.299  13.012  21.969  0.00  0.00    +0.000 A 
ATOM     11  C   UNL     1       0.570  12.207  23.986  0.00  0.00    +0.000 A 
ATOM     12  N   UNL     1      -0.917  13.865  21.108  0.00  0.00    +0.000 N 
ATOM     13  C   UNL     1      -0.130  11.670  21.596  0.00  0.00    +0.000 A 
ATOM     14  C   UNL     1      -1.275  12.970  20.079  0.00  0.00    +0.000 A 
ATOM     15  C   UNL     1      -0.772  11.642  20.338  0.00  0.00    +0.000 A 
ATOM     16  C   UNL     1      -1.992  13.249  18.904  0.00  0.00    +0.000 A 
ATOM     17  C   UNL     1      -1.036  10.639  19.384  0.00  0.00    +0.000 A 
ATOM     18  C   UNL     1      -1.750  10.936  18.224  0.00  0.00    +0.000 A 
ATOM     19  C   UNL     1      -2.220  12.220  17.992  0.00  0.00    +0.000 A 
ATOM     20  C   UNL     1       0.386  10.557  22.287  0.00  0.00    +0.000 A 
ATOM     21  C   UNL     1       0.782  10.872  23.617  0.00  0.00    +0.000 A 
ATOM     22  C   UNL     1       0.588   9.152  22.019  0.00  0.00    +0.000 C 
ATOM     23  C   UNL     1       1.263   9.606  24.232  0.00  0.00    +0.000 C 
ATOM     24  N   UNL     1       1.108   8.702  23.241  0.00  0.00    +0.000 N 
ATOM     25  H   UNL     1       1.357   7.729  23.354  0.00  0.00    +0.000 HD
ATOM     26  O   UNL     1       0.400   8.438  21.046  0.00  0.00    +0.000 OA
ATOM     27  C   UNL     1       0.754  12.729  25.277  0.00  0.00    +0.000 A 
ATOM     28  C   UNL     1       0.341  14.112  25.248  0.00  0.00    +0.000 A 
ATOM     29  C   UNL     1       1.207  12.187  26.497  0.00  0.00    +0.000 A 
ATOM     30  C   UNL     1       0.403  14.880  26.423  0.00  0.00    +0.000 A 
ATOM     31  C   UNL     1       0.860  14.300  27.607  0.00  0.00    +0.000 A 
ATOM     32  C   UNL     1       1.258  12.974  27.646  0.00  0.00    +0.000 A 
ENDROOT
BRANCH   5  33
ATOM     33  N   UNL     1      -4.425  16.046  23.203  0.00  0.00    +0.000 N 
ATOM     34  C   UNL     1      -5.054  17.327  22.967  0.00  0.00    +0.000 C 
ATOM     35  H   UNL     1      -4.700  15.568  24.063  0.00  0.00    +0.000 HD
ENDBRANCH   5  33
BRANCH   3  36
ATOM     36  O   UNL     1      -2.254  16.043  25.240  0.00  0.00    +0.000 OA
ATOM     37  C   UNL     1      -2.563  17.285  25.814  0.00  0.00    +0.000 C 
ENDBRANCH   3  36
TORSDOF 2
ENDMDL
MODEL 6
REMARK VINA RESULT:      -6.5     13.966     17.754
REMARK  Name = Staurosporine.pdbqt.pdb
REMARK  2 active torsions:
REMARK  status: ('A' for Active; 'I' for Inactive)
REMARK    1  A    between atoms: C_3  and  O_11
REMARK    2  A    between atoms: C_5  and  N_8
REMARK                            x       y       z     vdW  Elec       q    Type
REMARK                         _______ _______ _______ _____ _____    ______ ____
ROOT
ATOM      1  O   UNL     1      -2.570  15.100  24.196  0.00  0.00    +0.000 OA
ATOM      2  C   UNL     1      -2.646  15.751  22.899  0.00  0.00    +0.000 C 
ATOM      3  C   UNL     1      -1.736  16.985  22.736  0.00  0.00    +0.000 C 
ATOM      4  C   UNL     1      -1.271  14.848  24.608  0.00  0.00    +0.000 C 
ATOM      5  C   UNL     1      -0.564  17.109  23.600  0.00  0.00    +0.000 C 
ATOM      6  C   UNL     1      -0.487  16.014  24.481  0.00  0.00    +0.000 C 
ATOM      7  C   UNL     1      -4.124  16.266  22.843  0.00  0.00    +0.000 C 
ATOM      8  N   UNL     1      -2.387  14.718  21.870  0.00  0.00    +0.000 N 
ATOM      9  C   UNL     1      -1.710  13.526  21.928  0.00  0.00    +0.000 A 
ATOM     10  C   UNL     1      -0.955  13.020  22.991  0.00  0.00    +0.000 A 
ATOM     11  C   UNL     1      -1.680  12.709  20.790  0.00  0.00    +0.000 A 
ATOM     12  N   UNL     1      -0.721  13.661  24.169  0.00  0.00    +0.000 N 
ATOM     13  C   UNL     1      -0.280  11.820  22.724  0.00  0.00    +0.000 A 
ATOM     14  C   UNL     1       0.286  12.837  24.710  0.00  0.00    +0.000 A 
ATOM     15  C   UNL     1       0.539  11.693  23.867  0.00  0.00    +0.000 A 
ATOM     16  C   UNL     1       0.981  13.006  25.918  0.00  0.00    +0.000 A 
ATOM     17  C   UNL     1       1.513  10.766  24.289  0.00  0.00    +0.000 A 
ATOM     18  C   UNL     1       2.193  10.951  25.491  0.00  0.00    +0.000 A 
ATOM     19  C   UNL     1       1.930  12.055  26.289  0.00  0.00    +0.000 A 
ATOM     20  C   UNL     1      -0.252  10.987  21.588  0.00  0.00    +0.000 A 
ATOM     21  C   UNL     1      -1.044  11.490  20.519  0.00  0.00    +0.000 A 
ATOM     22  C   UNL     1       0.407   9.762  21.196  0.00  0.00    +0.000 C 
ATOM     23  C   UNL     1      -0.887  10.540  19.385  0.00  0.00    +0.000 C 
ATOM     24  N   UNL     1      -0.047   9.604  19.879  0.00  0.00    +0.000 N 
ATOM     25  H   UNL     1       0.253   8.808  19.336  0.00  0.00    +0.000 HD
ATOM     26  O   UNL     1       1.167   8.989  21.761  0.00  0.00    +0.000 OA
ATOM     27  C   UNL     1      -2.404  13.469  19.856  0.00  0.00    +0.000 A 
ATOM     28  C   UNL     1      -2.812  14.687  20.514  0.00  0.00    +0.000 A 
ATOM     29  C   UNL     1      -2.753  13.284  18.503  0.00  0.00    +0.000 A 
ATOM     30  C   UNL     1      -3.545  15.650  19.798  0.00  0.00    +0.000 A 
ATOM     31  C   UNL     1      -3.869  15.422  18.461  0.00  0.00    +0.000 A 
ATOM     32  C   UNL     1      -3.482  14.256  17.821  0.00  0.00    +0.000 A 
ENDROOT
BRANCH   5  33
ATOM     33  N   UNL     1       0.461  18.076  23.419  0.00  0.00    +0.000 N 
ATOM     34  C   UNL     1       0.428  19.186  24.346  0.00  0.00    +0.000 C 
ATOM     35  H   UNL     1       0.662  18.315  22.446  0.00  0.00    +0.000 HD
ENDBRANCH   5  33
BRANCH   3  36
ATOM     36  O   UNL     1      -1.756  17.584  21.495  0.00  0.00    +0.000 OA
ATOM     37  C   UNL     1      -2.195  18.914  21.563  0.00  0.00    +0.000 C 
ENDBRANCH   3  36
TORSDOF 2
ENDMDL
MODEL 7
REMARK VINA RESULT:      -6.5     13.391     17.386
REMARK  Name = Staurosporine.pdbqt.pdb
REMARK  2 active torsions:
REMARK  status: ('A' for Active; 'I' for Inactive)
REMARK    1  A    between atoms: C_3  and  O_11
REMARK    2  A    between atoms: C_5  and  N_8
REMARK                            x       y       z     vdW  Elec       q    Type
REMARK                         _______ _______ _______ _____ _____    ______ ____
ROOT
ATOM      1  O   UNL     1      -3.633  12.155  21.575  0.00  0.00    +0.000 OA
ATOM      2  C   UNL     1      -2.330  11.596  21.898  0.00  0.00    +0.000 C 
ATOM      3  C   UNL     1      -1.641  10.843  20.742  0.00  0.00    +0.000 C 
ATOM      4  C   UNL     1      -3.640  12.885  20.398  0.00  0.00    +0.000 C 
ATOM      5  C   UNL     1      -2.035  11.155  19.370  0.00  0.00    +0.000 C 
ATOM      6  C   UNL     1      -3.039  12.141  19.361  0.00  0.00    +0.000 C 
ATOM      7  C   UNL     1      -2.659  10.535  23.001  0.00  0.00    +0.000 C 
ATOM      8  N   UNL     1      -1.497  12.699  22.430  0.00  0.00    +0.000 N 
ATOM      9  C   UNL     1      -1.564  14.058  22.251  0.00  0.00    +0.000 A 
ATOM     10  C   UNL     1      -2.401  14.768  21.384  0.00  0.00    +0.000 A 
ATOM     11  C   UNL     1      -0.661  14.876  22.943  0.00  0.00    +0.000 A 
ATOM     12  N   UNL     1      -3.288  14.214  20.513  0.00  0.00    +0.000 N 
ATOM     13  C   UNL     1      -2.169  16.151  21.331  0.00  0.00    +0.000 A 
ATOM     14  C   UNL     1      -3.622  15.343  19.739  0.00  0.00    +0.000 A 
ATOM     15  C   UNL     1      -2.984  16.535  20.245  0.00  0.00    +0.000 A 
ATOM     16  C   UNL     1      -4.480  15.405  18.629  0.00  0.00    +0.000 A 
ATOM     17  C   UNL     1      -3.239  17.752  19.581  0.00  0.00    +0.000 A 
ATOM     18  C   UNL     1      -4.093  17.793  18.481  0.00  0.00    +0.000 A 
ATOM     19  C   UNL     1      -4.700  16.636  18.014  0.00  0.00    +0.000 A 
ATOM     20  C   UNL     1      -1.272  16.983  22.030  0.00  0.00    +0.000 A 
ATOM     21  C   UNL     1      -0.443  16.260  22.933  0.00  0.00    +0.000 A 
ATOM     22  C   UNL     1      -0.935  18.387  22.048  0.00  0.00    +0.000 C 
ATOM     23  C   UNL     1       0.471  17.252  23.562  0.00  0.00    +0.000 C 
ATOM     24  N   UNL     1       0.104  18.419  22.988  0.00  0.00    +0.000 N 
ATOM     25  H   UNL     1       0.548  19.296  23.219  0.00  0.00    +0.000 HD
ATOM     26  O   UNL     1      -1.361  19.370  21.459  0.00  0.00    +0.000 OA
ATOM     27  C   UNL     1       0.115  13.940  23.645  0.00  0.00    +0.000 A 
ATOM     28  C   UNL     1      -0.387  12.627  23.315  0.00  0.00    +0.000 A 
ATOM     29  C   UNL     1       1.217  14.039  24.518  0.00  0.00    +0.000 A 
ATOM     30  C   UNL     1       0.225  11.490  23.870  0.00  0.00    +0.000 A 
ATOM     31  C   UNL     1       1.312  11.639  24.732  0.00  0.00    +0.000 A 
ATOM     32  C   UNL     1       1.801  12.893  25.054  0.00  0.00    +0.000 A 
ENDROOT
BRANCH   5  33
ATOM     33  N   UNL     1      -1.344  10.692  18.218  0.00  0.00    +0.000 N 
ATOM     34  C   UNL     1      -1.865  11.172  16.956  0.00  0.00    +0.000 C 
ATOM     35  H   UNL     1      -1.076   9.705  18.242  0.00  0.00    +0.000 HD
ENDBRANCH   5  33
BRANCH   3  36
ATOM     36  O   UNL     1      -0.382  10.352  21.014  0.00  0.00    +0.000 OA
ATOM     37  C   UNL     1      -0.342   8.952  20.951  0.00  0.00    +0.000 C 
ENDBRANCH   3  36
TORSDOF 2
ENDMDL
MODEL 8
REMARK VINA RESULT:      -6.5     16.571     20.359
REMARK  Name = Staurosporine.pdbqt.pdb
REMARK  2 active torsions:
REMARK  status: ('A' for Active; 'I' for Inactive)
REMARK    1  A    between atoms: C_3  and  O_11
REMARK    2  A    between atoms: C_5  and  N_8
REMARK                            x       y       z     vdW  Elec       q    Type
REMARK                         _______ _______ _______ _____ _____    ______ ____
ROOT
ATOM      1  O   UNL     1      -1.596  13.740  25.334  0.00  0.00    +0.000 OA
ATOM      2  C   UNL     1      -1.249  13.635  23.926  0.00  0.00    +0.000 C 
ATOM      3  C   UNL     1      -0.648  14.914  23.308  0.00  0.00    +0.000 C 
ATOM      4  C   UNL     1      -0.579  14.268  26.112  0.00  0.00    +0.000 C 
ATOM      5  C   UNL     1      -0.018  15.890  24.193  0.00  0.00    +0.000 C 
ATOM      6  C   UNL     1      -0.090  15.457  25.530  0.00  0.00    +0.000 C 
ATOM      7  C   UNL     1      -2.633  13.400  23.233  0.00  0.00    +0.000 C 
ATOM      8  N   UNL     1      -0.356  12.462  23.778  0.00  0.00    +0.000 N 
ATOM      9  C   UNL     1       0.472  11.831  24.672  0.00  0.00    +0.000 A 
ATOM     10  C   UNL     1       0.788  12.227  25.975  0.00  0.00    +0.000 A 
ATOM     11  C   UNL     1       1.163  10.684  24.258  0.00  0.00    +0.000 A 
ATOM     12  N   UNL     1       0.349  13.363  26.583  0.00  0.00    +0.000 N 
ATOM     13  C   UNL     1       1.756  11.441  26.618  0.00  0.00    +0.000 A 
ATOM     14  C   UNL     1       1.180  13.377  27.721  0.00  0.00    +0.000 A 
ATOM     15  C   UNL     1       2.012  12.199  27.781  0.00  0.00    +0.000 A 
ATOM     16  C   UNL     1       1.235  14.347  28.736  0.00  0.00    +0.000 A 
ATOM     17  C   UNL     1       2.886  12.064  28.878  0.00  0.00    +0.000 A 
ATOM     18  C   UNL     1       2.927  13.037  29.874  0.00  0.00    +0.000 A 
ATOM     19  C   UNL     1       2.116  14.160  29.801  0.00  0.00    +0.000 A 
ATOM     20  C   UNL     1       2.448  10.282  26.215  0.00  0.00    +0.000 A 
ATOM     21  C   UNL     1       2.102   9.865  24.900  0.00  0.00    +0.000 A 
ATOM     22  C   UNL     1       3.460   9.413  26.771  0.00  0.00    +0.000 C 
ATOM     23  C   UNL     1       2.932   8.668  24.597  0.00  0.00    +0.000 C 
ATOM     24  N   UNL     1       3.660   8.504  25.723  0.00  0.00    +0.000 N 
ATOM     25  H   UNL     1       4.329   7.754  25.828  0.00  0.00    +0.000 HD
ATOM     26  O   UNL     1       4.052   9.375  27.839  0.00  0.00    +0.000 OA
ATOM     27  C   UNL     1       0.763  10.560  22.918  0.00  0.00    +0.000 A 
ATOM     28  C   UNL     1      -0.141  11.648  22.633  0.00  0.00    +0.000 A 
ATOM     29  C   UNL     1       1.077   9.656  21.881  0.00  0.00    +0.000 A 
ATOM     30  C   UNL     1      -0.687  11.779  21.344  0.00  0.00    +0.000 A 
ATOM     31  C   UNL     1      -0.348  10.858  20.352  0.00  0.00    +0.000 A 
ATOM     32  C   UNL     1       0.519   9.811  20.614  0.00  0.00    +0.000 A 
ENDROOT
BRANCH   5  33
ATOM     33  N   UNL     1       0.749  16.998  23.741  0.00  0.00    +0.000 N 
ATOM     34  C   UNL     1       0.044  18.261  23.711  0.00  0.00    +0.000 C 
ATOM     35  H   UNL     1       1.352  16.806  22.938  0.00  0.00    +0.000 HD
ENDBRANCH   5  33
BRANCH   3  36
ATOM     36  O   UNL     1      -0.264  14.816  21.988  0.00  0.00    +0.000 OA
ATOM     37  C   UNL     1      -1.050  15.625  21.154  0.00  0.00    +0.000 C 
ENDBRANCH   3  36
TORSDOF 2
ENDMDL
MODEL 9
REMARK VINA RESULT:      -6.5      3.706      8.240
REMARK  Name = Staurosporine.pdbqt.pdb
REMARK  2 active torsions:
REMARK  status: ('A' for Active; 'I' for Inactive)
REMARK    1  A    between atoms: C_3  and  O_11
REMARK    2  A    between atoms: C_5  and  N_8
REMARK                            x       y       z     vdW  Elec       q    Type
REMARK                         _______ _______ _______ _____ _____    ______ ____
ROOT
ATOM      1  O   UNL     1       2.954  34.362  12.754  0.00  0.00    +0.000 OA
ATOM      2  C   UNL     1       3.949  34.570  11.715  0.00  0.00    +0.000 C 
ATOM      3  C   UNL     1       5.395  34.221  12.121  0.00  0.00    +0.000 C 
ATOM      4  C   UNL     1       3.041  33.117  13.356  0.00  0.00    +0.000 C 
ATOM      5  C   UNL     1       5.606  33.287  13.224  0.00  0.00    +0.000 C 
ATOM      6  C   UNL     1       4.372  32.860  13.748  0.00  0.00    +0.000 C 
ATOM      7  C   UNL     1       3.903  36.117  11.480  0.00  0.00    +0.000 C 
ATOM      8  N   UNL     1       3.502  33.820  10.519  0.00  0.00    +0.000 N 
ATOM      9  C   UNL     1       2.680  32.729  10.383  0.00  0.00    +0.000 A 
ATOM     10  C   UNL     1       2.129  31.940  11.397  0.00  0.00    +0.000 A 
ATOM     11  C   UNL     1       2.381  32.265   9.095  0.00  0.00    +0.000 A 
ATOM     12  N   UNL     1       2.355  32.097  12.730  0.00  0.00    +0.000 N 
ATOM     13  C   UNL     1       1.415  30.816  10.955  0.00  0.00    +0.000 A 
ATOM     14  C   UNL     1       1.798  30.900  13.223  0.00  0.00    +0.000 A 
ATOM     15  C   UNL     1       1.188  30.128  12.167  0.00  0.00    +0.000 A 
ATOM     16  C   UNL     1       1.763  30.450  14.553  0.00  0.00    +0.000 A 
ATOM     17  C   UNL     1       0.571  28.909  12.512  0.00  0.00    +0.000 A 
ATOM     18  C   UNL     1       0.547  28.479  13.838  0.00  0.00    +0.000 A 
ATOM     19  C   UNL     1       1.135  29.238  14.839  0.00  0.00    +0.000 A 
ATOM     20  C   UNL     1       1.100  30.348   9.664  0.00  0.00    +0.000 A 
ATOM     21  C   UNL     1       1.637  31.170   8.635  0.00  0.00    +0.000 A 
ATOM     22  C   UNL     1       0.401  29.218   9.096  0.00  0.00    +0.000 C 
ATOM     23  C   UNL     1       1.263  30.537   7.342  0.00  0.00    +0.000 C 
ATOM     24  N   UNL     1       0.569  29.442   7.722  0.00  0.00    +0.000 N 
ATOM     25  H   UNL     1       0.171  28.797   7.055  0.00  0.00    +0.000 HD
ATOM     26  O   UNL     1      -0.205  28.269   9.570  0.00  0.00    +0.000 OA
ATOM     27  C   UNL     1       3.118  33.141   8.281  0.00  0.00    +0.000 A 
ATOM     28  C   UNL     1       3.804  34.066   9.151  0.00  0.00    +0.000 A 
ATOM     29  C   UNL     1       3.312  33.256   6.889  0.00  0.00    +0.000 A 
ATOM     30  C   UNL     1       4.638  35.052   8.597  0.00  0.00    +0.000 A 
ATOM     31  C   UNL     1       4.797  35.128   7.213  0.00  0.00    +0.000 A 
ATOM     32  C   UNL     1       4.143  34.246   6.369  0.00  0.00    +0.000 A 
ENDROOT
BRANCH   5  33
ATOM     33  N   UNL     1       6.867  32.725  13.563  0.00  0.00    +0.000 N 
ATOM     34  C   UNL     1       7.599  33.434  14.590  0.00  0.00    +0.000 C 
ATOM     35  H   UNL     1       7.421  32.397  12.768  0.00  0.00    +0.000 HD
ENDBRANCH   5  33
BRANCH   3  36
ATOM     36  O   UNL     1       6.345  34.362  11.132  0.00  0.00    +0.000 OA
ATOM     37  C   UNL     1       7.273  35.369  11.438  0.00  0.00    +0.000 C 
ENDBRANCH   3  36
TORSDOF 2
ENDMDL
