MODEL 1
REMARK VINA RESULT:      -5.8      0.000      0.000
REMARK  Name = Testosterone.pdbqt.pdb
REMARK  1 active torsions:
REMARK  status: ('A' for Active; 'I' for Inactive)
REMARK    1  A    between atoms: C_9  and  O_21
REMARK                            x       y       z     vdW  Elec       q    Type
REMARK                         _______ _______ _______ _____ _____    ______ ____
ROOT
ATOM      1  O   UNL     1       1.025  25.714   6.048  0.00  0.00    +0.000 OA
ATOM      2  C   UNL     1      -0.648  27.835  13.211  0.00  0.00    +0.000 C 
ATOM      3  C   UNL     1      -0.057  29.176  13.859  0.00  0.00    +0.000 C 
ATOM      4  C   UNL     1      -0.842  27.702  11.753  0.00  0.00    +0.000 C 
ATOM      5  C   UNL     1      -0.259  28.599  10.697  0.00  0.00    +0.000 C 
ATOM      6  C   UNL     1      -0.567  28.469   9.189  0.00  0.00    +0.000 C 
ATOM      7  C   UNL     1       0.616  29.883  12.767  0.00  0.00    +0.000 C 
ATOM      8  C   UNL     1       0.511  29.642  11.281  0.00  0.00    +0.000 C 
ATOM      9  C   UNL     1       0.939  28.658  14.924  0.00  0.00    +0.000 C 
ATOM     10  C   UNL     1      -0.091  26.743  13.953  0.00  0.00    +0.000 C 
ATOM     11  C   UNL     1      -1.504  26.578  11.206  0.00  0.00    +0.000 C 
ATOM     12  C   UNL     1       0.917  27.237  14.960  0.00  0.00    +0.000 C 
ATOM     13  C   UNL     1      -1.151  26.994   8.713  0.00  0.00    +0.000 C 
ATOM     14  C   UNL     1      -1.675  26.203   9.765  0.00  0.00    +0.000 C 
ATOM     15  C   UNL     1      -1.191  29.999  14.520  0.00  0.00    +0.000 C 
ATOM     16  C   UNL     1       0.693  28.603   8.385  0.00  0.00    +0.000 C 
ATOM     17  C   UNL     1      -1.626  29.529   8.777  0.00  0.00    +0.000 C 
ATOM     18  C   UNL     1       1.323  27.734   7.272  0.00  0.00    +0.000 C 
ATOM     19  C   UNL     1      -0.529  26.378   7.729  0.00  0.00    +0.000 C 
ATOM     20  C   UNL     1       0.651  26.510   6.887  0.00  0.00    +0.000 C 
ENDROOT
BRANCH   9  21
ATOM     21  O   UNL     1       1.238  29.380  16.065  0.00  0.00    +0.000 OA
ATOM     22  H   UNL     1       0.998  30.322  15.964  0.00  0.00    +0.000 HD
ENDBRANCH   9  21
TORSDOF 1
ENDMDL
MODEL 2
REMARK VINA RESULT:      -5.0      2.707      6.422
REMARK  Name = Testosterone.pdbqt.pdb
REMARK  1 active torsions:
REMARK  status: ('A' for Active; 'I' for Inactive)
REMARK    1  A    between atoms: C_9  and  O_21
REMARK                            x       y       z     vdW  Elec       q    Type
REMARK                         _______ _______ _______ _____ _____    ______ ____
ROOT
ATOM      1  O   UNL     1      -3.262  25.575  17.749  0.00  0.00    +0.000 OA
ATOM      2  C   UNL     1      -0.671  28.188  11.036  0.00  0.00    +0.000 C 
ATOM      3  C   UNL     1      -0.137  29.688  10.858  0.00  0.00    +0.000 C 
ATOM      4  C   UNL     1      -0.611  27.495  12.339  0.00  0.00    +0.000 C 
ATOM      5  C   UNL     1      -0.366  28.142  13.674  0.00  0.00    +0.000 C 
ATOM      6  C   UNL     1      -0.223  27.359  14.998  0.00  0.00    +0.000 C 
ATOM      7  C   UNL     1      -0.090  30.257  12.206  0.00  0.00    +0.000 C 
ATOM      8  C   UNL     1      -0.169  29.544  13.534  0.00  0.00    +0.000 C 
ATOM      9  C   UNL     1      -1.219  30.358   9.976  0.00  0.00    +0.000 C 
ATOM     10  C   UNL     1      -1.850  28.075  10.229  0.00  0.00    +0.000 C 
ATOM     11  C   UNL     1      -0.941  26.125  12.452  0.00  0.00    +0.000 C 
ATOM     12  C   UNL     1      -2.217  29.408   9.626  0.00  0.00    +0.000 C 
ATOM     13  C   UNL     1      -0.859  25.831  14.986  0.00  0.00    +0.000 C 
ATOM     14  C   UNL     1      -1.070  25.293  13.692  0.00  0.00    +0.000 C 
ATOM     15  C   UNL     1       1.235  29.689  10.139  0.00  0.00    +0.000 C 
ATOM     16  C   UNL     1      -1.000  28.035  16.090  0.00  0.00    +0.000 C 
ATOM     17  C   UNL     1       1.281  27.221  15.365  0.00  0.00    +0.000 C 
ATOM     18  C   UNL     1      -2.046  27.518  17.104  0.00  0.00    +0.000 C 
ATOM     19  C   UNL     1      -1.721  25.519  15.931  0.00  0.00    +0.000 C 
ATOM     20  C   UNL     1      -2.443  26.126  17.039  0.00  0.00    +0.000 C 
ENDROOT
BRANCH   9  21
ATOM     21  O   UNL     1      -0.929  31.409   9.126  0.00  0.00    +0.000 OA
ATOM     22  H   UNL     1      -0.899  32.259   9.609  0.00  0.00    +0.000 HD
ENDBRANCH   9  21
TORSDOF 1
ENDMDL
MODEL 3
REMARK VINA RESULT:      -4.5     13.339     15.906
REMARK  Name = Testosterone.pdbqt.pdb
REMARK  1 active torsions:
REMARK  status: ('A' for Active; 'I' for Inactive)
REMARK    1  A    between atoms: C_9  and  O_21
REMARK                            x       y       z     vdW  Elec       q    Type
REMARK                         _______ _______ _______ _____ _____    ______ ____
ROOT
ATOM      1  O   UNL     1      -5.085  25.352  25.068  0.00  0.00    +0.000 OA
ATOM      2  C   UNL     1      -1.996  18.882  22.383  0.00  0.00    +0.000 C 
ATOM      3  C   UNL     1      -2.214  17.471  23.111  0.00  0.00    +0.000 C 
ATOM      4  C   UNL     1      -2.988  19.970  22.493  0.00  0.00    +0.000 C 
ATOM      5  C   UNL     1      -4.111  20.046  23.490  0.00  0.00    +0.000 C 
ATOM      6  C   UNL     1      -5.177  21.164  23.504  0.00  0.00    +0.000 C 
ATOM      7  C   UNL     1      -3.210  17.712  24.157  0.00  0.00    +0.000 C 
ATOM      8  C   UNL     1      -4.124  18.900  24.332  0.00  0.00    +0.000 C 
ATOM      9  C   UNL     1      -0.819  17.143  23.695  0.00  0.00    +0.000 C 
ATOM     10  C   UNL     1      -0.599  19.185  22.489  0.00  0.00    +0.000 C 
ATOM     11  C   UNL     1      -2.863  21.151  21.726  0.00  0.00    +0.000 C 
ATOM     12  C   UNL     1       0.110  18.156  23.334  0.00  0.00    +0.000 C 
ATOM     13  C   UNL     1      -4.752  22.555  22.713  0.00  0.00    +0.000 C 
ATOM     14  C   UNL     1      -3.681  22.405  21.798  0.00  0.00    +0.000 C 
ATOM     15  C   UNL     1      -2.646  16.396  22.083  0.00  0.00    +0.000 C 
ATOM     16  C   UNL     1      -5.416  21.639  24.908  0.00  0.00    +0.000 C 
ATOM     17  C   UNL     1      -6.485  20.649  22.842  0.00  0.00    +0.000 C 
ATOM     18  C   UNL     1      -5.432  23.045  25.549  0.00  0.00    +0.000 C 
ATOM     19  C   UNL     1      -4.841  23.688  23.377  0.00  0.00    +0.000 C 
ATOM     20  C   UNL     1      -5.131  24.190  24.712  0.00  0.00    +0.000 C 
ENDROOT
BRANCH   9  21
ATOM     21  O   UNL     1      -0.390  15.843  23.892  0.00  0.00    +0.000 OA
ATOM     22  H   UNL     1       0.578  15.768  23.785  0.00  0.00    +0.000 HD
ENDBRANCH   9  21
TORSDOF 1
ENDMDL
MODEL 4
REMARK VINA RESULT:      -4.5      2.252      3.022
REMARK  Name = Testosterone.pdbqt.pdb
REMARK  1 active torsions:
REMARK  status: ('A' for Active; 'I' for Inactive)
REMARK    1  A    between atoms: C_9  and  O_21
REMARK                            x       y       z     vdW  Elec       q    Type
REMARK                         _______ _______ _______ _____ _____    ______ ____
ROOT
ATOM      1  O   UNL     1      -0.036  26.245   7.313  0.00  0.00    +0.000 OA
ATOM      2  C   UNL     1       0.948  31.156  13.103  0.00  0.00    +0.000 C 
ATOM      3  C   UNL     1       2.087  32.283  13.075  0.00  0.00    +0.000 C 
ATOM      4  C   UNL     1       0.358  30.624  11.858  0.00  0.00    +0.000 C 
ATOM      5  C   UNL     1       0.913  30.796  10.471  0.00  0.00    +0.000 C 
ATOM      6  C   UNL     1       0.207  30.295   9.192  0.00  0.00    +0.000 C 
ATOM      7  C   UNL     1       2.653  32.245  11.726  0.00  0.00    +0.000 C 
ATOM      8  C   UNL     1       2.102  31.576  10.491  0.00  0.00    +0.000 C 
ATOM      9  C   UNL     1       3.096  31.807  14.148  0.00  0.00    +0.000 C 
ATOM     10  C   UNL     1       1.289  30.257  14.165  0.00  0.00    +0.000 C 
ATOM     11  C   UNL     1      -0.750  29.745  11.894  0.00  0.00    +0.000 C 
ATOM     12  C   UNL     1       2.624  30.618  14.767  0.00  0.00    +0.000 C 
ATOM     13  C   UNL     1      -0.926  29.110   9.429  0.00  0.00    +0.000 C 
ATOM     14  C   UNL     1      -1.393  29.004  10.762  0.00  0.00    +0.000 C 
ATOM     15  C   UNL     1       1.490  33.661  13.456  0.00  0.00    +0.000 C 
ATOM     16  C   UNL     1       1.195  29.633   8.276  0.00  0.00    +0.000 C 
ATOM     17  C   UNL     1      -0.517  31.480   8.495  0.00  0.00    +0.000 C 
ATOM     18  C   UNL     1       1.203  28.264   7.559  0.00  0.00    +0.000 C 
ATOM     19  C   UNL     1      -0.809  28.003   8.725  0.00  0.00    +0.000 C 
ATOM     20  C   UNL     1       0.095  27.358   7.785  0.00  0.00    +0.000 C 
ENDROOT
BRANCH   9  21
ATOM     21  O   UNL     1       3.893  32.690  14.853  0.00  0.00    +0.000 OA
ATOM     22  H   UNL     1       3.460  32.976  15.681  0.00  0.00    +0.000 HD
ENDBRANCH   9  21
TORSDOF 1
ENDMDL
MODEL 5
REMARK VINA RESULT:      -4.4     18.083     21.047
REMARK  Name = Testosterone.pdbqt.pdb
REMARK  1 active torsions:
REMARK  status: ('A' for Active; 'I' for Inactive)
REMARK    1  A    between atoms: C_9  and  O_21
REMARK                            x       y       z     vdW  Elec       q    Type
REMARK                         _______ _______ _______ _____ _____    ______ ____
ROOT
ATOM      1  O   UNL     1      17.131  40.227  23.587  0.00  0.00    +0.000 OA
ATOM      2  C   UNL     1      14.474  33.052  23.861  0.00  0.00    +0.000 C 
ATOM      3  C   UNL     1      12.927  32.710  23.617  0.00  0.00    +0.000 C 
ATOM      4  C   UNL     1      15.105  34.245  23.262  0.00  0.00    +0.000 C 
ATOM      5  C   UNL     1      14.385  35.414  22.649  0.00  0.00    +0.000 C 
ATOM      6  C   UNL     1      15.095  36.596  21.954  0.00  0.00    +0.000 C 
ATOM      7  C   UNL     1      12.308  33.960  23.174  0.00  0.00    +0.000 C 
ATOM      8  C   UNL     1      12.976  35.225  22.693  0.00  0.00    +0.000 C 
ATOM      9  C   UNL     1      12.427  32.271  25.014  0.00  0.00    +0.000 C 
ATOM     10  C   UNL     1      14.758  32.711  25.224  0.00  0.00    +0.000 C 
ATOM     11  C   UNL     1      16.500  34.456  23.355  0.00  0.00    +0.000 C 
ATOM     12  C   UNL     1      13.502  32.287  25.944  0.00  0.00    +0.000 C 
ATOM     13  C   UNL     1      16.689  36.797  22.355  0.00  0.00    +0.000 C 
ATOM     14  C   UNL     1      17.295  35.655  22.936  0.00  0.00    +0.000 C 
ATOM     15  C   UNL     1      12.787  31.555  22.595  0.00  0.00    +0.000 C 
ATOM     16  C   UNL     1      14.479  37.897  22.378  0.00  0.00    +0.000 C 
ATOM     17  C   UNL     1      15.037  36.410  20.413  0.00  0.00    +0.000 C 
ATOM     18  C   UNL     1      15.080  39.211  22.929  0.00  0.00    +0.000 C 
ATOM     19  C   UNL     1      17.068  37.982  22.785  0.00  0.00    +0.000 C 
ATOM     20  C   UNL     1      16.512  39.279  23.144  0.00  0.00    +0.000 C 
ENDROOT
BRANCH   9  21
ATOM     21  O   UNL     1      11.380  31.382  25.176  0.00  0.00    +0.000 OA
ATOM     22  H   UNL     1      11.168  30.926  24.338  0.00  0.00    +0.000 HD
ENDBRANCH   9  21
TORSDOF 1
ENDMDL
MODEL 6
REMARK VINA RESULT:      -4.2     36.243     37.678
REMARK  Name = Testosterone.pdbqt.pdb
REMARK  1 active torsions:
REMARK  status: ('A' for Active; 'I' for Inactive)
REMARK    1  A    between atoms: C_9  and  O_21
REMARK                            x       y       z     vdW  Elec       q    Type
REMARK                         _______ _______ _______ _____ _____    ______ ____
ROOT
ATOM      1  O   UNL     1      14.583  -8.456   9.715  0.00  0.00    +0.000 OA
ATOM      2  C   UNL     1      19.418  -3.228  12.525  0.00  0.00    +0.000 C 
ATOM      3  C   UNL     1      19.150  -2.488  13.921  0.00  0.00    +0.000 C 
ATOM      4  C   UNL     1      18.886  -4.578  12.252  0.00  0.00    +0.000 C 
ATOM      5  C   UNL     1      17.818  -5.285  13.041  0.00  0.00    +0.000 C 
ATOM      6  C   UNL     1      17.362  -6.735  12.766  0.00  0.00    +0.000 C 
ATOM      7  C   UNL     1      17.997  -3.165  14.517  0.00  0.00    +0.000 C 
ATOM      8  C   UNL     1      17.379  -4.488  14.133  0.00  0.00    +0.000 C 
ATOM      9  C   UNL     1      18.824  -1.033  13.506  0.00  0.00    +0.000 C 
ATOM     10  C   UNL     1      19.347  -2.220  11.509  0.00  0.00    +0.000 C 
ATOM     11  C   UNL     1      19.253  -5.283  11.083  0.00  0.00    +0.000 C 
ATOM     12  C   UNL     1      18.932  -0.894  12.095  0.00  0.00    +0.000 C 
ATOM     13  C   UNL     1      17.713  -7.311  11.254  0.00  0.00    +0.000 C 
ATOM     14  C   UNL     1      18.721  -6.587  10.570  0.00  0.00    +0.000 C 
ATOM     15  C   UNL     1      20.420  -2.535  14.807  0.00  0.00    +0.000 C 
ATOM     16  C   UNL     1      15.865  -6.828  12.818  0.00  0.00    +0.000 C 
ATOM     17  C   UNL     1      18.032  -7.697  13.785  0.00  0.00    +0.000 C 
ATOM     18  C   UNL     1      14.817  -7.415  11.844  0.00  0.00    +0.000 C 
ATOM     19  C   UNL     1      16.723  -7.811  10.544  0.00  0.00    +0.000 C 
ATOM     20  C   UNL     1      15.278  -7.976  10.590  0.00  0.00    +0.000 C 
ENDROOT
BRANCH   9  21
ATOM     21  O   UNL     1      19.082   0.045  14.333  0.00  0.00    +0.000 OA
ATOM     22  H   UNL     1      19.103  -0.225  15.272  0.00  0.00    +0.000 HD
ENDBRANCH   9  21
TORSDOF 1
ENDMDL
MODEL 7
REMARK VINA RESULT:      -4.2     22.426     25.318
REMARK  Name = Testosterone.pdbqt.pdb
REMARK  1 active torsions:
REMARK  status: ('A' for Active; 'I' for Inactive)
REMARK    1  A    between atoms: C_9  and  O_21
REMARK                            x       y       z     vdW  Elec       q    Type
REMARK                         _______ _______ _______ _____ _____    ______ ____
ROOT
ATOM      1  O   UNL     1       1.178   9.143  22.489  0.00  0.00    +0.000 OA
ATOM      2  C   UNL     1       5.803   8.382  28.542  0.00  0.00    +0.000 C 
ATOM      3  C   UNL     1       6.243   9.637  29.436  0.00  0.00    +0.000 C 
ATOM      4  C   UNL     1       4.528   8.374  27.797  0.00  0.00    +0.000 C 
ATOM      5  C   UNL     1       3.662   9.570  27.512  0.00  0.00    +0.000 C 
ATOM      6  C   UNL     1       2.290   9.493  26.805  0.00  0.00    +0.000 C 
ATOM      7  C   UNL     1       5.444  10.767  28.960  0.00  0.00    +0.000 C 
ATOM      8  C   UNL     1       4.217  10.749  28.081  0.00  0.00    +0.000 C 
ATOM      9  C   UNL     1       7.747   9.805  29.112  0.00  0.00    +0.000 C 
ATOM     10  C   UNL     1       6.993   7.891  27.913  0.00  0.00    +0.000 C 
ATOM     11  C   UNL     1       4.077   7.208  27.136  0.00  0.00    +0.000 C 
ATOM     12  C   UNL     1       8.169   8.787  28.214  0.00  0.00    +0.000 C 
ATOM     13  C   UNL     1       2.035   8.123  25.910  0.00  0.00    +0.000 C 
ATOM     14  C   UNL     1       2.895   7.044  26.229  0.00  0.00    +0.000 C 
ATOM     15  C   UNL     1       6.037   9.324  30.939  0.00  0.00    +0.000 C 
ATOM     16  C   UNL     1       2.168  10.586  25.784  0.00  0.00    +0.000 C 
ATOM     17  C   UNL     1       1.153   9.563  27.860  0.00  0.00    +0.000 C 
ATOM     18  C   UNL     1       1.773  10.584  24.289  0.00  0.00    +0.000 C 
ATOM     19  C   UNL     1       1.674   8.273  24.652  0.00  0.00    +0.000 C 
ATOM     20  C   UNL     1       1.482   9.314  23.653  0.00  0.00    +0.000 C 
ENDROOT
BRANCH   9  21
ATOM     21  O   UNL     1       8.640  10.346  30.019  0.00  0.00    +0.000 OA
ATOM     22  H   UNL     1       9.550  10.031  29.853  0.00  0.00    +0.000 HD
ENDBRANCH   9  21
TORSDOF 1
ENDMDL
MODEL 8
REMARK VINA RESULT:      -4.1     32.132     35.317
REMARK  Name = Testosterone.pdbqt.pdb
REMARK  1 active torsions:
REMARK  status: ('A' for Active; 'I' for Inactive)
REMARK    1  A    between atoms: C_9  and  O_21
REMARK                            x       y       z     vdW  Elec       q    Type
REMARK                         _______ _______ _______ _____ _____    ______ ____
ROOT
ATOM      1  O   UNL     1      27.574  11.986  32.529  0.00  0.00    +0.000 OA
ATOM      2  C   UNL     1      24.134  11.596  25.701  0.00  0.00    +0.000 C 
ATOM      3  C   UNL     1      24.792  10.822  24.462  0.00  0.00    +0.000 C 
ATOM      4  C   UNL     1      24.431  11.214  27.096  0.00  0.00    +0.000 C 
ATOM      5  C   UNL     1      25.559  10.330  27.551  0.00  0.00    +0.000 C 
ATOM      6  C   UNL     1      25.771   9.888  29.016  0.00  0.00    +0.000 C 
ATOM      7  C   UNL     1      25.963  10.128  25.002  0.00  0.00    +0.000 C 
ATOM      8  C   UNL     1      26.322   9.867  26.444  0.00  0.00    +0.000 C 
ATOM      9  C   UNL     1      25.183  11.960  23.488  0.00  0.00    +0.000 C 
ATOM     10  C   UNL     1      24.091  12.983  25.341  0.00  0.00    +0.000 C 
ATOM     11  C   UNL     1      23.731  11.799  28.177  0.00  0.00    +0.000 C 
ATOM     12  C   UNL     1      24.777  13.215  24.018  0.00  0.00    +0.000 C 
ATOM     13  C   UNL     1      25.025  10.833  30.153  0.00  0.00    +0.000 C 
ATOM     14  C   UNL     1      23.980  11.644  29.646  0.00  0.00    +0.000 C 
ATOM     15  C   UNL     1      23.757   9.872  23.810  0.00  0.00    +0.000 C 
ATOM     16  C   UNL     1      27.221  10.001  29.389  0.00  0.00    +0.000 C 
ATOM     17  C   UNL     1      25.240   8.441  29.209  0.00  0.00    +0.000 C 
ATOM     18  C   UNL     1      27.947  10.674  30.577  0.00  0.00    +0.000 C 
ATOM     19  C   UNL     1      25.765  11.317  31.128  0.00  0.00    +0.000 C 
ATOM     20  C   UNL     1      27.154  11.391  31.555  0.00  0.00    +0.000 C 
ENDROOT
BRANCH   9  21
ATOM     21  O   UNL     1      25.244  11.769  22.120  0.00  0.00    +0.000 OA
ATOM     22  H   UNL     1      24.713  12.437  21.643  0.00  0.00    +0.000 HD
ENDBRANCH   9  21
TORSDOF 1
ENDMDL
MODEL 9
REMARK VINA RESULT:      -4.0     12.004     14.775
REMARK  Name = Testosterone.pdbqt.pdb
REMARK  1 active torsions:
REMARK  status: ('A' for Active; 'I' for Inactive)
REMARK    1  A    between atoms: C_9  and  O_21
REMARK                            x       y       z     vdW  Elec       q    Type
REMARK                         _______ _______ _______ _____ _____    ______ ____
ROOT
ATOM      1  O   UNL     1      -1.805  20.321   3.651  0.00  0.00    +0.000 OA
ATOM      2  C   UNL     1       5.023  19.146   0.393  0.00  0.00    +0.000 C 
ATOM      3  C   UNL     1       5.892  17.834   0.694  0.00  0.00    +0.000 C 
ATOM      4  C   UNL     1       3.550  19.139   0.501  0.00  0.00    +0.000 C 
ATOM      5  C   UNL     1       2.717  18.084   1.176  0.00  0.00    +0.000 C 
ATOM      6  C   UNL     1       1.173  18.078   1.182  0.00  0.00    +0.000 C 
ATOM      7  C   UNL     1       5.028  16.955   1.483  0.00  0.00    +0.000 C 
ATOM      8  C   UNL     1       3.536  17.044   1.697  0.00  0.00    +0.000 C 
ATOM      9  C   UNL     1       7.089  18.371   1.515  0.00  0.00    +0.000 C 
ATOM     10  C   UNL     1       5.765  20.256   0.912  0.00  0.00    +0.000 C 
ATOM     11  C   UNL     1       2.783  20.252   0.087  0.00  0.00    +0.000 C 
ATOM     12  C   UNL     1       6.996  19.784   1.644  0.00  0.00    +0.000 C 
ATOM     13  C   UNL     1       0.461  19.540   0.870  0.00  0.00    +0.000 C 
ATOM     14  C   UNL     1       1.311  20.484   0.242  0.00  0.00    +0.000 C 
ATOM     15  C   UNL     1       6.377  17.195  -0.631  0.00  0.00    +0.000 C 
ATOM     16  C   UNL     1       0.659  17.744   2.552  0.00  0.00    +0.000 C 
ATOM     17  C   UNL     1       0.648  17.080   0.113  0.00  0.00    +0.000 C 
ATOM     18  C   UNL     1      -0.374  18.426   3.479  0.00  0.00    +0.000 C 
ATOM     19  C   UNL     1      -0.425  19.986   1.735  0.00  0.00    +0.000 C 
ATOM     20  C   UNL     1      -0.993  19.658   3.034  0.00  0.00    +0.000 C 
ENDROOT
BRANCH   9  21
ATOM     21  O   UNL     1       8.326  17.752   1.505  0.00  0.00    +0.000 OA
ATOM     22  H   UNL     1       8.473  17.265   0.671  0.00  0.00    +0.000 HD
ENDBRANCH   9  21
TORSDOF 1
ENDMDL
