MODEL 1
REMARK VINA RESULT:      -2.5      0.000      0.000
REMARK  Name = Tetrachloroethylene.pdbqt.pdb
REMARK  0 active torsions:
REMARK  status: ('A' for Active; 'I' for Inactive)
REMARK                            x       y       z     vdW  Elec       q    Type
REMARK                         _______ _______ _______ _____ _____    ______ ____
ROOT
ATOM      1 CL   UNL     1      13.783  19.455  30.765  0.00  0.00    +0.000 Cl
ATOM      2 CL   UNL     1      11.606  18.218  29.247  0.00  0.00    +0.000 Cl
ATOM      3 CL   UNL     1      13.456  15.643  28.693  0.00  0.00    +0.000 Cl
ATOM      4 CL   UNL     1      15.633  16.880  30.211  0.00  0.00    +0.000 Cl
ATOM      5  C   UNL     1      13.233  18.087  29.845  0.00  0.00    +0.000 C 
ATOM      6  C   UNL     1      14.006  17.011  29.613  0.00  0.00    +0.000 C 
ENDROOT
TORSDOF 0
ENDMDL
MODEL 2
REMARK VINA RESULT:      -2.5      0.154      2.394
REMARK  Name = Tetrachloroethylene.pdbqt.pdb
REMARK  0 active torsions:
REMARK  status: ('A' for Active; 'I' for Inactive)
REMARK                            x       y       z     vdW  Elec       q    Type
REMARK                         _______ _______ _______ _____ _____    ______ ____
ROOT
ATOM      1 CL   UNL     1      11.515  17.996  29.232  0.00  0.00    +0.000 Cl
ATOM      2 CL   UNL     1      13.613  19.357  30.754  0.00  0.00    +0.000 Cl
ATOM      3 CL   UNL     1      15.617  16.905  30.185  0.00  0.00    +0.000 Cl
ATOM      4 CL   UNL     1      13.519  15.543  28.662  0.00  0.00    +0.000 Cl
ATOM      5  C   UNL     1      13.147  17.962  29.827  0.00  0.00    +0.000 C 
ATOM      6  C   UNL     1      13.984  16.938  29.589  0.00  0.00    +0.000 C 
ENDROOT
TORSDOF 0
ENDMDL
MODEL 3
REMARK VINA RESULT:      -2.4     22.040     22.402
REMARK  Name = Tetrachloroethylene.pdbqt.pdb
REMARK  0 active torsions:
REMARK  status: ('A' for Active; 'I' for Inactive)
REMARK                            x       y       z     vdW  Elec       q    Type
REMARK                         _______ _______ _______ _____ _____    ______ ____
ROOT
ATOM      1 CL   UNL     1       0.470  28.093  14.398  0.00  0.00    +0.000 Cl
ATOM      2 CL   UNL     1      -0.056  25.438  13.282  0.00  0.00    +0.000 Cl
ATOM      3 CL   UNL     1      -1.844  24.710  15.857  0.00  0.00    +0.000 Cl
ATOM      4 CL   UNL     1      -1.318  27.365  16.973  0.00  0.00    +0.000 Cl
ATOM      5  C   UNL     1      -0.314  26.554  14.590  0.00  0.00    +0.000 C 
ATOM      6  C   UNL     1      -1.060  26.250  15.665  0.00  0.00    +0.000 C 
ENDROOT
TORSDOF 0
ENDMDL
MODEL 4
REMARK VINA RESULT:      -2.4     20.671     20.959
REMARK  Name = Tetrachloroethylene.pdbqt.pdb
REMARK  0 active torsions:
REMARK  status: ('A' for Active; 'I' for Inactive)
REMARK                            x       y       z     vdW  Elec       q    Type
REMARK                         _______ _______ _______ _____ _____    ______ ____
ROOT
ATOM      1 CL   UNL     1      29.457  14.585  17.024  0.00  0.00    +0.000 Cl
ATOM      2 CL   UNL     1      28.028  12.641  15.364  0.00  0.00    +0.000 Cl
ATOM      3 CL   UNL     1      27.084  15.011  13.403  0.00  0.00    +0.000 Cl
ATOM      4 CL   UNL     1      28.513  16.954  15.063  0.00  0.00    +0.000 Cl
ATOM      5  C   UNL     1      28.468  14.303  15.623  0.00  0.00    +0.000 C 
ATOM      6  C   UNL     1      28.073  15.293  14.804  0.00  0.00    +0.000 C 
ENDROOT
TORSDOF 0
ENDMDL
MODEL 5
REMARK VINA RESULT:      -2.4     15.731     15.992
REMARK  Name = Tetrachloroethylene.pdbqt.pdb
REMARK  0 active torsions:
REMARK  status: ('A' for Active; 'I' for Inactive)
REMARK                            x       y       z     vdW  Elec       q    Type
REMARK                         _______ _______ _______ _____ _____    ______ ____
ROOT
ATOM      1 CL   UNL     1      12.608  32.756  25.888  0.00  0.00    +0.000 Cl
ATOM      2 CL   UNL     1      11.136  31.712  23.583  0.00  0.00    +0.000 Cl
ATOM      3 CL   UNL     1      13.796  31.930  21.785  0.00  0.00    +0.000 Cl
ATOM      4 CL   UNL     1      15.268  32.973  24.091  0.00  0.00    +0.000 Cl
ATOM      5  C   UNL     1      12.646  32.297  24.212  0.00  0.00    +0.000 C 
ATOM      6  C   UNL     1      13.758  32.388  23.462  0.00  0.00    +0.000 C 
ENDROOT
TORSDOF 0
ENDMDL
MODEL 6
REMARK VINA RESULT:      -2.4     20.549     20.899
REMARK  Name = Tetrachloroethylene.pdbqt.pdb
REMARK  0 active torsions:
REMARK  status: ('A' for Active; 'I' for Inactive)
REMARK                            x       y       z     vdW  Elec       q    Type
REMARK                         _______ _______ _______ _____ _____    ______ ____
ROOT
ATOM      1 CL   UNL     1      29.177  11.317  17.847  0.00  0.00    +0.000 Cl
ATOM      2 CL   UNL     1      27.819  10.896  15.287  0.00  0.00    +0.000 Cl
ATOM      3 CL   UNL     1      28.035  14.044  14.655  0.00  0.00    +0.000 Cl
ATOM      4 CL   UNL     1      29.392  14.465  17.215  0.00  0.00    +0.000 Cl
ATOM      5  C   UNL     1      28.561  12.023  16.383  0.00  0.00    +0.000 C 
ATOM      6  C   UNL     1      28.651  13.338  16.119  0.00  0.00    +0.000 C 
ENDROOT
TORSDOF 0
ENDMDL
MODEL 7
REMARK VINA RESULT:      -2.3     21.890     22.162
REMARK  Name = Tetrachloroethylene.pdbqt.pdb
REMARK  0 active torsions:
REMARK  status: ('A' for Active; 'I' for Inactive)
REMARK                            x       y       z     vdW  Elec       q    Type
REMARK                         _______ _______ _______ _____ _____    ______ ____
ROOT
ATOM      1 CL   UNL     1       0.167  27.021  14.310  0.00  0.00    +0.000 Cl
ATOM      2 CL   UNL     1      -1.170  27.805  16.794  0.00  0.00    +0.000 Cl
ATOM      3 CL   UNL     1      -2.445  24.861  17.038  0.00  0.00    +0.000 Cl
ATOM      4 CL   UNL     1      -1.108  24.076  14.554  0.00  0.00    +0.000 Cl
ATOM      5  C   UNL     1      -0.873  26.556  15.623  0.00  0.00    +0.000 C 
ATOM      6  C   UNL     1      -1.405  25.326  15.725  0.00  0.00    +0.000 C 
ENDROOT
TORSDOF 0
ENDMDL
MODEL 8
REMARK VINA RESULT:      -2.3     21.989     22.338
REMARK  Name = Tetrachloroethylene.pdbqt.pdb
REMARK  0 active torsions:
REMARK  status: ('A' for Active; 'I' for Inactive)
REMARK                            x       y       z     vdW  Elec       q    Type
REMARK                         _______ _______ _______ _____ _____    ______ ____
ROOT
ATOM      1 CL   UNL     1       0.128  26.429  14.002  0.00  0.00    +0.000 Cl
ATOM      2 CL   UNL     1      -1.501  24.614  15.623  0.00  0.00    +0.000 Cl
ATOM      3 CL   UNL     1      -2.117  27.007  17.684  0.00  0.00    +0.000 Cl
ATOM      4 CL   UNL     1      -0.488  28.822  16.064  0.00  0.00    +0.000 Cl
ATOM      5  C   UNL     1      -0.866  26.218  15.413  0.00  0.00    +0.000 C 
ATOM      6  C   UNL     1      -1.123  27.217  16.274  0.00  0.00    +0.000 C 
ENDROOT
TORSDOF 0
ENDMDL
MODEL 9
REMARK VINA RESULT:      -2.3     21.907     22.203
REMARK  Name = Tetrachloroethylene.pdbqt.pdb
REMARK  0 active torsions:
REMARK  status: ('A' for Active; 'I' for Inactive)
REMARK                            x       y       z     vdW  Elec       q    Type
REMARK                         _______ _______ _______ _____ _____    ______ ____
ROOT
ATOM      1 CL   UNL     1      -1.278  28.227  16.570  0.00  0.00    +0.000 Cl
ATOM      2 CL   UNL     1       0.265  27.228  14.291  0.00  0.00    +0.000 Cl
ATOM      3 CL   UNL     1      -0.878  24.266  14.815  0.00  0.00    +0.000 Cl
ATOM      4 CL   UNL     1      -2.421  25.265  17.094  0.00  0.00    +0.000 Cl
ATOM      5  C   UNL     1      -0.839  26.865  15.583  0.00  0.00    +0.000 C 
ATOM      6  C   UNL     1      -1.317  25.628  15.802  0.00  0.00    +0.000 C 
ENDROOT
TORSDOF 0
ENDMDL
