REMARK  Name = Thalidomide.pdbqt.pdb
REMARK  1 active torsions:
REMARK  status: ('A' for Active; 'I' for Inactive)
REMARK    1  A    between atoms: N_3  and  C_12
REMARK                            x       y       z     vdW  Elec       q    Type
REMARK                         _______ _______ _______ _____ _____    ______ ____
ROOT
ATOM      1  O   UNL     1       0.764   2.245   0.894  0.00  0.00    +0.000 OA
ATOM      2  O   UNL     1       0.429  -2.125  -0.505  0.00  0.00    +0.000 OA
ATOM      3  N   UNL     1       0.131   0.156   0.007  0.00  0.00    +0.000 N 
ATOM      4  C   UNL     1       0.991   1.134   0.452  0.00  0.00    +0.000 C 
ATOM      5  C   UNL     1       0.825  -0.991  -0.313  0.00  0.00    +0.000 C 
ATOM      6  C   UNL     1       2.344   0.615   0.287  0.00  0.00    +0.000 A 
ATOM      7  C   UNL     1       2.243  -0.672  -0.198  0.00  0.00    +0.000 A 
ATOM      8  C   UNL     1       3.561   1.206   0.556  0.00  0.00    +0.000 A 
ATOM      9  C   UNL     1       3.351  -1.459  -0.432  0.00  0.00    +0.000 A 
ATOM     10  C   UNL     1       4.699   0.435   0.312  0.00  0.00    +0.000 A 
ATOM     11  C   UNL     1       4.596  -0.880  -0.175  0.00  0.00    +0.000 A 
ENDROOT
BRANCH   3  12
ATOM     12  C   UNL     1      -1.238   0.260   0.005  0.00  0.00    +0.000 C 
ATOM     13  C   UNL     1      -1.946   1.165   0.827  0.00  0.00    +0.000 C 
ATOM     14  C   UNL     1      -3.440   1.146   0.930  0.00  0.00    +0.000 C 
ATOM     15  C   UNL     1      -4.248   0.245   0.163  0.00  0.00    +0.000 C 
ATOM     16  O   UNL     1      -5.467   0.282   0.191  0.00  0.00    +0.000 OA
ATOM     17  N   UNL     1      -3.496  -0.610  -0.639  0.00  0.00    +0.000 N 
ATOM     18  C   UNL     1      -2.122  -0.573  -0.918  0.00  0.00    +0.000 C 
ATOM     19  H   UNL     1      -4.040  -1.159  -1.288  0.00  0.00    +0.000 HD
ATOM     20  O   UNL     1      -1.692  -1.088  -1.946  0.00  0.00    +0.000 OA
ENDBRANCH   3  12
TORSDOF 1
