MODEL 1
REMARK VINA RESULT:      -6.3      0.000      0.000
REMARK  Name = Thalidomide.pdbqt.pdb
REMARK  1 active torsions:
REMARK  status: ('A' for Active; 'I' for Inactive)
REMARK    1  A    between atoms: N_3  and  C_12
REMARK                            x       y       z     vdW  Elec       q    Type
REMARK                         _______ _______ _______ _____ _____    ______ ____
ROOT
ATOM      1  O   UNL     1       9.070  22.999  29.625  0.00  0.00    +0.000 OA
ATOM      2  O   UNL     1       5.160  25.366  29.096  0.00  0.00    +0.000 OA
ATOM      3  N   UNL     1       7.320  24.432  28.964  0.00  0.00    +0.000 N 
ATOM      4  C   UNL     1       7.902  23.336  29.560  0.00  0.00    +0.000 C 
ATOM      5  C   UNL     1       5.967  24.465  29.228  0.00  0.00    +0.000 C 
ATOM      6  C   UNL     1       6.822  22.547  30.143  0.00  0.00    +0.000 A 
ATOM      7  C   UNL     1       5.642  23.226  29.923  0.00  0.00    +0.000 A 
ATOM      8  C   UNL     1       6.866  21.350  30.826  0.00  0.00    +0.000 A 
ATOM      9  C   UNL     1       4.429  22.759  30.384  0.00  0.00    +0.000 A 
ATOM     10  C   UNL     1       5.648  20.848  31.289  0.00  0.00    +0.000 A 
ATOM     11  C   UNL     1       4.446  21.544  31.072  0.00  0.00    +0.000 A 
ENDROOT
BRANCH   3  12
ATOM     12  C   UNL     1       8.007  25.423  28.309  0.00  0.00    +0.000 C 
ATOM     13  C   UNL     1       8.194  25.439  26.909  0.00  0.00    +0.000 C 
ATOM     14  C   UNL     1       9.085  26.437  26.235  0.00  0.00    +0.000 C 
ATOM     15  C   UNL     1       9.761  27.470  26.961  0.00  0.00    +0.000 C 
ATOM     16  O   UNL     1      10.425  28.328  26.403  0.00  0.00    +0.000 OA
ATOM     17  N   UNL     1       9.526  27.414  28.333  0.00  0.00    +0.000 N 
ATOM     18  C   UNL     1       8.603  26.625  29.035  0.00  0.00    +0.000 C 
ATOM     19  H   UNL     1       9.877  28.207  28.849  0.00  0.00    +0.000 HD
ATOM     20  O   UNL     1       8.206  26.985  30.140  0.00  0.00    +0.000 OA
ENDBRANCH   3  12
TORSDOF 1
ENDMDL
MODEL 2
REMARK VINA RESULT:      -5.7      8.608     10.773
REMARK  Name = Thalidomide.pdbqt.pdb
REMARK  1 active torsions:
REMARK  status: ('A' for Active; 'I' for Inactive)
REMARK    1  A    between atoms: N_3  and  C_12
REMARK                            x       y       z     vdW  Elec       q    Type
REMARK                         _______ _______ _______ _____ _____    ______ ____
ROOT
ATOM      1  O   UNL     1       9.136  15.392  29.929  0.00  0.00    +0.000 OA
ATOM      2  O   UNL     1      13.244  13.640  31.035  0.00  0.00    +0.000 OA
ATOM      3  N   UNL     1      11.354  14.982  30.611  0.00  0.00    +0.000 N 
ATOM      4  C   UNL     1      10.038  14.685  30.337  0.00  0.00    +0.000 C 
ATOM      5  C   UNL     1      12.047  13.843  30.958  0.00  0.00    +0.000 C 
ATOM      6  C   UNL     1       9.849  13.273  30.652  0.00  0.00    +0.000 A 
ATOM      7  C   UNL     1      11.069  12.765  31.049  0.00  0.00    +0.000 A 
ATOM      8  C   UNL     1       8.716  12.490  30.578  0.00  0.00    +0.000 A 
ATOM      9  C   UNL     1      11.239  11.439  31.385  0.00  0.00    +0.000 A 
ATOM     10  C   UNL     1       8.859  11.147  30.929  0.00  0.00    +0.000 A 
ATOM     11  C   UNL     1      10.103  10.627  31.327  0.00  0.00    +0.000 A 
ENDROOT
BRANCH   3  12
ATOM     12  C   UNL     1      11.929  16.217  30.437  0.00  0.00    +0.000 C 
ATOM     13  C   UNL     1      11.978  17.197  31.454  0.00  0.00    +0.000 C 
ATOM     14  C   UNL     1      12.459  18.591  31.193  0.00  0.00    +0.000 C 
ATOM     15  C   UNL     1      12.949  19.004  29.911  0.00  0.00    +0.000 C 
ATOM     16  O   UNL     1      13.411  20.117  29.721  0.00  0.00    +0.000 OA
ATOM     17  N   UNL     1      12.891  17.992  28.956  0.00  0.00    +0.000 N 
ATOM     18  C   UNL     1      12.603  16.631  29.133  0.00  0.00    +0.000 C 
ATOM     19  H   UNL     1      13.353  18.213  28.086  0.00  0.00    +0.000 HD
ATOM     20  O   UNL     1      13.009  15.808  28.317  0.00  0.00    +0.000 OA
ENDBRANCH   3  12
TORSDOF 1
ENDMDL
MODEL 3
REMARK VINA RESULT:      -5.7     20.267     21.884
REMARK  Name = Thalidomide.pdbqt.pdb
REMARK  1 active torsions:
REMARK  status: ('A' for Active; 'I' for Inactive)
REMARK    1  A    between atoms: N_3  and  C_12
REMARK                            x       y       z     vdW  Elec       q    Type
REMARK                         _______ _______ _______ _____ _____    ______ ____
ROOT
ATOM      1  O   UNL     1      26.201  12.932  24.589  0.00  0.00    +0.000 OA
ATOM      2  O   UNL     1      21.951  12.550  26.311  0.00  0.00    +0.000 OA
ATOM      3  N   UNL     1      24.182  12.265  25.604  0.00  0.00    +0.000 N 
ATOM      4  C   UNL     1      25.130  13.142  25.129  0.00  0.00    +0.000 C 
ATOM      5  C   UNL     1      23.071  12.948  26.051  0.00  0.00    +0.000 C 
ATOM      6  C   UNL     1      24.641  14.487  25.407  0.00  0.00    +0.000 A 
ATOM      7  C   UNL     1      23.395  14.368  25.987  0.00  0.00    +0.000 A 
ATOM      8  C   UNL     1      25.221  15.713  25.157  0.00  0.00    +0.000 A 
ATOM      9  C   UNL     1      22.641  15.467  26.341  0.00  0.00    +0.000 A 
ATOM     10  C   UNL     1      24.484  16.841  25.522  0.00  0.00    +0.000 A 
ATOM     11  C   UNL     1      23.211  16.720  26.106  0.00  0.00    +0.000 A 
ENDROOT
BRANCH   3  12
ATOM     12  C   UNL     1      24.271  10.898  25.525  0.00  0.00    +0.000 C 
ATOM     13  C   UNL     1      24.523  10.073  26.643  0.00  0.00    +0.000 C 
ATOM     14  C   UNL     1      24.781   8.604  26.508  0.00  0.00    +0.000 C 
ATOM     15  C   UNL     1      24.736   7.933  25.243  0.00  0.00    +0.000 C 
ATOM     16  O   UNL     1      24.871   6.725  25.144  0.00  0.00    +0.000 OA
ATOM     17  N   UNL     1      24.468   8.794  24.181  0.00  0.00    +0.000 N 
ATOM     18  C   UNL     1      24.068  10.137  24.218  0.00  0.00    +0.000 C 
ATOM     19  H   UNL     1      24.296   8.330  23.301  0.00  0.00    +0.000 HD
ATOM     20  O   UNL     1      23.459  10.621  23.267  0.00  0.00    +0.000 OA
ENDBRANCH   3  12
TORSDOF 1
ENDMDL
MODEL 4
REMARK VINA RESULT:      -5.6     15.521     17.543
REMARK  Name = Thalidomide.pdbqt.pdb
REMARK  1 active torsions:
REMARK  status: ('A' for Active; 'I' for Inactive)
REMARK    1  A    between atoms: N_3  and  C_12
REMARK                            x       y       z     vdW  Elec       q    Type
REMARK                         _______ _______ _______ _____ _____    ______ ____
ROOT
ATOM      1  O   UNL     1      -1.410  27.686  12.927  0.00  0.00    +0.000 OA
ATOM      2  O   UNL     1       0.381  29.111  16.919  0.00  0.00    +0.000 OA
ATOM      3  N   UNL     1      -0.693  27.978  15.153  0.00  0.00    +0.000 N 
ATOM      4  C   UNL     1      -0.692  28.160  13.788  0.00  0.00    +0.000 C 
ATOM      5  C   UNL     1       0.239  28.798  15.752  0.00  0.00    +0.000 C 
ATOM      6  C   UNL     1       0.405  29.072  13.483  0.00  0.00    +0.000 A 
ATOM      7  C   UNL     1       0.984  29.444  14.678  0.00  0.00    +0.000 A 
ATOM      8  C   UNL     1       0.848  29.553  12.269  0.00  0.00    +0.000 A 
ATOM      9  C   UNL     1       2.036  30.334  14.739  0.00  0.00    +0.000 A 
ATOM     10  C   UNL     1       1.923  30.444  12.304  0.00  0.00    +0.000 A 
ATOM     11  C   UNL     1       2.509  30.830  13.522  0.00  0.00    +0.000 A 
ENDROOT
BRANCH   3  12
ATOM     12  C   UNL     1      -1.585  27.189  15.836  0.00  0.00    +0.000 C 
ATOM     13  C   UNL     1      -2.774  27.687  16.413  0.00  0.00    +0.000 C 
ATOM     14  C   UNL     1      -3.646  26.845  17.293  0.00  0.00    +0.000 C 
ATOM     15  C   UNL     1      -3.357  25.468  17.563  0.00  0.00    +0.000 C 
ATOM     16  O   UNL     1      -4.108  24.763  18.217  0.00  0.00    +0.000 OA
ATOM     17  N   UNL     1      -2.183  25.030  16.955  0.00  0.00    +0.000 N 
ATOM     18  C   UNL     1      -1.387  25.686  16.004  0.00  0.00    +0.000 C 
ATOM     19  H   UNL     1      -2.028  24.035  17.015  0.00  0.00    +0.000 HD
ATOM     20  O   UNL     1      -0.665  25.033  15.255  0.00  0.00    +0.000 OA
ENDBRANCH   3  12
TORSDOF 1
ENDMDL
MODEL 5
REMARK VINA RESULT:      -5.6     20.300     21.994
REMARK  Name = Thalidomide.pdbqt.pdb
REMARK  1 active torsions:
REMARK  status: ('A' for Active; 'I' for Inactive)
REMARK    1  A    between atoms: N_3  and  C_12
REMARK                            x       y       z     vdW  Elec       q    Type
REMARK                         _______ _______ _______ _____ _____    ______ ____
ROOT
ATOM      1  O   UNL     1      22.242  12.530  26.932  0.00  0.00    +0.000 OA
ATOM      2  O   UNL     1      26.183  12.809  24.574  0.00  0.00    +0.000 OA
ATOM      3  N   UNL     1      24.140  12.195  25.577  0.00  0.00    +0.000 N 
ATOM      4  C   UNL     1      23.182  12.910  26.259  0.00  0.00    +0.000 C 
ATOM      5  C   UNL     1      25.079  13.043  25.030  0.00  0.00    +0.000 C 
ATOM      6  C   UNL     1      23.462  14.322  26.026  0.00  0.00    +0.000 A 
ATOM      7  C   UNL     1      24.606  14.402  25.261  0.00  0.00    +0.000 A 
ATOM      8  C   UNL     1      22.788  15.445  26.462  0.00  0.00    +0.000 A 
ATOM      9  C   UNL     1      25.161  15.610  24.892  0.00  0.00    +0.000 A 
ATOM     10  C   UNL     1      23.322  16.679  26.088  0.00  0.00    +0.000 A 
ATOM     11  C   UNL     1      24.493  16.761  25.314  0.00  0.00    +0.000 A 
ENDROOT
BRANCH   3  12
ATOM     12  C   UNL     1      24.225  10.825  25.553  0.00  0.00    +0.000 C 
ATOM     13  C   UNL     1      24.456  10.044  26.707  0.00  0.00    +0.000 C 
ATOM     14  C   UNL     1      24.709   8.570  26.634  0.00  0.00    +0.000 C 
ATOM     15  C   UNL     1      24.682   7.850  25.396  0.00  0.00    +0.000 C 
ATOM     16  O   UNL     1      24.813   6.638  25.346  0.00  0.00    +0.000 OA
ATOM     17  N   UNL     1      24.434   8.669  24.297  0.00  0.00    +0.000 N 
ATOM     18  C   UNL     1      24.040  10.015  24.274  0.00  0.00    +0.000 C 
ATOM     19  H   UNL     1      24.275   8.171  23.433  0.00  0.00    +0.000 HD
ATOM     20  O   UNL     1      23.448  10.463  23.296  0.00  0.00    +0.000 OA
ENDBRANCH   3  12
TORSDOF 1
ENDMDL
MODEL 6
REMARK VINA RESULT:      -5.5     12.401     13.521
REMARK  Name = Thalidomide.pdbqt.pdb
REMARK  1 active torsions:
REMARK  status: ('A' for Active; 'I' for Inactive)
REMARK    1  A    between atoms: N_3  and  C_12
REMARK                            x       y       z     vdW  Elec       q    Type
REMARK                         _______ _______ _______ _____ _____    ______ ____
ROOT
ATOM      1  O   UNL     1      -1.801  14.591  21.819  0.00  0.00    +0.000 OA
ATOM      2  O   UNL     1       1.319  16.429  24.657  0.00  0.00    +0.000 OA
ATOM      3  N   UNL     1      -0.523  15.934  23.272  0.00  0.00    +0.000 N 
ATOM      4  C   UNL     1      -0.965  14.771  22.684  0.00  0.00    +0.000 C 
ATOM      5  C   UNL     1       0.516  15.675  24.140  0.00  0.00    +0.000 C 
ATOM      6  C   UNL     1      -0.236  13.675  23.314  0.00  0.00    +0.000 A 
ATOM      7  C   UNL     1       0.651  14.225  24.215  0.00  0.00    +0.000 A 
ATOM      8  C   UNL     1      -0.324  12.315  23.105  0.00  0.00    +0.000 A 
ATOM      9  C   UNL     1       1.520  13.452  24.956  0.00  0.00    +0.000 A 
ATOM     10  C   UNL     1       0.535  11.509  23.855  0.00  0.00    +0.000 A 
ATOM     11  C   UNL     1       1.445  12.070  24.769  0.00  0.00    +0.000 A 
ENDROOT
BRANCH   3  12
ATOM     12  C   UNL     1      -0.966  17.192  22.946  0.00  0.00    +0.000 C 
ATOM     13  C   UNL     1      -1.949  17.883  23.689  0.00  0.00    +0.000 C 
ATOM     14  C   UNL     1      -2.535  19.180  23.223  0.00  0.00    +0.000 C 
ATOM     15  C   UNL     1      -2.098  19.828  22.022  0.00  0.00    +0.000 C 
ATOM     16  O   UNL     1      -2.522  20.921  21.683  0.00  0.00    +0.000 OA
ATOM     17  N   UNL     1      -1.118  19.109  21.343  0.00  0.00    +0.000 N 
ATOM     18  C   UNL     1      -0.404  17.978  21.765  0.00  0.00    +0.000 C 
ATOM     19  H   UNL     1      -0.697  19.605  20.571  0.00  0.00    +0.000 HD
ATOM     20  O   UNL     1       0.693  17.729  21.276  0.00  0.00    +0.000 OA
ENDBRANCH   3  12
TORSDOF 1
ENDMDL
MODEL 7
REMARK VINA RESULT:      -5.5     15.648     16.795
REMARK  Name = Thalidomide.pdbqt.pdb
REMARK  1 active torsions:
REMARK  status: ('A' for Active; 'I' for Inactive)
REMARK    1  A    between atoms: N_3  and  C_12
REMARK                            x       y       z     vdW  Elec       q    Type
REMARK                         _______ _______ _______ _____ _____    ______ ____
ROOT
ATOM      1  O   UNL     1      -0.994  29.415  16.908  0.00  0.00    +0.000 OA
ATOM      2  O   UNL     1       0.283  27.184  13.093  0.00  0.00    +0.000 OA
ATOM      3  N   UNL     1       0.021  28.637  14.930  0.00  0.00    +0.000 N 
ATOM      4  C   UNL     1      -0.730  28.563  16.080  0.00  0.00    +0.000 C 
ATOM      5  C   UNL     1      -0.032  27.446  14.238  0.00  0.00    +0.000 C 
ATOM      6  C   UNL     1      -1.195  27.186  16.194  0.00  0.00    +0.000 A 
ATOM      7  C   UNL     1      -0.753  26.501  15.081  0.00  0.00    +0.000 A 
ATOM      8  C   UNL     1      -1.958  26.583  17.173  0.00  0.00    +0.000 A 
ATOM      9  C   UNL     1      -1.056  25.173  14.866  0.00  0.00    +0.000 A 
ATOM     10  C   UNL     1      -2.265  25.234  16.986  0.00  0.00    +0.000 A 
ATOM     11  C   UNL     1      -1.821  24.538  15.848  0.00  0.00    +0.000 A 
ENDROOT
BRANCH   3  12
ATOM     12  C   UNL     1       0.632  29.777  14.466  0.00  0.00    +0.000 C 
ATOM     13  C   UNL     1       1.969  30.116  14.772  0.00  0.00    +0.000 C 
ATOM     14  C   UNL     1       2.560  31.440  14.395  0.00  0.00    +0.000 C 
ATOM     15  C   UNL     1       1.825  32.423  13.656  0.00  0.00    +0.000 C 
ATOM     16  O   UNL     1       2.332  33.469  13.284  0.00  0.00    +0.000 OA
ATOM     17  N   UNL     1       0.521  32.025  13.370  0.00  0.00    +0.000 N 
ATOM     18  C   UNL     1      -0.072  30.767  13.543  0.00  0.00    +0.000 C 
ATOM     19  H   UNL     1       0.028  32.637  12.737  0.00  0.00    +0.000 HD
ATOM     20  O   UNL     1      -1.045  30.450  12.865  0.00  0.00    +0.000 OA
ENDBRANCH   3  12
TORSDOF 1
ENDMDL
MODEL 8
REMARK VINA RESULT:      -5.4     15.909     16.789
REMARK  Name = Thalidomide.pdbqt.pdb
REMARK  1 active torsions:
REMARK  status: ('A' for Active; 'I' for Inactive)
REMARK    1  A    between atoms: N_3  and  C_12
REMARK                            x       y       z     vdW  Elec       q    Type
REMARK                         _______ _______ _______ _____ _____    ______ ____
ROOT
ATOM      1  O   UNL     1       0.597  26.515  14.844  0.00  0.00    +0.000 OA
ATOM      2  O   UNL     1      -1.442  30.495  15.923  0.00  0.00    +0.000 OA
ATOM      3  N   UNL     1      -0.216  28.722  14.970  0.00  0.00    +0.000 N 
ATOM      4  C   UNL     1      -0.187  27.368  15.214  0.00  0.00    +0.000 C 
ATOM      5  C   UNL     1      -1.235  29.322  15.678  0.00  0.00    +0.000 C 
ATOM      6  C   UNL     1      -1.349  27.063  16.042  0.00  0.00    +0.000 A 
ATOM      7  C   UNL     1      -1.998  28.250  16.307  0.00  0.00    +0.000 A 
ATOM      8  C   UNL     1      -1.792  25.855  16.539  0.00  0.00    +0.000 A 
ATOM      9  C   UNL     1      -3.125  28.311  17.100  0.00  0.00    +0.000 A 
ATOM     10  C   UNL     1      -2.941  25.888  17.331  0.00  0.00    +0.000 A 
ATOM     11  C   UNL     1      -3.599  27.100  17.609  0.00  0.00    +0.000 A 
ENDROOT
BRANCH   3  12
ATOM     12  C   UNL     1       0.719  29.403  14.229  0.00  0.00    +0.000 C 
ATOM     13  C   UNL     1       1.820  30.076  14.804  0.00  0.00    +0.000 C 
ATOM     14  C   UNL     1       2.730  30.948  13.995  0.00  0.00    +0.000 C 
ATOM     15  C   UNL     1       2.573  31.115  12.581  0.00  0.00    +0.000 C 
ATOM     16  O   UNL     1       3.360  31.764  11.912  0.00  0.00    +0.000 OA
ATOM     17  N   UNL     1       1.482  30.416  12.070  0.00  0.00    +0.000 N 
ATOM     18  C   UNL     1       0.670  29.465  12.706  0.00  0.00    +0.000 C 
ATOM     19  H   UNL     1       1.429  30.405  11.062  0.00  0.00    +0.000 HD
ATOM     20  O   UNL     1       0.058  28.638  12.037  0.00  0.00    +0.000 OA
ENDBRANCH   3  12
TORSDOF 1
ENDMDL
MODEL 9
REMARK VINA RESULT:      -5.4     16.186     17.104
REMARK  Name = Thalidomide.pdbqt.pdb
REMARK  1 active torsions:
REMARK  status: ('A' for Active; 'I' for Inactive)
REMARK    1  A    between atoms: N_3  and  C_12
REMARK                            x       y       z     vdW  Elec       q    Type
REMARK                         _______ _______ _______ _____ _____    ______ ____
ROOT
ATOM      1  O   UNL     1      23.293  22.290  27.779  0.00  0.00    +0.000 OA
ATOM      2  O   UNL     1      23.494  22.065  23.189  0.00  0.00    +0.000 OA
ATOM      3  N   UNL     1      23.742  22.551  25.481  0.00  0.00    +0.000 N 
ATOM      4  C   UNL     1      23.319  21.910  26.624  0.00  0.00    +0.000 C 
ATOM      5  C   UNL     1      23.495  21.775  24.370  0.00  0.00    +0.000 C 
ATOM      6  C   UNL     1      22.883  20.577  26.224  0.00  0.00    +0.000 A 
ATOM      7  C   UNL     1      23.009  20.488  24.854  0.00  0.00    +0.000 A 
ATOM      8  C   UNL     1      22.398  19.536  26.988  0.00  0.00    +0.000 A 
ATOM      9  C   UNL     1      22.644  19.357  24.154  0.00  0.00    +0.000 A 
ATOM     10  C   UNL     1      22.036  18.374  26.303  0.00  0.00    +0.000 A 
ATOM     11  C   UNL     1      22.157  18.285  24.905  0.00  0.00    +0.000 A 
ENDROOT
BRANCH   3  12
ATOM     12  C   UNL     1      24.223  23.836  25.438  0.00  0.00    +0.000 C 
ATOM     13  C   UNL     1      23.413  24.973  25.659  0.00  0.00    +0.000 C 
ATOM     14  C   UNL     1      23.920  26.366  25.444  0.00  0.00    +0.000 C 
ATOM     15  C   UNL     1      25.271  26.636  25.051  0.00  0.00    +0.000 C 
ATOM     16  O   UNL     1      25.703  27.772  24.949  0.00  0.00    +0.000 OA
ATOM     17  N   UNL     1      26.024  25.479  24.863  0.00  0.00    +0.000 N 
ATOM     18  C   UNL     1      25.693  24.153  25.180  0.00  0.00    +0.000 C 
ATOM     19  H   UNL     1      27.009  25.641  24.720  0.00  0.00    +0.000 HD
ATOM     20  O   UNL     1      26.583  23.329  25.369  0.00  0.00    +0.000 OA
ENDBRANCH   3  12
TORSDOF 1
ENDMDL
