MODEL 1
REMARK VINA RESULT:      -5.8      0.000      0.000
REMARK  Name = Thapsigargin.pdbqt.pdb
REMARK  10 active torsions:
REMARK  status: ('A' for Active; 'I' for Inactive)
REMARK    1  A    between atoms: O_2  and  C_24
REMARK    2  A    between atoms: C_17  and  O_43
REMARK    3  A    between atoms: C_19  and  C_24
REMARK    4  A    between atoms: C_19  and  O_47
REMARK    5  A    between atoms: C_27  and  C_35
REMARK    6  A    between atoms: C_35  and  C_36
REMARK    7  A    between atoms: C_37  and  C_38
REMARK    8  A    between atoms: C_39  and  C_40
REMARK    9  A    between atoms: C_42  and  O_43
REMARK   10  A    between atoms: C_42  and  C_44
REMARK                            x       y       z     vdW  Elec       q    Type
REMARK                         _______ _______ _______ _____ _____    ______ ____
ROOT
ATOM      1  O   UNL     1      23.621   2.813  24.090  0.00  0.00    +0.000 OA
ATOM      2  O   UNL     1      25.585   8.126  26.238  0.00  0.00    +0.000 OA
ATOM      3  O   UNL     1      25.031   8.656  23.797  0.00  0.00    +0.000 OA
ATOM      4  O   UNL     1      27.975   5.700  23.625  0.00  0.00    +0.000 OA
ATOM      5  O   UNL     1      21.969   1.267  23.765  0.00  0.00    +0.000 OA
ATOM      6  O   UNL     1      23.840   8.786  24.654  0.00  0.00    +0.000 OA
ATOM      7  O   UNL     1      26.893  10.057  23.046  0.00  0.00    +0.000 OA
ATOM      8  O   UNL     1      26.971   4.286  21.837  0.00  0.00    +0.000 OA
ATOM      9  C   UNL     1      25.485   5.591  26.134  0.00  0.00    +0.000 C 
ATOM     10  C   UNL     1      22.725   3.888  25.945  0.00  0.00    +0.000 C 
ATOM     11  C   UNL     1      23.845   3.785  25.057  0.00  0.00    +0.000 C 
ATOM     12  C   UNL     1      24.693   6.072  27.302  0.00  0.00    +0.000 C 
ATOM     13  C   UNL     1      24.994   4.489  25.152  0.00  0.00    +0.000 C 
ATOM     14  C   UNL     1      22.840   4.662  26.974  0.00  0.00    +0.000 C 
ATOM     15  C   UNL     1      23.535   5.583  27.786  0.00  0.00    +0.000 C 
ATOM     16  C   UNL     1      26.896   5.718  25.847  0.00  0.00    +0.000 C 
ATOM     17  C   UNL     1      21.679   2.937  25.528  0.00  0.00    +0.000 C 
ATOM     18  C   UNL     1      27.166   5.113  24.603  0.00  0.00    +0.000 C 
ATOM     19  C   UNL     1      26.145   4.298  24.263  0.00  0.00    +0.000 C 
ATOM     20  C   UNL     1      24.811   6.919  26.101  0.00  0.00    +0.000 C 
ATOM     21  C   UNL     1      22.400   2.245  24.369  0.00  0.00    +0.000 C 
ATOM     22  C   UNL     1      26.250   3.966  22.906  0.00  0.00    +0.000 C 
ATOM     23  C   UNL     1      24.184   8.283  25.974  0.00  0.00    +0.000 C 
ATOM     24  C   UNL     1      25.657   9.900  23.661  0.00  0.00    +0.000 C 
ATOM     25  C   UNL     1      27.591   5.504  22.246  0.00  0.00    +0.000 C 
ATOM     26  C   UNL     1      23.431   8.975  27.118  0.00  0.00    +0.000 C 
ATOM     27  C   UNL     1      27.581   6.565  21.413  0.00  0.00    +0.000 C 
ATOM     28  C   UNL     1      27.148   6.438  19.969  0.00  0.00    +0.000 C 
ATOM     29  C   UNL     1      27.587   7.888  21.940  0.00  0.00    +0.000 C 
ATOM     30  C   UNL     1      27.311   8.938  22.456  0.00  0.00    +0.000 C 
ENDROOT
BRANCH  17  31
ATOM     31  O   UNL     1      21.352   2.053  26.586  0.00  0.00    +0.000 OA
ATOM     32  H   UNL     1      20.948   2.609  27.278  0.00  0.00    +0.000 HD
ENDBRANCH  17  31
BRANCH  17  33
ATOM     33  C   UNL     1      20.468   3.654  25.087  0.00  0.00    +0.000 C 
BRANCH  33  34
ATOM     34  O   UNL     1      19.362   4.280  24.689  0.00  0.00    +0.000 OA
ATOM     35  H   UNL     1      18.774   4.468  25.444  0.00  0.00    +0.000 HD
ENDBRANCH  33  34
ENDBRANCH  17  33
BRANCH  24  36
ATOM     36  C   UNL     1      25.207  10.956  24.268  0.00  0.00    +0.000 C 
BRANCH  36  37
ATOM     37  C   UNL     1      24.634  12.201  24.954  0.00  0.00    +0.000 C 
ATOM     38  C   UNL     1      24.180  13.191  25.458  0.00  0.00    +0.000 C 
BRANCH  38  39
ATOM     39  C   UNL     1      23.594  14.464  26.077  0.00  0.00    +0.000 C 
ATOM     40  C   UNL     1      23.121  15.456  26.562  0.00  0.00    +0.000 C 
BRANCH  40  41
ATOM     41  C   UNL     1      22.512  16.716  27.183  0.00  0.00    +0.000 C 
ATOM     42  C   UNL     1      21.982  17.814  27.721  0.00  0.00    +0.000 C 
ENDBRANCH  40  41
ENDBRANCH  38  39
ENDBRANCH  36  37
ENDBRANCH  24  36
BRANCH  15  43
ATOM     43  O   UNL     1      23.194   5.753  29.132  0.00  0.00    +0.000 OA
BRANCH  43  45
ATOM     44  O   UNL     1      22.458   3.919  30.364  0.00  0.00    +0.000 OA
ATOM     45  C   UNL     1      23.338   4.625  29.892  0.00  0.00    +0.000 C 
BRANCH  45  46
ATOM     46  C   UNL     1      24.716   4.312  30.118  0.00  0.00    +0.000 C 
ATOM     47  C   UNL     1      25.867   4.044  30.308  0.00  0.00    +0.000 C 
ATOM     48  C   UNL     1      27.342   3.716  30.553  0.00  0.00    +0.000 C 
ENDBRANCH  45  46
ENDBRANCH  43  45
ENDBRANCH  15  43
TORSDOF 10
ENDMDL
MODEL 2
REMARK VINA RESULT:      -5.7     32.083     36.220
REMARK  Name = Thapsigargin.pdbqt.pdb
REMARK  10 active torsions:
REMARK  status: ('A' for Active; 'I' for Inactive)
REMARK    1  A    between atoms: O_2  and  C_24
REMARK    2  A    between atoms: C_17  and  O_43
REMARK    3  A    between atoms: C_19  and  C_24
REMARK    4  A    between atoms: C_19  and  O_47
REMARK    5  A    between atoms: C_27  and  C_35
REMARK    6  A    between atoms: C_35  and  C_36
REMARK    7  A    between atoms: C_37  and  C_38
REMARK    8  A    between atoms: C_39  and  C_40
REMARK    9  A    between atoms: C_42  and  O_43
REMARK   10  A    between atoms: C_42  and  C_44
REMARK                            x       y       z     vdW  Elec       q    Type
REMARK                         _______ _______ _______ _____ _____    ______ ____
ROOT
ATOM      1  O   UNL     1       4.211  35.612  16.361  0.00  0.00    +0.000 OA
ATOM      2  O   UNL     1       7.613  33.732  11.714  0.00  0.00    +0.000 OA
ATOM      3  O   UNL     1       5.864  35.221  10.588  0.00  0.00    +0.000 OA
ATOM      4  O   UNL     1       3.675  32.181  12.431  0.00  0.00    +0.000 OA
ATOM      5  O   UNL     1       3.799  37.039  18.099  0.00  0.00    +0.000 OA
ATOM      6  O   UNL     1       7.011  36.014  11.066  0.00  0.00    +0.000 OA
ATOM      7  O   UNL     1       5.221  33.982   8.577  0.00  0.00    +0.000 OA
ATOM      8  O   UNL     1       1.854  33.576  13.400  0.00  0.00    +0.000 OA
ATOM      9  C   UNL     1       6.545  33.518  14.008  0.00  0.00    +0.000 C 
ATOM     10  C   UNL     1       6.514  35.890  16.226  0.00  0.00    +0.000 C 
ATOM     11  C   UNL     1       5.372  35.179  15.734  0.00  0.00    +0.000 C 
ATOM     12  C   UNL     1       7.984  33.876  14.162  0.00  0.00    +0.000 C 
ATOM     13  C   UNL     1       5.397  34.185  14.820  0.00  0.00    +0.000 C 
ATOM     14  C   UNL     1       7.682  35.507  15.828  0.00  0.00    +0.000 C 
ATOM     15  C   UNL     1       8.550  34.692  15.071  0.00  0.00    +0.000 C 
ATOM     16  C   UNL     1       5.931  32.347  13.423  0.00  0.00    +0.000 C 
ATOM     17  C   UNL     1       6.081  36.877  17.233  0.00  0.00    +0.000 C 
ATOM     18  C   UNL     1       4.530  32.479  13.497  0.00  0.00    +0.000 C 
ATOM     19  C   UNL     1       4.210  33.433  14.398  0.00  0.00    +0.000 C 
ATOM     20  C   UNL     1       7.242  34.330  12.971  0.00  0.00    +0.000 C 
ATOM     21  C   UNL     1       4.587  36.552  17.293  0.00  0.00    +0.000 C 
ATOM     22  C   UNL     1       2.868  33.796  14.230  0.00  0.00    +0.000 C 
ATOM     23  C   UNL     1       7.857  35.138  11.859  0.00  0.00    +0.000 C 
ATOM     24  C   UNL     1       6.056  34.866   9.248  0.00  0.00    +0.000 C 
ATOM     25  C   UNL     1       2.512  33.020  12.263  0.00  0.00    +0.000 C 
ATOM     26  C   UNL     1       9.348  35.497  11.803  0.00  0.00    +0.000 C 
ATOM     27  C   UNL     1       2.212  33.484  11.032  0.00  0.00    +0.000 C 
ATOM     28  C   UNL     1       1.033  34.402  10.794  0.00  0.00    +0.000 C 
ATOM     29  C   UNL     1       3.194  33.462  10.001  0.00  0.00    +0.000 C 
ATOM     30  C   UNL     1       4.140  33.666   9.289  0.00  0.00    +0.000 C 
ENDROOT
BRANCH  17  31
ATOM     31  O   UNL     1       6.745  36.663  18.466  0.00  0.00    +0.000 OA
ATOM     32  H   UNL     1       6.222  35.983  18.930  0.00  0.00    +0.000 HD
ENDBRANCH  17  31
BRANCH  17  33
ATOM     33  C   UNL     1       6.338  38.250  16.761  0.00  0.00    +0.000 C 
BRANCH  33  34
ATOM     34  O   UNL     1       6.579  39.496  16.357  0.00  0.00    +0.000 OA
ATOM     35  H   UNL     1       7.536  39.649  16.244  0.00  0.00    +0.000 HD
ENDBRANCH  33  34
ENDBRANCH  17  33
BRANCH  24  36
ATOM     36  C   UNL     1       7.136  35.198   8.607  0.00  0.00    +0.000 C 
BRANCH  36  37
ATOM     37  C   UNL     1       8.437  35.568   7.887  0.00  0.00    +0.000 C 
ATOM     38  C   UNL     1       9.442  35.847   7.292  0.00  0.00    +0.000 C 
BRANCH  38  39
ATOM     39  C   UNL     1      10.711  36.197   6.508  0.00  0.00    +0.000 C 
ATOM     40  C   UNL     1      11.697  36.476   5.883  0.00  0.00    +0.000 C 
BRANCH  40  41
ATOM     41  C   UNL     1      12.950  36.837   5.080  0.00  0.00    +0.000 C 
ATOM     42  C   UNL     1      14.040  37.153   4.381  0.00  0.00    +0.000 C 
ENDBRANCH  40  41
ENDBRANCH  38  39
ENDBRANCH  36  37
ENDBRANCH  24  36
BRANCH  15  43
ATOM     43  O   UNL     1       9.889  34.527  15.445  0.00  0.00    +0.000 OA
BRANCH  43  45
ATOM     44  O   UNL     1      10.211  32.279  14.927  0.00  0.00    +0.000 OA
ATOM     45  C   UNL     1      10.508  33.463  14.848  0.00  0.00    +0.000 C 
BRANCH  45  46
ATOM     46  C   UNL     1      11.631  33.877  14.064  0.00  0.00    +0.000 C 
ATOM     47  C   UNL     1      12.566  34.223  13.402  0.00  0.00    +0.000 C 
ATOM     48  C   UNL     1      13.772  34.661  12.568  0.00  0.00    +0.000 C 
ENDBRANCH  45  46
ENDBRANCH  43  45
ENDBRANCH  15  43
TORSDOF 10
ENDMDL
MODEL 3
REMARK VINA RESULT:      -5.7     17.981     23.386
REMARK  Name = Thapsigargin.pdbqt.pdb
REMARK  10 active torsions:
REMARK  status: ('A' for Active; 'I' for Inactive)
REMARK    1  A    between atoms: O_2  and  C_24
REMARK    2  A    between atoms: C_17  and  O_43
REMARK    3  A    between atoms: C_19  and  C_24
REMARK    4  A    between atoms: C_19  and  O_47
REMARK    5  A    between atoms: C_27  and  C_35
REMARK    6  A    between atoms: C_35  and  C_36
REMARK    7  A    between atoms: C_37  and  C_38
REMARK    8  A    between atoms: C_39  and  C_40
REMARK    9  A    between atoms: C_42  and  O_43
REMARK   10  A    between atoms: C_42  and  C_44
REMARK                            x       y       z     vdW  Elec       q    Type
REMARK                         _______ _______ _______ _____ _____    ______ ____
ROOT
ATOM      1  O   UNL     1      12.880  20.724  30.874  0.00  0.00    +0.000 OA
ATOM      2  O   UNL     1       7.307  22.682  32.221  0.00  0.00    +0.000 OA
ATOM      3  O   UNL     1       7.702  23.624  29.876  0.00  0.00    +0.000 OA
ATOM      4  O   UNL     1      10.709  25.299  32.240  0.00  0.00    +0.000 OA
ATOM      5  O   UNL     1      14.310  19.121  30.092  0.00  0.00    +0.000 OA
ATOM      6  O   UNL     1       7.171  22.251  29.815  0.00  0.00    +0.000 OA
ATOM      7  O   UNL     1       6.830  25.909  29.989  0.00  0.00    +0.000 OA
ATOM      8  O   UNL     1      12.617  25.008  30.666  0.00  0.00    +0.000 OA
ATOM      9  C   UNL     1       9.679  21.958  32.771  0.00  0.00    +0.000 C 
ATOM     10  C   UNL     1      11.121  19.341  31.497  0.00  0.00    +0.000 C 
ATOM     11  C   UNL     1      11.633  20.678  31.485  0.00  0.00    +0.000 C 
ATOM     12  C   UNL     1       8.735  20.847  33.085  0.00  0.00    +0.000 C 
ATOM     13  C   UNL     1      11.031  21.758  32.029  0.00  0.00    +0.000 C 
ATOM     14  C   UNL     1      10.025  19.119  32.147  0.00  0.00    +0.000 C 
ATOM     15  C   UNL     1       8.918  19.523  32.924  0.00  0.00    +0.000 C 
ATOM     16  C   UNL     1       9.772  23.289  33.327  0.00  0.00    +0.000 C 
ATOM     17  C   UNL     1      12.079  18.440  30.831  0.00  0.00    +0.000 C 
ATOM     18  C   UNL     1      10.822  23.979  32.688  0.00  0.00    +0.000 C 
ATOM     19  C   UNL     1      11.628  23.098  32.058  0.00  0.00    +0.000 C 
ATOM     20  C   UNL     1       8.416  21.790  31.997  0.00  0.00    +0.000 C 
ATOM     21  C   UNL     1      13.210  19.431  30.540  0.00  0.00    +0.000 C 
ATOM     22  C   UNL     1      12.456  23.787  31.162  0.00  0.00    +0.000 C 
ATOM     23  C   UNL     1       7.160  21.719  31.168  0.00  0.00    +0.000 C 
ATOM     24  C   UNL     1       6.652  24.545  29.794  0.00  0.00    +0.000 C 
ATOM     25  C   UNL     1      11.384  25.638  31.009  0.00  0.00    +0.000 C 
ATOM     26  C   UNL     1       6.034  20.710  31.429  0.00  0.00    +0.000 C 
ATOM     27  C   UNL     1      10.720  26.347  30.072  0.00  0.00    +0.000 C 
ATOM     28  C   UNL     1      11.353  26.698  28.744  0.00  0.00    +0.000 C 
ATOM     29  C   UNL     1       9.301  26.445  30.123  0.00  0.00    +0.000 C 
ATOM     30  C   UNL     1       8.116  26.245  30.077  0.00  0.00    +0.000 C 
ENDROOT
BRANCH  17  31
ATOM     31  O   UNL     1      12.471  17.391  31.698  0.00  0.00    +0.000 OA
ATOM     32  H   UNL     1      11.673  17.162  32.210  0.00  0.00    +0.000 HD
ENDBRANCH  17  31
BRANCH  17  33
ATOM     33  C   UNL     1      11.497  17.877  29.599  0.00  0.00    +0.000 C 
BRANCH  33  34
ATOM     34  O   UNL     1      10.986  17.348  28.489  0.00  0.00    +0.000 OA
ATOM     35  H   UNL     1      11.135  16.385  28.458  0.00  0.00    +0.000 HD
ENDBRANCH  33  34
ENDBRANCH  17  33
BRANCH  24  36
ATOM     36  C   UNL     1       5.415  24.157  29.716  0.00  0.00    +0.000 C 
BRANCH  36  37
ATOM     37  C   UNL     1       3.956  23.689  29.674  0.00  0.00    +0.000 C 
ATOM     38  C   UNL     1       2.823  23.292  29.660  0.00  0.00    +0.000 C 
BRANCH  38  39
ATOM     39  C   UNL     1       1.385  22.765  29.657  0.00  0.00    +0.000 C 
ATOM     40  C   UNL     1       0.260  22.347  29.641  0.00  0.00    +0.000 C 
BRANCH  40  41
ATOM     41  C   UNL     1      -1.174  21.810  29.614  0.00  0.00    +0.000 C 
ATOM     42  C   UNL     1      -2.421  21.341  29.593  0.00  0.00    +0.000 C 
ENDBRANCH  40  41
ENDBRANCH  38  39
ENDBRANCH  36  37
ENDBRANCH  24  36
BRANCH  15  43
ATOM     43  O   UNL     1       8.226  18.603  33.720  0.00  0.00    +0.000 OA
BRANCH  43  45
ATOM     44  O   UNL     1       8.906  16.436  33.204  0.00  0.00    +0.000 OA
ATOM     45  C   UNL     1       8.106  17.360  33.162  0.00  0.00    +0.000 C 
BRANCH  45  46
ATOM     46  C   UNL     1       6.869  17.213  32.458  0.00  0.00    +0.000 C 
ATOM     47  C   UNL     1       5.834  17.085  31.870  0.00  0.00    +0.000 C 
ATOM     48  C   UNL     1       4.512  16.935  31.114  0.00  0.00    +0.000 C 
ENDBRANCH  45  46
ENDBRANCH  43  45
ENDBRANCH  15  43
TORSDOF 10
ENDMDL
MODEL 4
REMARK VINA RESULT:      -5.7     27.793     31.270
REMARK  Name = Thapsigargin.pdbqt.pdb
REMARK  10 active torsions:
REMARK  status: ('A' for Active; 'I' for Inactive)
REMARK    1  A    between atoms: O_2  and  C_24
REMARK    2  A    between atoms: C_17  and  O_43
REMARK    3  A    between atoms: C_19  and  C_24
REMARK    4  A    between atoms: C_19  and  O_47
REMARK    5  A    between atoms: C_27  and  C_35
REMARK    6  A    between atoms: C_35  and  C_36
REMARK    7  A    between atoms: C_37  and  C_38
REMARK    8  A    between atoms: C_39  and  C_40
REMARK    9  A    between atoms: C_42  and  O_43
REMARK   10  A    between atoms: C_42  and  C_44
REMARK                            x       y       z     vdW  Elec       q    Type
REMARK                         _______ _______ _______ _____ _____    ______ ____
ROOT
ATOM      1  O   UNL     1      11.045  21.867  -1.756  0.00  0.00    +0.000 OA
ATOM      2  O   UNL     1      11.281  17.821   2.747  0.00  0.00    +0.000 OA
ATOM      3  O   UNL     1      10.042  16.561   0.898  0.00  0.00    +0.000 OA
ATOM      4  O   UNL     1       7.660  19.888   1.727  0.00  0.00    +0.000 OA
ATOM      5  O   UNL     1      11.970  22.910  -3.568  0.00  0.00    +0.000 OA
ATOM      6  O   UNL     1      11.501  16.429   0.745  0.00  0.00    +0.000 OA
ATOM      7  O   UNL     1       8.223  15.410   2.066  0.00  0.00    +0.000 OA
ATOM      8  O   UNL     1       7.119  20.544  -0.614  0.00  0.00    +0.000 OA
ATOM      9  C   UNL     1      11.185  20.165   1.772  0.00  0.00    +0.000 C 
ATOM     10  C   UNL     1      13.005  21.170  -0.723  0.00  0.00    +0.000 C 
ATOM     11  C   UNL     1      11.579  21.254  -0.630  0.00  0.00    +0.000 C 
ATOM     12  C   UNL     1      12.579  19.865   2.209  0.00  0.00    +0.000 C 
ATOM     13  C   UNL     1      10.831  20.844   0.418  0.00  0.00    +0.000 C 
ATOM     14  C   UNL     1      13.654  20.738   0.308  0.00  0.00    +0.000 C 
ATOM     15  C   UNL     1      13.736  20.224   1.620  0.00  0.00    +0.000 C 
ATOM     16  C   UNL     1       9.964  20.249   2.541  0.00  0.00    +0.000 C 
ATOM     17  C   UNL     1      13.449  21.747  -2.005  0.00  0.00    +0.000 C 
ATOM     18  C   UNL     1       8.895  20.542   1.670  0.00  0.00    +0.000 C 
ATOM     19  C   UNL     1       9.377  21.016   0.502  0.00  0.00    +0.000 C 
ATOM     20  C   UNL     1      11.707  18.769   1.748  0.00  0.00    +0.000 C 
ATOM     21  C   UNL     1      12.105  22.235  -2.552  0.00  0.00    +0.000 C 
ATOM     22  C   UNL     1       8.362  20.988  -0.463  0.00  0.00    +0.000 C 
ATOM     23  C   UNL     1      12.130  17.324   1.703  0.00  0.00    +0.000 C 
ATOM     24  C   UNL     1       9.539  15.476   1.625  0.00  0.00    +0.000 C 
ATOM     25  C   UNL     1       6.992  19.628   0.473  0.00  0.00    +0.000 C 
ATOM     26  C   UNL     1      13.487  16.827   2.219  0.00  0.00    +0.000 C 
ATOM     27  C   UNL     1       6.472  18.404   0.249  0.00  0.00    +0.000 C 
ATOM     28  C   UNL     1       5.799  18.053  -1.059  0.00  0.00    +0.000 C 
ATOM     29  C   UNL     1       6.878  17.298   1.049  0.00  0.00    +0.000 C 
ATOM     30  C   UNL     1       7.472  16.390   1.567  0.00  0.00    +0.000 C 
ENDROOT
BRANCH  17  31
ATOM     31  O   UNL     1      14.375  22.799  -1.791  0.00  0.00    +0.000 OA
ATOM     32  H   UNL     1      15.023  22.450  -1.151  0.00  0.00    +0.000 HD
ENDBRANCH  17  31
BRANCH  17  33
ATOM     33  C   UNL     1      14.060  20.713  -2.860  0.00  0.00    +0.000 C 
BRANCH  33  34
ATOM     34  O   UNL     1      14.620  19.796  -3.646  0.00  0.00    +0.000 OA
ATOM     35  H   UNL     1      14.871  19.002  -3.137  0.00  0.00    +0.000 HD
ENDBRANCH  33  34
ENDBRANCH  17  33
BRANCH  24  36
ATOM     36  C   UNL     1      10.324  14.552   2.093  0.00  0.00    +0.000 C 
BRANCH  36  37
ATOM     37  C   UNL     1      11.215  13.454   2.683  0.00  0.00    +0.000 C 
ATOM     38  C   UNL     1      11.889  12.589   3.171  0.00  0.00    +0.000 C 
BRANCH  38  39
ATOM     39  C   UNL     1      12.729  11.480   3.813  0.00  0.00    +0.000 C 
ATOM     40  C   UNL     1      13.381  10.615   4.329  0.00  0.00    +0.000 C 
BRANCH  40  41
ATOM     41  C   UNL     1      14.208   9.511   4.995  0.00  0.00    +0.000 C 
ATOM     42  C   UNL     1      14.927   8.551   5.576  0.00  0.00    +0.000 C 
ENDBRANCH  40  41
ENDBRANCH  38  39
ENDBRANCH  36  37
ENDBRANCH  24  36
BRANCH  15  43
ATOM     43  O   UNL     1      14.909  20.355   2.371  0.00  0.00    +0.000 OA
BRANCH  43  45
ATOM     44  O   UNL     1      16.011  18.759   1.080  0.00  0.00    +0.000 OA
ATOM     45  C   UNL     1      15.996  19.731   1.822  0.00  0.00    +0.000 C 
BRANCH  45  46
ATOM     46  C   UNL     1      17.221  20.353   2.223  0.00  0.00    +0.000 C 
ATOM     47  C   UNL     1      18.242  20.876   2.564  0.00  0.00    +0.000 C 
ATOM     48  C   UNL     1      19.554  21.542   2.985  0.00  0.00    +0.000 C 
ENDBRANCH  45  46
ENDBRANCH  43  45
ENDBRANCH  15  43
TORSDOF 10
ENDMDL
MODEL 5
REMARK VINA RESULT:      -5.6     16.260     21.722
REMARK  Name = Thapsigargin.pdbqt.pdb
REMARK  10 active torsions:
REMARK  status: ('A' for Active; 'I' for Inactive)
REMARK    1  A    between atoms: O_2  and  C_24
REMARK    2  A    between atoms: C_17  and  O_43
REMARK    3  A    between atoms: C_19  and  C_24
REMARK    4  A    between atoms: C_19  and  O_47
REMARK    5  A    between atoms: C_27  and  C_35
REMARK    6  A    between atoms: C_35  and  C_36
REMARK    7  A    between atoms: C_37  and  C_38
REMARK    8  A    between atoms: C_39  and  C_40
REMARK    9  A    between atoms: C_42  and  O_43
REMARK   10  A    between atoms: C_42  and  C_44
REMARK                            x       y       z     vdW  Elec       q    Type
REMARK                         _______ _______ _______ _____ _____    ______ ____
ROOT
ATOM      1  O   UNL     1      13.394  18.579  30.670  0.00  0.00    +0.000 OA
ATOM      2  O   UNL     1       7.946  20.191  32.772  0.00  0.00    +0.000 OA
ATOM      3  O   UNL     1       8.201  21.620  30.666  0.00  0.00    +0.000 OA
ATOM      4  O   UNL     1      11.375  22.747  33.134  0.00  0.00    +0.000 OA
ATOM      5  O   UNL     1      14.750  17.186  29.468  0.00  0.00    +0.000 OA
ATOM      6  O   UNL     1       7.650  20.292  30.345  0.00  0.00    +0.000 OA
ATOM      7  O   UNL     1       7.368  23.825  31.328  0.00  0.00    +0.000 OA
ATOM      8  O   UNL     1      13.175  22.806  31.413  0.00  0.00    +0.000 OA
ATOM      9  C   UNL     1      10.338  19.368  32.996  0.00  0.00    +0.000 C 
ATOM     10  C   UNL     1      11.661  17.092  31.094  0.00  0.00    +0.000 C 
ATOM     11  C   UNL     1      12.189  18.400  31.338  0.00  0.00    +0.000 C 
ATOM     12  C   UNL     1       9.402  18.214  33.123  0.00  0.00    +0.000 C 
ATOM     13  C   UNL     1      11.638  19.336  32.141  0.00  0.00    +0.000 C 
ATOM     14  C   UNL     1      10.607  16.733  31.751  0.00  0.00    +0.000 C 
ATOM     15  C   UNL     1       9.558  16.957  32.668  0.00  0.00    +0.000 C 
ATOM     16  C   UNL     1      10.485  20.547  33.819  0.00  0.00    +0.000 C 
ATOM     17  C   UNL     1      12.563  16.359  30.187  0.00  0.00    +0.000 C 
ATOM     18  C   UNL     1      11.500  21.361  33.277  0.00  0.00    +0.000 C 
ATOM     19  C   UNL     1      12.252  20.638  32.420  0.00  0.00    +0.000 C 
ATOM     20  C   UNL     1       9.027  19.370  32.288  0.00  0.00    +0.000 C 
ATOM     21  C   UNL     1      13.685  17.390  30.044  0.00  0.00    +0.000 C 
ATOM     22  C   UNL     1      13.029  21.506  31.642  0.00  0.00    +0.000 C 
ATOM     23  C   UNL     1       7.719  19.479  31.548  0.00  0.00    +0.000 C 
ATOM     24  C   UNL     1       7.160  22.535  30.855  0.00  0.00    +0.000 C 
ATOM     25  C   UNL     1      11.974  23.345  31.963  0.00  0.00    +0.000 C 
ATOM     26  C   UNL     1       6.599  18.436  31.658  0.00  0.00    +0.000 C 
ATOM     27  C   UNL     1      11.261  24.240  31.248  0.00  0.00    +0.000 C 
ATOM     28  C   UNL     1      11.811  24.871  29.989  0.00  0.00    +0.000 C 
ATOM     29  C   UNL     1       9.849  24.323  31.413  0.00  0.00    +0.000 C 
ATOM     30  C   UNL     1       8.661  24.135  31.403  0.00  0.00    +0.000 C 
ENDROOT
BRANCH  17  31
ATOM     31  O   UNL     1      12.997  15.146  30.779  0.00  0.00    +0.000 OA
ATOM     32  H   UNL     1      13.608  14.744  30.134  0.00  0.00    +0.000 HD
ENDBRANCH  17  31
BRANCH  17  33
ATOM     33  C   UNL     1      11.896  16.075  28.904  0.00  0.00    +0.000 C 
BRANCH  33  34
ATOM     34  O   UNL     1      11.312  15.830  27.732  0.00  0.00    +0.000 OA
ATOM     35  H   UNL     1      11.781  15.127  27.246  0.00  0.00    +0.000 HD
ENDBRANCH  33  34
ENDBRANCH  17  33
BRANCH  24  36
ATOM     36  C   UNL     1       5.915  22.172  30.776  0.00  0.00    +0.000 C 
BRANCH  36  37
ATOM     37  C   UNL     1       4.453  21.737  30.634  0.00  0.00    +0.000 C 
ATOM     38  C   UNL     1       3.315  21.382  30.489  0.00  0.00    +0.000 C 
BRANCH  38  39
ATOM     39  C   UNL     1       1.871  20.917  30.281  0.00  0.00    +0.000 C 
ATOM     40  C   UNL     1       0.738  20.547  30.132  0.00  0.00    +0.000 C 
BRANCH  40  41
ATOM     41  C   UNL     1      -0.707  20.075  29.951  0.00  0.00    +0.000 C 
ATOM     42  C   UNL     1      -1.964  19.661  29.792  0.00  0.00    +0.000 C 
ENDBRANCH  40  41
ENDBRANCH  38  39
ENDBRANCH  36  37
ENDBRANCH  24  36
BRANCH  15  43
ATOM     43  O   UNL     1       8.907  15.886  33.290  0.00  0.00    +0.000 OA
BRANCH  43  45
ATOM     44  O   UNL     1       9.619  13.817  32.489  0.00  0.00    +0.000 OA
ATOM     45  C   UNL     1       8.834  14.755  32.523  0.00  0.00    +0.000 C 
BRANCH  45  46
ATOM     46  C   UNL     1       7.673  14.757  31.687  0.00  0.00    +0.000 C 
ATOM     47  C   UNL     1       6.702  14.752  30.987  0.00  0.00    +0.000 C 
ATOM     48  C   UNL     1       5.461  14.762  30.091  0.00  0.00    +0.000 C 
ENDBRANCH  45  46
ENDBRANCH  43  45
ENDBRANCH  15  43
TORSDOF 10
ENDMDL
MODEL 6
REMARK VINA RESULT:      -5.6      3.350      9.630
REMARK  Name = Thapsigargin.pdbqt.pdb
REMARK  10 active torsions:
REMARK  status: ('A' for Active; 'I' for Inactive)
REMARK    1  A    between atoms: O_2  and  C_24
REMARK    2  A    between atoms: C_17  and  O_43
REMARK    3  A    between atoms: C_19  and  C_24
REMARK    4  A    between atoms: C_19  and  O_47
REMARK    5  A    between atoms: C_27  and  C_35
REMARK    6  A    between atoms: C_35  and  C_36
REMARK    7  A    between atoms: C_37  and  C_38
REMARK    8  A    between atoms: C_39  and  C_40
REMARK    9  A    between atoms: C_42  and  O_43
REMARK   10  A    between atoms: C_42  and  C_44
REMARK                            x       y       z     vdW  Elec       q    Type
REMARK                         _______ _______ _______ _____ _____    ______ ____
ROOT
ATOM      1  O   UNL     1      28.353  14.601  24.685  0.00  0.00    +0.000 OA
ATOM      2  O   UNL     1      24.279  10.121  24.494  0.00  0.00    +0.000 OA
ATOM      3  O   UNL     1      26.415   8.932  25.245  0.00  0.00    +0.000 OA
ATOM      4  O   UNL     1      27.333  10.553  21.509  0.00  0.00    +0.000 OA
ATOM      5  O   UNL     1      29.365  16.349  25.755  0.00  0.00    +0.000 OA
ATOM      6  O   UNL     1      25.689   9.500  26.395  0.00  0.00    +0.000 OA
ATOM      7  O   UNL     1      26.434   6.852  23.953  0.00  0.00    +0.000 OA
ATOM      8  O   UNL     1      29.595  11.448  22.043  0.00  0.00    +0.000 OA
ATOM      9  C   UNL     1      25.283  12.339  23.772  0.00  0.00    +0.000 C 
ATOM     10  C   UNL     1      26.335  14.615  25.837  0.00  0.00    +0.000 C 
ATOM     11  C   UNL     1      27.087  14.035  24.765  0.00  0.00    +0.000 C 
ATOM     12  C   UNL     1      24.105  12.591  24.650  0.00  0.00    +0.000 C 
ATOM     13  C   UNL     1      26.636  13.097  23.903  0.00  0.00    +0.000 C 
ATOM     14  C   UNL     1      25.093  14.279  25.955  0.00  0.00    +0.000 C 
ATOM     15  C   UNL     1      23.942  13.554  25.576  0.00  0.00    +0.000 C 
ATOM     16  C   UNL     1      25.366  11.686  22.485  0.00  0.00    +0.000 C 
ATOM     17  C   UNL     1      27.162  15.620  26.530  0.00  0.00    +0.000 C 
ATOM     18  C   UNL     1      26.711  11.678  22.062  0.00  0.00    +0.000 C 
ATOM     19  C   UNL     1      27.417  12.583  22.773  0.00  0.00    +0.000 C 
ATOM     20  C   UNL     1      24.910  11.370  24.840  0.00  0.00    +0.000 C 
ATOM     21  C   UNL     1      28.414  15.580  25.650  0.00  0.00    +0.000 C 
ATOM     22  C   UNL     1      28.786  12.343  22.597  0.00  0.00    +0.000 C 
ATOM     23  C   UNL     1      24.606  10.319  25.876  0.00  0.00    +0.000 C 
ATOM     24  C   UNL     1      26.039   7.597  25.058  0.00  0.00    +0.000 C 
ATOM     25  C   UNL     1      28.722  10.338  21.841  0.00  0.00    +0.000 C 
ATOM     26  C   UNL     1      23.371  10.364  26.786  0.00  0.00    +0.000 C 
ATOM     27  C   UNL     1      29.122   9.104  22.212  0.00  0.00    +0.000 C 
ATOM     28  C   UNL     1      30.552   8.819  22.614  0.00  0.00    +0.000 C 
ATOM     29  C   UNL     1      28.162   8.135  22.622  0.00  0.00    +0.000 C 
ATOM     30  C   UNL     1      27.338   7.488  23.210  0.00  0.00    +0.000 C 
ENDROOT
BRANCH  17  31
ATOM     31  O   UNL     1      26.525  16.885  26.529  0.00  0.00    +0.000 OA
ATOM     32  H   UNL     1      25.598  16.711  26.278  0.00  0.00    +0.000 HD
ENDBRANCH  17  31
BRANCH  17  33
ATOM     33  C   UNL     1      27.438  15.202  27.916  0.00  0.00    +0.000 C 
BRANCH  33  34
ATOM     34  O   UNL     1      27.667  14.837  29.176  0.00  0.00    +0.000 OA
ATOM     35  H   UNL     1      28.600  14.582  29.305  0.00  0.00    +0.000 HD
ENDBRANCH  33  34
ENDBRANCH  17  33
BRANCH  24  36
ATOM     36  C   UNL     1      25.144   7.032  25.812  0.00  0.00    +0.000 C 
BRANCH  36  37
ATOM     37  C   UNL     1      24.061   6.357  26.659  0.00  0.00    +0.000 C 
ATOM     38  C   UNL     1      23.227   5.795  27.315  0.00  0.00    +0.000 C 
BRANCH  38  39
ATOM     39  C   UNL     1      22.176   5.055  28.148  0.00  0.00    +0.000 C 
ATOM     40  C   UNL     1      21.344   4.472  28.788  0.00  0.00    +0.000 C 
BRANCH  40  41
ATOM     41  C   UNL     1      20.279   3.726  29.597  0.00  0.00    +0.000 C 
ATOM     42  C   UNL     1      19.351   3.080  30.302  0.00  0.00    +0.000 C 
ENDBRANCH  40  41
ENDBRANCH  38  39
ENDBRANCH  36  37
ENDBRANCH  24  36
BRANCH  15  43
ATOM     43  O   UNL     1      22.663  14.004  25.923  0.00  0.00    +0.000 OA
BRANCH  43  45
ATOM     44  O   UNL     1      22.618  14.914  28.067  0.00  0.00    +0.000 OA
ATOM     45  C   UNL     1      22.657  15.012  26.848  0.00  0.00    +0.000 C 
BRANCH  45  46
ATOM     46  C   UNL     1      22.696  16.300  26.227  0.00  0.00    +0.000 C 
ATOM     47  C   UNL     1      22.735  17.378  25.706  0.00  0.00    +0.000 C 
ATOM     48  C   UNL     1      22.771  18.758  25.045  0.00  0.00    +0.000 C 
ENDBRANCH  45  46
ENDBRANCH  43  45
ENDBRANCH  15  43
TORSDOF 10
ENDMDL
MODEL 7
REMARK VINA RESULT:      -5.5     24.077     26.885
REMARK  Name = Thapsigargin.pdbqt.pdb
REMARK  10 active torsions:
REMARK  status: ('A' for Active; 'I' for Inactive)
REMARK    1  A    between atoms: O_2  and  C_24
REMARK    2  A    between atoms: C_17  and  O_43
REMARK    3  A    between atoms: C_19  and  C_24
REMARK    4  A    between atoms: C_19  and  O_47
REMARK    5  A    between atoms: C_27  and  C_35
REMARK    6  A    between atoms: C_35  and  C_36
REMARK    7  A    between atoms: C_37  and  C_38
REMARK    8  A    between atoms: C_39  and  C_40
REMARK    9  A    between atoms: C_42  and  O_43
REMARK   10  A    between atoms: C_42  and  C_44
REMARK                            x       y       z     vdW  Elec       q    Type
REMARK                         _______ _______ _______ _____ _____    ______ ____
ROOT
ATOM      1  O   UNL     1      18.048  11.762   1.106  0.00  0.00    +0.000 OA
ATOM      2  O   UNL     1      13.618  15.234   3.346  0.00  0.00    +0.000 OA
ATOM      3  O   UNL     1      14.261  16.438   1.183  0.00  0.00    +0.000 OA
ATOM      4  O   UNL     1      17.739  16.423   3.492  0.00  0.00    +0.000 OA
ATOM      5  O   UNL     1      18.770   9.956  -0.095  0.00  0.00    +0.000 OA
ATOM      6  O   UNL     1      13.263  15.383   0.929  0.00  0.00    +0.000 OA
ATOM      7  O   UNL     1      14.287  18.808   1.796  0.00  0.00    +0.000 OA
ATOM      8  O   UNL     1      19.363  15.809   1.705  0.00  0.00    +0.000 OA
ATOM      9  C   UNL     1      15.576  13.625   3.512  0.00  0.00    +0.000 C 
ATOM     10  C   UNL     1      15.924  10.990   1.645  0.00  0.00    +0.000 C 
ATOM     11  C   UNL     1      16.890  12.033   1.823  0.00  0.00    +0.000 C 
ATOM     12  C   UNL     1      14.301  12.878   3.714  0.00  0.00    +0.000 C 
ATOM     13  C   UNL     1      16.740  13.119   2.612  0.00  0.00    +0.000 C 
ATOM     14  C   UNL     1      14.844  11.040   2.352  0.00  0.00    +0.000 C 
ATOM     15  C   UNL     1      13.984  11.638   3.298  0.00  0.00    +0.000 C 
ATOM     16  C   UNL     1      16.165  14.693   4.287  0.00  0.00    +0.000 C 
ATOM     17  C   UNL     1      16.468   9.967   0.733  0.00  0.00    +0.000 C 
ATOM     18  C   UNL     1      17.376  15.086   3.680  0.00  0.00    +0.000 C 
ATOM     19  C   UNL     1      17.785  14.127   2.822  0.00  0.00    +0.000 C 
ATOM     20  C   UNL     1      14.317  14.075   2.853  0.00  0.00    +0.000 C 
ATOM     21  C   UNL     1      17.873  10.533   0.512  0.00  0.00    +0.000 C 
ATOM     22  C   UNL     1      18.781  14.649   1.986  0.00  0.00    +0.000 C 
ATOM     23  C   UNL     1      13.098  14.623   2.157  0.00  0.00    +0.000 C 
ATOM     24  C   UNL     1      13.617  17.665   1.376  0.00  0.00    +0.000 C 
ATOM     25  C   UNL     1      18.455  16.748   2.280  0.00  0.00    +0.000 C 
ATOM     26  C   UNL     1      11.690  14.045   2.345  0.00  0.00    +0.000 C 
ATOM     27  C   UNL     1      18.069  17.822   1.560  0.00  0.00    +0.000 C 
ATOM     28  C   UNL     1      18.746  18.192   0.259  0.00  0.00    +0.000 C 
ATOM     29  C   UNL     1      16.785  18.401   1.773  0.00  0.00    +0.000 C 
ATOM     30  C   UNL     1      15.608  18.644   1.812  0.00  0.00    +0.000 C 
ENDROOT
BRANCH  17  31
ATOM     31  O   UNL     1      16.475   8.692   1.351  0.00  0.00    +0.000 OA
ATOM     32  H   UNL     1      16.186   8.846   2.270  0.00  0.00    +0.000 HD
ENDBRANCH  17  31
BRANCH  17  33
ATOM     33  C   UNL     1      15.685   9.911  -0.515  0.00  0.00    +0.000 C 
BRANCH  33  34
ATOM     34  O   UNL     1      14.998   9.860  -1.655  0.00  0.00    +0.000 OA
ATOM     35  H   UNL     1      15.125  10.674  -2.178  0.00  0.00    +0.000 HD
ENDBRANCH  33  34
ENDBRANCH  17  33
BRANCH  24  36
ATOM     36  C   UNL     1      12.322  17.762   1.356  0.00  0.00    +0.000 C 
BRANCH  36  37
ATOM     37  C   UNL     1      10.797  17.898   1.287  0.00  0.00    +0.000 C 
ATOM     38  C   UNL     1       9.600  17.969   1.239  0.00  0.00    +0.000 C 
BRANCH  38  39
ATOM     39  C   UNL     1       8.070  18.033   1.187  0.00  0.00    +0.000 C 
ATOM     40  C   UNL     1       6.872  18.089   1.132  0.00  0.00    +0.000 C 
BRANCH  40  41
ATOM     41  C   UNL     1       5.344  18.160   1.054  0.00  0.00    +0.000 C 
ATOM     42  C   UNL     1       4.015  18.222   0.983  0.00  0.00    +0.000 C 
ENDBRANCH  40  41
ENDBRANCH  38  39
ENDBRANCH  36  37
ENDBRANCH  24  36
BRANCH  15  43
ATOM     43  O   UNL     1      13.027  10.878   3.981  0.00  0.00    +0.000 OA
BRANCH  43  45
ATOM     44  O   UNL     1      14.215  10.009   5.787  0.00  0.00    +0.000 OA
ATOM     45  C   UNL     1      13.555   9.888   4.764  0.00  0.00    +0.000 C 
BRANCH  45  46
ATOM     46  C   UNL     1      13.256   8.588   4.245  0.00  0.00    +0.000 C 
ATOM     47  C   UNL     1      13.000   7.503   3.811  0.00  0.00    +0.000 C 
ATOM     48  C   UNL     1      12.686   6.109   3.261  0.00  0.00    +0.000 C 
ENDBRANCH  45  46
ENDBRANCH  43  45
ENDBRANCH  15  43
TORSDOF 10
ENDMDL
MODEL 8
REMARK VINA RESULT:      -5.5     34.216     38.112
REMARK  Name = Thapsigargin.pdbqt.pdb
REMARK  10 active torsions:
REMARK  status: ('A' for Active; 'I' for Inactive)
REMARK    1  A    between atoms: O_2  and  C_24
REMARK    2  A    between atoms: C_17  and  O_43
REMARK    3  A    between atoms: C_19  and  C_24
REMARK    4  A    between atoms: C_19  and  O_47
REMARK    5  A    between atoms: C_27  and  C_35
REMARK    6  A    between atoms: C_35  and  C_36
REMARK    7  A    between atoms: C_37  and  C_38
REMARK    8  A    between atoms: C_39  and  C_40
REMARK    9  A    between atoms: C_42  and  O_43
REMARK   10  A    between atoms: C_42  and  C_44
REMARK                            x       y       z     vdW  Elec       q    Type
REMARK                         _______ _______ _______ _____ _____    ______ ____
ROOT
ATOM      1  O   UNL     1       2.567  31.111  14.844  0.00  0.00    +0.000 OA
ATOM      2  O   UNL     1      -1.929  29.026  11.359  0.00  0.00    +0.000 OA
ATOM      3  O   UNL     1      -3.168  30.192  13.269  0.00  0.00    +0.000 OA
ATOM      4  O   UNL     1      -0.914  27.196  15.107  0.00  0.00    +0.000 OA
ATOM      5  O   UNL     1       4.137  32.689  15.364  0.00  0.00    +0.000 OA
ATOM      6  O   UNL     1      -2.822  31.144  12.200  0.00  0.00    +0.000 OA
ATOM      7  O   UNL     1      -4.999  28.663  13.823  0.00  0.00    +0.000 OA
ATOM      8  O   UNL     1      -0.059  28.513  17.040  0.00  0.00    +0.000 OA
ATOM      9  C   UNL     1       0.407  28.985  12.357  0.00  0.00    +0.000 C 
ATOM     10  C   UNL     1       2.330  31.593  12.584  0.00  0.00    +0.000 C 
ATOM     11  C   UNL     1       1.960  30.720  13.657  0.00  0.00    +0.000 C 
ATOM     12  C   UNL     1       0.473  29.498  10.958  0.00  0.00    +0.000 C 
ATOM     13  C   UNL     1       1.169  29.630  13.550  0.00  0.00    +0.000 C 
ATOM     14  C   UNL     1       1.944  31.281  11.391  0.00  0.00    +0.000 C 
ATOM     15  C   UNL     1       1.261  30.469  10.460  0.00  0.00    +0.000 C 
ATOM     16  C   UNL     1      -0.017  27.699  12.861  0.00  0.00    +0.000 C 
ATOM     17  C   UNL     1       3.226  32.647  13.094  0.00  0.00    +0.000 C 
ATOM     18  C   UNL     1       0.083  27.702  14.267  0.00  0.00    +0.000 C 
ATOM     19  C   UNL     1       0.875  28.721  14.663  0.00  0.00    +0.000 C 
ATOM     20  C   UNL     1      -0.740  29.731  11.764  0.00  0.00    +0.000 C 
ATOM     21  C   UNL     1       3.370  32.188  14.547  0.00  0.00    +0.000 C 
ATOM     22  C   UNL     1       0.707  28.929  16.038  0.00  0.00    +0.000 C 
ATOM     23  C   UNL     1      -1.958  30.456  11.255  0.00  0.00    +0.000 C 
ATOM     24  C   UNL     1      -4.462  29.699  13.069  0.00  0.00    +0.000 C 
ATOM     25  C   UNL     1      -1.143  27.891  16.352  0.00  0.00    +0.000 C 
ATOM     26  C   UNL     1      -2.102  30.949   9.809  0.00  0.00    +0.000 C 
ATOM     27  C   UNL     1      -2.410  28.173  16.720  0.00  0.00    +0.000 C 
ATOM     28  C   UNL     1      -2.718  28.936  17.989  0.00  0.00    +0.000 C 
ATOM     29  C   UNL     1      -3.461  28.122  15.761  0.00  0.00    +0.000 C 
ATOM     30  C   UNL     1      -4.221  28.331  14.853  0.00  0.00    +0.000 C 
ENDROOT
BRANCH  17  31
ATOM     31  O   UNL     1       4.455  32.648  12.389  0.00  0.00    +0.000 OA
ATOM     32  H   UNL     1       5.150  32.628  13.073  0.00  0.00    +0.000 HD
ENDBRANCH  17  31
BRANCH  17  33
ATOM     33  C   UNL     1       2.588  33.972  12.986  0.00  0.00    +0.000 C 
BRANCH  33  34
ATOM     34  O   UNL     1       2.035  35.179  12.886  0.00  0.00    +0.000 OA
ATOM     35  H   UNL     1       1.340  35.304  13.559  0.00  0.00    +0.000 HD
ENDBRANCH  33  34
ENDBRANCH  17  33
BRANCH  24  36
ATOM     36  C   UNL     1      -5.171  30.054  12.039  0.00  0.00    +0.000 C 
BRANCH  36  37
ATOM     37  C   UNL     1      -5.971  30.454  10.796  0.00  0.00    +0.000 C 
ATOM     38  C   UNL     1      -6.616  30.792   9.841  0.00  0.00    +0.000 C 
BRANCH  38  39
ATOM     39  C   UNL     1      -7.449  31.245   8.638  0.00  0.00    +0.000 C 
ATOM     40  C   UNL     1      -8.106  31.586   7.693  0.00  0.00    +0.000 C 
BRANCH  40  41
ATOM     41  C   UNL     1      -8.948  32.014   6.487  0.00  0.00    +0.000 C 
ATOM     42  C   UNL     1      -9.681  32.383   5.438  0.00  0.00    +0.000 C 
ENDBRANCH  40  41
ENDBRANCH  38  39
ENDBRANCH  36  37
ENDBRANCH  24  36
BRANCH  15  43
ATOM     43  O   UNL     1       1.611  30.481   9.104  0.00  0.00    +0.000 OA
BRANCH  43  45
ATOM     44  O   UNL     1       0.470  32.283   8.168  0.00  0.00    +0.000 OA
ATOM     45  C   UNL     1       1.493  31.706   8.508  0.00  0.00    +0.000 C 
BRANCH  45  46
ATOM     46  C   UNL     1       2.771  32.311   8.287  0.00  0.00    +0.000 C 
ATOM     47  C   UNL     1       3.838  32.821   8.098  0.00  0.00    +0.000 C 
ATOM     48  C   UNL     1       5.208  33.461   7.864  0.00  0.00    +0.000 C 
ENDBRANCH  45  46
ENDBRANCH  43  45
ENDBRANCH  15  43
TORSDOF 10
ENDMDL
MODEL 9
REMARK VINA RESULT:      -5.3      7.902     12.488
REMARK  Name = Thapsigargin.pdbqt.pdb
REMARK  10 active torsions:
REMARK  status: ('A' for Active; 'I' for Inactive)
REMARK    1  A    between atoms: O_2  and  C_24
REMARK    2  A    between atoms: C_17  and  O_43
REMARK    3  A    between atoms: C_19  and  C_24
REMARK    4  A    between atoms: C_19  and  O_47
REMARK    5  A    between atoms: C_27  and  C_35
REMARK    6  A    between atoms: C_35  and  C_36
REMARK    7  A    between atoms: C_37  and  C_38
REMARK    8  A    between atoms: C_39  and  C_40
REMARK    9  A    between atoms: C_42  and  O_43
REMARK   10  A    between atoms: C_42  and  C_44
REMARK                            x       y       z     vdW  Elec       q    Type
REMARK                         _______ _______ _______ _____ _____    ______ ____
ROOT
ATOM      1  O   UNL     1      24.150  15.312  26.484  0.00  0.00    +0.000 OA
ATOM      2  O   UNL     1      21.602  17.850  31.359  0.00  0.00    +0.000 OA
ATOM      3  O   UNL     1      20.321  18.912  29.416  0.00  0.00    +0.000 OA
ATOM      4  O   UNL     1      24.305  20.008  28.817  0.00  0.00    +0.000 OA
ATOM      5  O   UNL     1      24.334  13.606  24.974  0.00  0.00    +0.000 OA
ATOM      6  O   UNL     1      19.720  17.626  29.810  0.00  0.00    +0.000 OA
ATOM      7  O   UNL     1      20.134  21.273  30.034  0.00  0.00    +0.000 OA
ATOM      8  O   UNL     1      24.433  19.599  26.363  0.00  0.00    +0.000 OA
ATOM      9  C   UNL     1      23.509  16.793  30.057  0.00  0.00    +0.000 C 
ATOM     10  C   UNL     1      23.203  14.119  28.238  0.00  0.00    +0.000 C 
ATOM     11  C   UNL     1      23.734  15.378  27.808  0.00  0.00    +0.000 C 
ATOM     12  C   UNL     1      22.933  15.789  30.998  0.00  0.00    +0.000 C 
ATOM     13  C   UNL     1      23.868  16.481  28.576  0.00  0.00    +0.000 C 
ATOM     14  C   UNL     1      22.892  13.989  29.486  0.00  0.00    +0.000 C 
ATOM     15  C   UNL     1      22.754  14.469  30.806  0.00  0.00    +0.000 C 
ATOM     16  C   UNL     1      24.162  18.054  30.323  0.00  0.00    +0.000 C 
ATOM     17  C   UNL     1      23.249  13.159  27.120  0.00  0.00    +0.000 C 
ATOM     18  C   UNL     1      24.516  18.653  29.097  0.00  0.00    +0.000 C 
ATOM     19  C   UNL     1      24.487  17.728  28.114  0.00  0.00    +0.000 C 
ATOM     20  C   UNL     1      22.069  16.845  30.439  0.00  0.00    +0.000 C 
ATOM     21  C   UNL     1      23.951  14.017  26.066  0.00  0.00    +0.000 C 
ATOM     22  C   UNL     1      24.505  18.373  26.871  0.00  0.00    +0.000 C 
ATOM     23  C   UNL     1      20.608  16.997  30.774  0.00  0.00    +0.000 C 
ATOM     24  C   UNL     1      19.678  19.961  30.081  0.00  0.00    +0.000 C 
ATOM     25  C   UNL     1      23.929  20.351  27.466  0.00  0.00    +0.000 C 
ATOM     26  C   UNL     1      19.885  16.122  31.806  0.00  0.00    +0.000 C 
ATOM     27  C   UNL     1      22.905  21.208  27.269  0.00  0.00    +0.000 C 
ATOM     28  C   UNL     1      22.432  21.576  25.881  0.00  0.00    +0.000 C 
ATOM     29  C   UNL     1      21.989  21.481  28.325  0.00  0.00    +0.000 C 
ATOM     30  C   UNL     1      21.121  21.436  29.155  0.00  0.00    +0.000 C 
ENDROOT
BRANCH  17  31
ATOM     31  O   UNL     1      23.989  12.004  27.478  0.00  0.00    +0.000 OA
ATOM     32  H   UNL     1      24.422  11.706  26.657  0.00  0.00    +0.000 HD
ENDBRANCH  17  31
BRANCH  17  33
ATOM     33  C   UNL     1      21.887  12.769  26.710  0.00  0.00    +0.000 C 
BRANCH  33  34
ATOM     34  O   UNL     1      20.666  12.414  26.316  0.00  0.00    +0.000 OA
ATOM     35  H   UNL     1      19.982  12.925  26.789  0.00  0.00    +0.000 HD
ENDBRANCH  33  34
ENDBRANCH  17  33
BRANCH  24  36
ATOM     36  C   UNL     1      18.724  19.740  30.935  0.00  0.00    +0.000 C 
BRANCH  36  37
ATOM     37  C   UNL     1      17.581  19.525  31.932  0.00  0.00    +0.000 C 
ATOM     38  C   UNL     1      16.687  19.321  32.706  0.00  0.00    +0.000 C 
BRANCH  38  39
ATOM     39  C   UNL     1      15.549  19.034  33.691  0.00  0.00    +0.000 C 
ATOM     40  C   UNL     1      14.664  18.797  34.467  0.00  0.00    +0.000 C 
BRANCH  40  41
ATOM     41  C   UNL     1      13.542  18.490  35.462  0.00  0.00    +0.000 C 
ATOM     42  C   UNL     1      12.566  18.221  36.330  0.00  0.00    +0.000 C 
ENDBRANCH  40  41
ENDBRANCH  38  39
ENDBRANCH  36  37
ENDBRANCH  24  36
BRANCH  15  43
ATOM     43  O   UNL     1      22.723  13.586  31.891  0.00  0.00    +0.000 OA
BRANCH  43  45
ATOM     44  O   UNL     1      20.867  12.298  31.324  0.00  0.00    +0.000 OA
ATOM     45  C   UNL     1      21.506  12.996  32.098  0.00  0.00    +0.000 C 
BRANCH  45  46
ATOM     46  C   UNL     1      20.991  13.291  33.400  0.00  0.00    +0.000 C 
ATOM     47  C   UNL     1      20.555  13.539  34.487  0.00  0.00    +0.000 C 
ATOM     48  C   UNL     1      20.011  13.856  35.882  0.00  0.00    +0.000 C 
ENDBRANCH  45  46
ENDBRANCH  43  45
ENDBRANCH  15  43
TORSDOF 10
ENDMDL
