MODEL 1
REMARK VINA RESULT:      -5.2      0.000      0.000
REMARK  Name = Thioguanosine.pdbqt.pdb
REMARK  5 active torsions:
REMARK  status: ('A' for Active; 'I' for Inactive)
REMARK    1  A    between atoms: N_2  and  C1*_12
REMARK    2  A    between atoms: C4*_14  and  C5*_17
REMARK    3  A    between atoms: C3*_15  and  O3*_20
REMARK    4  A    between atoms: C2*_16  and  O2*_22
REMARK    5  A    between atoms: C5*_17  and  O5*_18
REMARK                            x       y       z     vdW  Elec       q    Type
REMARK                         _______ _______ _______ _____ _____    ______ ____
ROOT
ATOM      1  S   UNL     1       5.182  21.687  31.908  0.00  0.00    +0.000 S 
ATOM      2  N   UNL     1       7.499  24.853  28.974  0.00  0.00    +0.000 N 
ATOM      3  N   UNL     1       8.933  23.114  29.963  0.00  0.00    +0.000 N 
ATOM      4  N   UNL     1       5.563  24.143  29.909  0.00  0.00    +0.000 NA
ATOM      5  N   UNL     1       7.866  21.577  31.431  0.00  0.00    +0.000 NA
ATOM      6  C   UNL     1       7.767  23.748  29.741  0.00  0.00    +0.000 A 
ATOM      7  C   UNL     1       6.130  25.023  29.108  0.00  0.00    +0.000 A 
ATOM      8  C   UNL     1       6.595  23.335  30.321  0.00  0.00    +0.000 A 
ATOM      9  C   UNL     1       6.624  22.181  31.221  0.00  0.00    +0.000 A 
ATOM     10  C   UNL     1       8.914  22.045  30.817  0.00  0.00    +0.000 A 
ATOM     11  H   UNL     1       9.817  23.431  29.571  0.00  0.00    +0.000 HD
ATOM     12  N   UNL     1      10.129  21.474  30.998  0.00  0.00    +0.000 N 
ATOM     13  H   UNL     1      10.641  21.302  30.143  0.00  0.00    +0.000 HD
ATOM     14  H   UNL     1      10.042  20.618  31.541  0.00  0.00    +0.000 HD
ENDROOT
BRANCH   2  15
ATOM     15  C1* UNL     1       8.336  25.666  28.235  0.00  0.00    +0.000 A 
ATOM     16  O4* UNL     1       9.219  26.586  28.849  0.00  0.00    +0.000 OA
ATOM     17  C4* UNL     1       9.930  27.280  27.857  0.00  0.00    +0.000 A 
ATOM     18  C3* UNL     1       9.503  26.792  26.577  0.00  0.00    +0.000 A 
ATOM     19  C2* UNL     1       8.519  25.780  26.809  0.00  0.00    +0.000 A 
BRANCH  18  20
ATOM     20  O3* UNL     1       9.440  27.572  25.453  0.00  0.00    +0.000 OA
ATOM     21  H3* UNL     1      10.145  27.344  24.819  0.00  0.00    +0.000 HD
ENDBRANCH  18  20
BRANCH  19  22
ATOM     22  O2* UNL     1       7.513  25.563  25.908  0.00  0.00    +0.000 OA
ATOM     23  H2* UNL     1       7.282  24.612  25.903  0.00  0.00    +0.000 HD
ENDBRANCH  19  22
BRANCH  17  24
ATOM     24  C5* UNL     1      10.696  28.428  28.130  0.00  0.00    +0.000 C 
BRANCH  24  25
ATOM     25  O5* UNL     1      11.407  29.524  28.373  0.00  0.00    +0.000 OA
ATOM     26  H5* UNL     1      11.027  30.020  29.119  0.00  0.00    +0.000 HD
ENDBRANCH  24  25
ENDBRANCH  17  24
ENDBRANCH   2  15
TORSDOF 5
ENDMDL
MODEL 2
REMARK VINA RESULT:      -5.2     15.758     17.115
REMARK  Name = Thioguanosine.pdbqt.pdb
REMARK  5 active torsions:
REMARK  status: ('A' for Active; 'I' for Inactive)
REMARK    1  A    between atoms: N_2  and  C1*_12
REMARK    2  A    between atoms: C4*_14  and  C5*_17
REMARK    3  A    between atoms: C3*_15  and  O3*_20
REMARK    4  A    between atoms: C2*_16  and  O2*_22
REMARK    5  A    between atoms: C5*_17  and  O5*_18
REMARK                            x       y       z     vdW  Elec       q    Type
REMARK                         _______ _______ _______ _____ _____    ______ ____
ROOT
ATOM      1  S   UNL     1      -6.130  31.246  19.131  0.00  0.00    +0.000 S 
ATOM      2  N   UNL     1      -2.437  29.408  16.490  0.00  0.00    +0.000 N 
ATOM      3  N   UNL     1      -3.329  27.898  18.218  0.00  0.00    +0.000 N 
ATOM      4  N   UNL     1      -3.862  31.120  16.893  0.00  0.00    +0.000 NA
ATOM      5  N   UNL     1      -5.095  28.758  19.558  0.00  0.00    +0.000 NA
ATOM      6  C   UNL     1      -3.274  29.044  17.514  0.00  0.00    +0.000 A 
ATOM      7  C   UNL     1      -2.868  30.680  16.148  0.00  0.00    +0.000 A 
ATOM      8  C   UNL     1      -4.121  30.092  17.766  0.00  0.00    +0.000 A 
ATOM      9  C   UNL     1      -5.099  29.961  18.848  0.00  0.00    +0.000 A 
ATOM     10  C   UNL     1      -4.254  27.823  19.223  0.00  0.00    +0.000 A 
ATOM     11  H   UNL     1      -2.682  27.127  18.068  0.00  0.00    +0.000 HD
ATOM     12  N   UNL     1      -4.233  26.645  19.892  0.00  0.00    +0.000 N 
ATOM     13  H   UNL     1      -4.213  25.828  19.297  0.00  0.00    +0.000 HD
ATOM     14  H   UNL     1      -5.012  26.593  20.545  0.00  0.00    +0.000 HD
ENDROOT
BRANCH   2  15
ATOM     15  C1* UNL     1      -1.382  28.737  15.902  0.00  0.00    +0.000 A 
ATOM     16  O4* UNL     1      -1.571  27.861  14.807  0.00  0.00    +0.000 OA
ATOM     17  C4* UNL     1      -0.332  27.314  14.431  0.00  0.00    +0.000 A 
ATOM     18  C3* UNL     1       0.676  27.855  15.298  0.00  0.00    +0.000 A 
ATOM     19  C2* UNL     1       0.027  28.748  16.207  0.00  0.00    +0.000 A 
BRANCH  18  20
ATOM     20  O3* UNL     1       1.789  27.160  15.688  0.00  0.00    +0.000 OA
ATOM     21  H3* UNL     1       2.575  27.735  15.729  0.00  0.00    +0.000 HD
ENDBRANCH  18  20
BRANCH  19  22
ATOM     22  O2* UNL     1       0.516  28.935  17.471  0.00  0.00    +0.000 OA
ATOM     23  H2* UNL     1       1.452  29.214  17.418  0.00  0.00    +0.000 HD
ENDBRANCH  19  22
BRANCH  17  24
ATOM     24  C5* UNL     1      -0.216  26.228  13.545  0.00  0.00    +0.000 C 
BRANCH  24  25
ATOM     25  O5* UNL     1      -0.109  25.187  12.726  0.00  0.00    +0.000 OA
ATOM     26  H5* UNL     1       0.087  24.375  13.227  0.00  0.00    +0.000 HD
ENDBRANCH  24  25
ENDBRANCH  17  24
ENDBRANCH   2  15
TORSDOF 5
ENDMDL
MODEL 3
REMARK VINA RESULT:      -5.1     13.941     15.916
REMARK  Name = Thioguanosine.pdbqt.pdb
REMARK  5 active torsions:
REMARK  status: ('A' for Active; 'I' for Inactive)
REMARK    1  A    between atoms: N_2  and  C1*_12
REMARK    2  A    between atoms: C4*_14  and  C5*_17
REMARK    3  A    between atoms: C3*_15  and  O3*_20
REMARK    4  A    between atoms: C2*_16  and  O2*_22
REMARK    5  A    between atoms: C5*_17  and  O5*_18
REMARK                            x       y       z     vdW  Elec       q    Type
REMARK                         _______ _______ _______ _____ _____    ______ ____
ROOT
ATOM      1  S   UNL     1      -0.242  17.984  26.443  0.00  0.00    +0.000 S 
ATOM      2  N   UNL     1      -0.520  14.243  23.292  0.00  0.00    +0.000 N 
ATOM      3  N   UNL     1      -0.125  16.443  22.259  0.00  0.00    +0.000 N 
ATOM      4  N   UNL     1      -0.550  14.974  25.435  0.00  0.00    +0.000 NA
ATOM      5  N   UNL     1      -0.026  18.300  23.742  0.00  0.00    +0.000 NA
ATOM      6  C   UNL     1      -0.320  15.601  23.290  0.00  0.00    +0.000 A 
ATOM      7  C   UNL     1      -0.632  13.927  24.637  0.00  0.00    +0.000 A 
ATOM      8  C   UNL     1      -0.360  16.039  24.589  0.00  0.00    +0.000 A 
ATOM      9  C   UNL     1      -0.203  17.471  24.852  0.00  0.00    +0.000 A 
ATOM     10  C   UNL     1       0.009  17.772  22.552  0.00  0.00    +0.000 A 
ATOM     11  H   UNL     1      -0.132  16.137  21.289  0.00  0.00    +0.000 HD
ATOM     12  N   UNL     1       0.185  18.553  21.459  0.00  0.00    +0.000 N 
ATOM     13  H   UNL     1       0.879  18.208  20.808  0.00  0.00    +0.000 HD
ATOM     14  H   UNL     1       0.399  19.509  21.736  0.00  0.00    +0.000 HD
ENDROOT
BRANCH   2  15
ATOM     15  C1* UNL     1      -0.620  13.343  22.249  0.00  0.00    +0.000 A 
ATOM     16  O4* UNL     1      -0.009  12.068  22.300  0.00  0.00    +0.000 OA
ATOM     17  C4* UNL     1      -0.266  11.381  21.102  0.00  0.00    +0.000 A 
ATOM     18  C3* UNL     1      -1.066  12.229  20.264  0.00  0.00    +0.000 A 
ATOM     19  C2* UNL     1      -1.297  13.445  20.979  0.00  0.00    +0.000 A 
BRANCH  18  20
ATOM     20  O3* UNL     1      -0.984  12.235  18.898  0.00  0.00    +0.000 OA
ATOM     21  H3* UNL     1      -1.013  11.332  18.532  0.00  0.00    +0.000 HD
ENDBRANCH  18  20
BRANCH  19  22
ATOM     22  O2* UNL     1      -1.456  14.629  20.312  0.00  0.00    +0.000 OA
ATOM     23  H2* UNL     1      -1.179  15.367  20.892  0.00  0.00    +0.000 HD
ENDBRANCH  19  22
BRANCH  17  24
ATOM     24  C5* UNL     1       0.405  10.199  20.741  0.00  0.00    +0.000 C 
BRANCH  24  25
ATOM     25  O5* UNL     1       1.049   9.081  20.422  0.00  0.00    +0.000 OA
ATOM     26  H5* UNL     1       1.939   9.283  20.084  0.00  0.00    +0.000 HD
ENDBRANCH  24  25
ENDBRANCH  17  24
ENDBRANCH   2  15
TORSDOF 5
ENDMDL
MODEL 4
REMARK VINA RESULT:      -4.5     11.226     13.637
REMARK  Name = Thioguanosine.pdbqt.pdb
REMARK  5 active torsions:
REMARK  status: ('A' for Active; 'I' for Inactive)
REMARK    1  A    between atoms: N_2  and  C1*_12
REMARK    2  A    between atoms: C4*_14  and  C5*_17
REMARK    3  A    between atoms: C3*_15  and  O3*_20
REMARK    4  A    between atoms: C2*_16  and  O2*_22
REMARK    5  A    between atoms: C5*_17  and  O5*_18
REMARK                            x       y       z     vdW  Elec       q    Type
REMARK                         _______ _______ _______ _____ _____    ______ ____
ROOT
ATOM      1  S   UNL     1      15.050  32.680  26.046  0.00  0.00    +0.000 S 
ATOM      2  N   UNL     1      14.490  34.216  21.428  0.00  0.00    +0.000 N 
ATOM      3  N   UNL     1      12.564  32.997  22.357  0.00  0.00    +0.000 N 
ATOM      4  N   UNL     1      15.774  34.112  23.290  0.00  0.00    +0.000 NA
ATOM      5  N   UNL     1      12.801  32.191  24.582  0.00  0.00    +0.000 NA
ATOM      6  C   UNL     1      13.795  33.539  22.398  0.00  0.00    +0.000 A 
ATOM      7  C   UNL     1      15.682  34.553  22.051  0.00  0.00    +0.000 A 
ATOM      8  C   UNL     1      14.586  33.462  23.516  0.00  0.00    +0.000 A 
ATOM      9  C   UNL     1      14.075  32.752  24.690  0.00  0.00    +0.000 A 
ATOM     10  C   UNL     1      12.132  32.337  23.475  0.00  0.00    +0.000 A 
ATOM     11  H   UNL     1      11.981  33.012  21.523  0.00  0.00    +0.000 HD
ATOM     12  N   UNL     1      10.891  31.808  23.347  0.00  0.00    +0.000 N 
ATOM     13  H   UNL     1      10.205  32.443  22.959  0.00  0.00    +0.000 HD
ATOM     14  H   UNL     1      10.570  31.436  24.238  0.00  0.00    +0.000 HD
ENDROOT
BRANCH   2  15
ATOM     15  C1* UNL     1      14.162  34.510  20.119  0.00  0.00    +0.000 A 
ATOM     16  O4* UNL     1      13.857  35.829  19.703  0.00  0.00    +0.000 OA
ATOM     17  C4* UNL     1      13.549  35.823  18.333  0.00  0.00    +0.000 A 
ATOM     18  C3* UNL     1      13.665  34.475  17.854  0.00  0.00    +0.000 A 
ATOM     19  C2* UNL     1      14.056  33.658  18.961  0.00  0.00    +0.000 A 
BRANCH  18  20
ATOM     20  O3* UNL     1      12.884  33.958  16.855  0.00  0.00    +0.000 OA
ATOM     21  H3* UNL     1      12.464  33.120  17.126  0.00  0.00    +0.000 HD
ENDBRANCH  18  20
BRANCH  19  22
ATOM     22  O2* UNL     1      13.672  32.347  19.032  0.00  0.00    +0.000 OA
ATOM     23  H2* UNL     1      13.501  32.010  18.129  0.00  0.00    +0.000 HD
ENDBRANCH  19  22
BRANCH  17  24
ATOM     24  C5* UNL     1      12.967  36.924  17.678  0.00  0.00    +0.000 C 
BRANCH  24  25
ATOM     25  O5* UNL     1      12.421  37.976  17.078  0.00  0.00    +0.000 OA
ATOM     26  H5* UNL     1      11.603  37.721  16.616  0.00  0.00    +0.000 HD
ENDBRANCH  24  25
ENDBRANCH  17  24
ENDBRANCH   2  15
TORSDOF 5
ENDMDL
MODEL 5
REMARK VINA RESULT:      -4.5     13.508     15.567
REMARK  Name = Thioguanosine.pdbqt.pdb
REMARK  5 active torsions:
REMARK  status: ('A' for Active; 'I' for Inactive)
REMARK    1  A    between atoms: N_2  and  C1*_12
REMARK    2  A    between atoms: C4*_14  and  C5*_17
REMARK    3  A    between atoms: C3*_15  and  O3*_20
REMARK    4  A    between atoms: C2*_16  and  O2*_22
REMARK    5  A    between atoms: C5*_17  and  O5*_18
REMARK                            x       y       z     vdW  Elec       q    Type
REMARK                         _______ _______ _______ _____ _____    ______ ____
ROOT
ATOM      1  S   UNL     1      -0.218  18.829  26.439  0.00  0.00    +0.000 S 
ATOM      2  N   UNL     1      -0.254  14.705  23.795  0.00  0.00    +0.000 N 
ATOM      3  N   UNL     1      -0.034  16.777  22.484  0.00  0.00    +0.000 N 
ATOM      4  N   UNL     1      -0.313  15.700  25.828  0.00  0.00    +0.000 NA
ATOM      5  N   UNL     1      -0.056  18.811  23.716  0.00  0.00    +0.000 NA
ATOM      6  C   UNL     1      -0.155  16.062  23.617  0.00  0.00    +0.000 A 
ATOM      7  C   UNL     1      -0.327  14.557  25.171  0.00  0.00    +0.000 A 
ATOM      8  C   UNL     1      -0.212  16.660  24.850  0.00  0.00    +0.000 A 
ATOM      9  C   UNL     1      -0.158  18.121  24.926  0.00  0.00    +0.000 A 
ATOM     10  C   UNL     1       0.005  18.140  22.603  0.00  0.00    +0.000 A 
ATOM     11  H   UNL     1      -0.029  16.351  21.560  0.00  0.00    +0.000 HD
ATOM     12  N   UNL     1       0.111  18.785  21.416  0.00  0.00    +0.000 N 
ATOM     13  H   UNL     1       0.820  18.410  20.799  0.00  0.00    +0.000 HD
ATOM     14  H   UNL     1       0.256  19.781  21.565  0.00  0.00    +0.000 HD
ENDROOT
BRANCH   2  15
ATOM     15  C1* UNL     1      -0.299  13.674  22.877  0.00  0.00    +0.000 A 
ATOM     16  O4* UNL     1      -0.532  13.908  21.500  0.00  0.00    +0.000 OA
ATOM     17  C4* UNL     1      -0.538  12.681  20.816  0.00  0.00    +0.000 A 
ATOM     18  C3* UNL     1      -0.296  11.636  21.770  0.00  0.00    +0.000 A 
ATOM     19  C2* UNL     1      -0.136  12.252  23.050  0.00  0.00    +0.000 A 
BRANCH  18  20
ATOM     20  O3* UNL     1      -0.833  10.381  21.669  0.00  0.00    +0.000 OA
ATOM     21  H3* UNL     1      -0.371   9.846  20.997  0.00  0.00    +0.000 HD
ENDBRANCH  18  20
BRANCH  19  22
ATOM     22  O2* UNL     1      -0.500  11.594  24.193  0.00  0.00    +0.000 OA
ATOM     23  H2* UNL     1      -0.519  12.227  24.939  0.00  0.00    +0.000 HD
ENDBRANCH  19  22
BRANCH  17  24
ATOM     24  C5* UNL     1      -0.987  12.550  19.489  0.00  0.00    +0.000 C 
BRANCH  24  25
ATOM     25  O5* UNL     1      -1.390  12.431  18.229  0.00  0.00    +0.000 OA
ATOM     26  H5* UNL     1      -2.298  12.084  18.190  0.00  0.00    +0.000 HD
ENDBRANCH  24  25
ENDBRANCH  17  24
ENDBRANCH   2  15
TORSDOF 5
ENDMDL
MODEL 6
REMARK VINA RESULT:      -4.4     19.934     21.674
REMARK  Name = Thioguanosine.pdbqt.pdb
REMARK  5 active torsions:
REMARK  status: ('A' for Active; 'I' for Inactive)
REMARK    1  A    between atoms: N_2  and  C1*_12
REMARK    2  A    between atoms: C4*_14  and  C5*_17
REMARK    3  A    between atoms: C3*_15  and  O3*_20
REMARK    4  A    between atoms: C2*_16  and  O2*_22
REMARK    5  A    between atoms: C5*_17  and  O5*_18
REMARK                            x       y       z     vdW  Elec       q    Type
REMARK                         _______ _______ _______ _____ _____    ______ ____
ROOT
ATOM      1  S   UNL     1      32.196  21.111  20.405  0.00  0.00    +0.000 S 
ATOM      2  N   UNL     1      28.655  24.195  21.799  0.00  0.00    +0.000 N 
ATOM      3  N   UNL     1      28.065  22.719  19.919  0.00  0.00    +0.000 N 
ATOM      4  N   UNL     1      30.746  23.384  22.107  0.00  0.00    +0.000 NA
ATOM      5  N   UNL     1      29.765  21.232  19.174  0.00  0.00    +0.000 NA
ATOM      6  C   UNL     1      28.877  23.204  20.876  0.00  0.00    +0.000 A 
ATOM      7  C   UNL     1      29.832  24.236  22.529  0.00  0.00    +0.000 A 
ATOM      8  C   UNL     1      30.152  22.732  21.055  0.00  0.00    +0.000 A 
ATOM      9  C   UNL     1      30.644  21.681  20.162  0.00  0.00    +0.000 A 
ATOM     10  C   UNL     1      28.570  21.743  19.104  0.00  0.00    +0.000 A 
ATOM     11  H   UNL     1      27.131  23.085  19.750  0.00  0.00    +0.000 HD
ATOM     12  N   UNL     1      27.696  21.320  18.159  0.00  0.00    +0.000 N 
ATOM     13  H   UNL     1      26.768  21.118  18.508  0.00  0.00    +0.000 HD
ATOM     14  H   UNL     1      28.072  20.517  17.660  0.00  0.00    +0.000 HD
ENDROOT
BRANCH   2  15
ATOM     15  C1* UNL     1      27.560  25.013  22.001  0.00  0.00    +0.000 A 
ATOM     16  O4* UNL     1      27.696  26.341  22.472  0.00  0.00    +0.000 OA
ATOM     17  C4* UNL     1      26.423  26.922  22.594  0.00  0.00    +0.000 A 
ATOM     18  C3* UNL     1      25.447  25.952  22.186  0.00  0.00    +0.000 A 
ATOM     19  C2* UNL     1      26.153  24.767  21.806  0.00  0.00    +0.000 A 
BRANCH  18  20
ATOM     20  O3* UNL     1      24.194  25.866  22.729  0.00  0.00    +0.000 OA
ATOM     21  H3* UNL     1      24.227  25.826  23.703  0.00  0.00    +0.000 HD
ENDBRANCH  18  20
BRANCH  19  22
ATOM     22  O2* UNL     1      25.582  23.533  21.963  0.00  0.00    +0.000 OA
ATOM     23  H2* UNL     1      26.035  23.057  22.689  0.00  0.00    +0.000 HD
ENDBRANCH  19  22
BRANCH  17  24
ATOM     24  C5* UNL     1      26.201  28.137  23.268  0.00  0.00    +0.000 C 
BRANCH  24  25
ATOM     25  O5* UNL     1      26.000  29.275  23.923  0.00  0.00    +0.000 OA
ATOM     26  H5* UNL     1      26.627  29.958  23.625  0.00  0.00    +0.000 HD
ENDBRANCH  24  25
ENDBRANCH  17  24
ENDBRANCH   2  15
TORSDOF 5
ENDMDL
MODEL 7
REMARK VINA RESULT:      -4.4     22.450     23.594
REMARK  Name = Thioguanosine.pdbqt.pdb
REMARK  5 active torsions:
REMARK  status: ('A' for Active; 'I' for Inactive)
REMARK    1  A    between atoms: N_2  and  C1*_12
REMARK    2  A    between atoms: C4*_14  and  C5*_17
REMARK    3  A    between atoms: C3*_15  and  O3*_20
REMARK    4  A    between atoms: C2*_16  and  O2*_22
REMARK    5  A    between atoms: C5*_17  and  O5*_18
REMARK                            x       y       z     vdW  Elec       q    Type
REMARK                         _______ _______ _______ _____ _____    ______ ____
ROOT
ATOM      1  S   UNL     1      30.622  16.155  23.211  0.00  0.00    +0.000 S 
ATOM      2  N   UNL     1      26.910  13.124  24.225  0.00  0.00    +0.000 N 
ATOM      3  N   UNL     1      27.730  13.020  21.906  0.00  0.00    +0.000 N 
ATOM      4  N   UNL     1      28.382  14.686  24.942  0.00  0.00    +0.000 NA
ATOM      5  N   UNL     1      29.503  14.504  21.349  0.00  0.00    +0.000 NA
ATOM      6  C   UNL     1      27.721  13.470  23.174  0.00  0.00    +0.000 A 
ATOM      7  C   UNL     1      27.385  13.891  25.276  0.00  0.00    +0.000 A 
ATOM      8  C   UNL     1      28.597  14.431  23.610  0.00  0.00    +0.000 A 
ATOM      9  C   UNL     1      29.555  14.993  22.656  0.00  0.00    +0.000 A 
ATOM     10  C   UNL     1      28.638  13.579  21.049  0.00  0.00    +0.000 A 
ATOM     11  H   UNL     1      27.062  12.337  21.559  0.00  0.00    +0.000 HD
ATOM     12  N   UNL     1      28.571  13.084  19.789  0.00  0.00    +0.000 N 
ATOM     13  H   UNL     1      28.533  12.074  19.740  0.00  0.00    +0.000 HD
ATOM     14  H   UNL     1      29.338  13.441  19.225  0.00  0.00    +0.000 HD
ENDROOT
BRANCH   2  15
ATOM     15  C1* UNL     1      25.843  12.248  24.293  0.00  0.00    +0.000 A 
ATOM     16  O4* UNL     1      25.503  11.576  25.491  0.00  0.00    +0.000 OA
ATOM     17  C4* UNL     1      24.393  10.747  25.258  0.00  0.00    +0.000 A 
ATOM     18  C3* UNL     1      24.005  10.894  23.884  0.00  0.00    +0.000 A 
ATOM     19  C2* UNL     1      24.899  11.836  23.284  0.00  0.00    +0.000 A 
BRANCH  18  20
ATOM     20  O3* UNL     1      23.466   9.881  23.138  0.00  0.00    +0.000 OA
ATOM     21  H3* UNL     1      23.139   9.156  23.702  0.00  0.00    +0.000 HD
ENDBRANCH  18  20
BRANCH  19  22
ATOM     22  O2* UNL     1      25.216  11.750  21.956  0.00  0.00    +0.000 OA
ATOM     23  H2* UNL     1      24.642  11.082  21.528  0.00  0.00    +0.000 HD
ENDBRANCH  19  22
BRANCH  17  24
ATOM     24  C5* UNL     1      23.968   9.767  26.173  0.00  0.00    +0.000 C 
BRANCH  24  25
ATOM     25  O5* UNL     1      23.565   8.826  27.020  0.00  0.00    +0.000 OA
ATOM     26  H5* UNL     1      24.313   8.264  27.290  0.00  0.00    +0.000 HD
ENDBRANCH  24  25
ENDBRANCH  17  24
ENDBRANCH   2  15
TORSDOF 5
ENDMDL
MODEL 8
REMARK VINA RESULT:      -4.3     25.808     26.676
REMARK  Name = Thioguanosine.pdbqt.pdb
REMARK  5 active torsions:
REMARK  status: ('A' for Active; 'I' for Inactive)
REMARK    1  A    between atoms: N_2  and  C1*_12
REMARK    2  A    between atoms: C4*_14  and  C5*_17
REMARK    3  A    between atoms: C3*_15  and  O3*_20
REMARK    4  A    between atoms: C2*_16  and  O2*_22
REMARK    5  A    between atoms: C5*_17  and  O5*_18
REMARK                            x       y       z     vdW  Elec       q    Type
REMARK                         _______ _______ _______ _____ _____    ______ ____
ROOT
ATOM      1  S   UNL     1      29.692  20.953  15.839  0.00  0.00    +0.000 S 
ATOM      2  N   UNL     1      28.760  16.149  15.635  0.00  0.00    +0.000 N 
ATOM      3  N   UNL     1      29.783  16.919  17.737  0.00  0.00    +0.000 N 
ATOM      4  N   UNL     1      28.659  18.183  14.645  0.00  0.00    +0.000 NA
ATOM      5  N   UNL     1      30.296  19.237  17.872  0.00  0.00    +0.000 NA
ATOM      6  C   UNL     1      29.281  17.078  16.499  0.00  0.00    +0.000 A 
ATOM      7  C   UNL     1      28.382  16.898  14.532  0.00  0.00    +0.000 A 
ATOM      8  C   UNL     1      29.235  18.304  15.886  0.00  0.00    +0.000 A 
ATOM      9  C   UNL     1      29.768  19.467  16.599  0.00  0.00    +0.000 A 
ATOM     10  C   UNL     1      30.276  18.031  18.362  0.00  0.00    +0.000 A 
ATOM     11  H   UNL     1      29.859  16.010  18.189  0.00  0.00    +0.000 HD
ATOM     12  N   UNL     1      30.777  17.783  19.596  0.00  0.00    +0.000 N 
ATOM     13  H   UNL     1      30.178  17.219  20.184  0.00  0.00    +0.000 HD
ATOM     14  H   UNL     1      31.019  18.654  20.063  0.00  0.00    +0.000 HD
ENDROOT
BRANCH   2  15
ATOM     15  C1* UNL     1      28.630  14.778  15.752  0.00  0.00    +0.000 A 
ATOM     16  O4* UNL     1      28.988  14.091  16.936  0.00  0.00    +0.000 OA
ATOM     17  C4* UNL     1      28.762  12.716  16.761  0.00  0.00    +0.000 A 
ATOM     18  C3* UNL     1      28.242  12.513  15.439  0.00  0.00    +0.000 A 
ATOM     19  C2* UNL     1      28.148  13.795  14.813  0.00  0.00    +0.000 A 
BRANCH  18  20
ATOM     20  O3* UNL     1      28.494  11.395  14.690  0.00  0.00    +0.000 OA
ATOM     21  H3* UNL     1      29.023  11.606  13.898  0.00  0.00    +0.000 HD
ENDBRANCH  18  20
BRANCH  19  22
ATOM     22  O2* UNL     1      28.292  13.924  13.458  0.00  0.00    +0.000 OA
ATOM     23  H2* UNL     1      28.141  14.857  13.204  0.00  0.00    +0.000 HD
ENDBRANCH  19  22
BRANCH  17  24
ATOM     24  C5* UNL     1      29.247  11.744  17.655  0.00  0.00    +0.000 C 
BRANCH  24  25
ATOM     25  O5* UNL     1      29.707  10.842  18.516  0.00  0.00    +0.000 OA
ATOM     26  H5* UNL     1      30.621  10.593  18.296  0.00  0.00    +0.000 HD
ENDBRANCH  24  25
ENDBRANCH  17  24
ENDBRANCH   2  15
TORSDOF 5
ENDMDL
MODEL 9
REMARK VINA RESULT:      -4.2     28.042     29.117
REMARK  Name = Thioguanosine.pdbqt.pdb
REMARK  5 active torsions:
REMARK  status: ('A' for Active; 'I' for Inactive)
REMARK    1  A    between atoms: N_2  and  C1*_12
REMARK    2  A    between atoms: C4*_14  and  C5*_17
REMARK    3  A    between atoms: C3*_15  and  O3*_20
REMARK    4  A    between atoms: C2*_16  and  O2*_22
REMARK    5  A    between atoms: C5*_17  and  O5*_18
REMARK                            x       y       z     vdW  Elec       q    Type
REMARK                         _______ _______ _______ _____ _____    ______ ____
ROOT
ATOM      1  S   UNL     1      18.994  12.687   2.331  0.00  0.00    +0.000 S 
ATOM      2  N   UNL     1      17.631  17.380   2.007  0.00  0.00    +0.000 N 
ATOM      3  N   UNL     1      15.954  15.879   3.004  0.00  0.00    +0.000 N 
ATOM      4  N   UNL     1      19.220  15.800   1.680  0.00  0.00    +0.000 NA
ATOM      5  N   UNL     1      16.549  13.581   3.144  0.00  0.00    +0.000 NA
ATOM      6  C   UNL     1      17.144  16.177   2.451  0.00  0.00    +0.000 A 
ATOM      7  C   UNL     1      18.911  17.077   1.568  0.00  0.00    +0.000 A 
ATOM      8  C   UNL     1      18.103  15.221   2.232  0.00  0.00    +0.000 A 
ATOM      9  C   UNL     1      17.808  13.834   2.595  0.00  0.00    +0.000 A 
ATOM     10  C   UNL     1      15.720  14.569   3.321  0.00  0.00    +0.000 A 
ATOM     11  H   UNL     1      15.219  16.570   3.137  0.00  0.00    +0.000 HD
ATOM     12  N   UNL     1      14.495  14.351   3.856  0.00  0.00    +0.000 N 
ATOM     13  H   UNL     1      14.240  14.999   4.590  0.00  0.00    +0.000 HD
ATOM     14  H   UNL     1      14.416  13.391   4.183  0.00  0.00    +0.000 HD
ENDROOT
BRANCH   2  15
ATOM     15  C1* UNL     1      17.044  18.630   1.954  0.00  0.00    +0.000 A 
ATOM     16  O4* UNL     1      17.754  19.805   2.296  0.00  0.00    +0.000 OA
ATOM     17  C4* UNL     1      16.904  20.916   2.163  0.00  0.00    +0.000 A 
ATOM     18  C3* UNL     1      15.622  20.447   1.719  0.00  0.00    +0.000 A 
ATOM     19  C2* UNL     1      15.709  19.027   1.578  0.00  0.00    +0.000 A 
BRANCH  18  20
ATOM     20  O3* UNL     1      14.438  21.035   2.075  0.00  0.00    +0.000 OA
ATOM     21  H3* UNL     1      14.578  21.921   2.456  0.00  0.00    +0.000 HD
ENDBRANCH  18  20
BRANCH  19  22
ATOM     22  O2* UNL     1      14.611  18.235   1.779  0.00  0.00    +0.000 OA
ATOM     23  H2* UNL     1      13.946  18.424   1.086  0.00  0.00    +0.000 HD
ENDBRANCH  19  22
BRANCH  17  24
ATOM     24  C5* UNL     1      17.231  22.190   2.663  0.00  0.00    +0.000 C 
BRANCH  24  25
ATOM     25  O5* UNL     1      17.517  23.400   3.132  0.00  0.00    +0.000 OA
ATOM     26  H5* UNL     1      16.940  24.070   2.725  0.00  0.00    +0.000 HD
ENDBRANCH  24  25
ENDBRANCH  17  24
ENDBRANCH   2  15
TORSDOF 5
ENDMDL
