MODEL 1
REMARK VINA RESULT:      -5.4      0.000      0.000
REMARK  Name = Trichostatin_A.pdbqt.pdb
REMARK  6 active torsions:
REMARK  status: ('A' for Active; 'I' for Inactive)
REMARK    1  A    between atoms: C_1  and  C_15
REMARK    2  A    between atoms: C_4  and  C_6
REMARK    3  A    between atoms: C_7  and  C_10
REMARK    4  A    between atoms: N_9  and  O_12
REMARK    5  A    between atoms: C_15  and  C_16
REMARK    6  A    between atoms: C_17  and  N_22
REMARK                            x       y       z     vdW  Elec       q    Type
REMARK                         _______ _______ _______ _____ _____    ______ ____
ROOT
ATOM      1  C   UNL     1       5.101   1.121  21.855  0.00  0.00    +0.000 C 
ATOM      2  C   UNL     1       5.064   1.373  20.361  0.00  0.00    +0.000 C 
ATOM      3  C   UNL     1       4.142   1.822  22.625  0.00  0.00    +0.000 C 
ATOM      4  C   UNL     1       3.291   2.443  23.373  0.00  0.00    +0.000 C 
ATOM      5  C   UNL     1       2.027   1.752  23.782  0.00  0.00    +0.000 C 
ENDROOT
BRANCH   4   6
ATOM      6  C   UNL     1       3.637   3.680  23.965  0.00  0.00    +0.000 C 
ATOM      7  C   UNL     1       3.932   4.730  24.470  0.00  0.00    +0.000 C 
BRANCH   7  10
ATOM      8  O   UNL     1       4.130   6.166  26.271  0.00  0.00    +0.000 OA
ATOM      9  N   UNL     1       4.800   6.934  24.224  0.00  0.00    +0.000 N 
ATOM     10  C   UNL     1       4.290   5.988  25.069  0.00  0.00    +0.000 C 
ATOM     11  H   UNL     1       4.931   6.807  23.228  0.00  0.00    +0.000 HD
BRANCH   9  12
ATOM     12  O   UNL     1       5.152   8.183  24.777  0.00  0.00    +0.000 OA
ATOM     13  H   UNL     1       6.131   8.185  24.704  0.00  0.00    +0.000 HD
ENDBRANCH   9  12
ENDBRANCH   7  10
ENDBRANCH   4   6
BRANCH   1  15
ATOM     14  O   UNL     1       7.048  -0.239  21.909  0.00  0.00    +0.000 OA
ATOM     15  C   UNL     1       6.224   0.418  22.546  0.00  0.00    +0.000 C 
BRANCH  15  16
ATOM     16  C   UNL     1       6.371   0.510  24.013  0.00  0.00    +0.000 A 
ATOM     17  C   UNL     1       6.566   0.849  26.816  0.00  0.00    +0.000 A 
ATOM     18  C   UNL     1       5.763  -0.401  24.871  0.00  0.00    +0.000 A 
ATOM     19  C   UNL     1       7.051   1.604  24.541  0.00  0.00    +0.000 A 
ATOM     20  C   UNL     1       5.873  -0.235  26.252  0.00  0.00    +0.000 A 
ATOM     21  C   UNL     1       7.155   1.759  25.923  0.00  0.00    +0.000 A 
BRANCH  17  22
ATOM     22  N   UNL     1       6.689   1.001  28.219  0.00  0.00    +0.000 N 
ATOM     23  C   UNL     1       5.573   1.477  29.020  0.00  0.00    +0.000 C 
ATOM     24  C   UNL     1       7.995   1.117  28.849  0.00  0.00    +0.000 C 
ENDBRANCH  17  22
ENDBRANCH  15  16
ENDBRANCH   1  15
TORSDOF 6
ENDMDL
MODEL 2
REMARK VINA RESULT:      -5.2     25.844     27.197
REMARK  Name = Trichostatin_A.pdbqt.pdb
REMARK  6 active torsions:
REMARK  status: ('A' for Active; 'I' for Inactive)
REMARK    1  A    between atoms: C_1  and  C_15
REMARK    2  A    between atoms: C_4  and  C_6
REMARK    3  A    between atoms: C_7  and  C_10
REMARK    4  A    between atoms: N_9  and  O_12
REMARK    5  A    between atoms: C_15  and  C_16
REMARK    6  A    between atoms: C_17  and  N_22
REMARK                            x       y       z     vdW  Elec       q    Type
REMARK                         _______ _______ _______ _____ _____    ______ ____
ROOT
ATOM      1  C   UNL     1      29.433  11.553  18.400  0.00  0.00    +0.000 C 
ATOM      2  C   UNL     1      30.925  11.308  18.491  0.00  0.00    +0.000 C 
ATOM      3  C   UNL     1      28.914  11.728  17.094  0.00  0.00    +0.000 C 
ATOM      4  C   UNL     1      28.391  11.900  15.926  0.00  0.00    +0.000 C 
ATOM      5  C   UNL     1      27.750  10.741  15.226  0.00  0.00    +0.000 C 
ENDROOT
BRANCH   4   6
ATOM      6  C   UNL     1      28.245  13.205  15.399  0.00  0.00    +0.000 C 
ATOM      7  C   UNL     1      28.124  14.312  14.949  0.00  0.00    +0.000 C 
BRANCH   7  10
ATOM      8  O   UNL     1      27.548  15.792  13.268  0.00  0.00    +0.000 OA
ATOM      9  N   UNL     1      28.323  16.669  15.233  0.00  0.00    +0.000 N 
ATOM     10  C   UNL     1      27.971  15.637  14.408  0.00  0.00    +0.000 C 
ATOM     11  H   UNL     1      28.681  16.558  16.174  0.00  0.00    +0.000 HD
BRANCH   9  12
ATOM     12  O   UNL     1      28.195  17.981  14.731  0.00  0.00    +0.000 OA
ATOM     13  H   UNL     1      27.399  17.920  14.160  0.00  0.00    +0.000 HD
ENDBRANCH   9  12
ENDBRANCH   7  10
ENDBRANCH   4   6
BRANCH   1  15
ATOM     14  O   UNL     1      27.825  11.031  20.069  0.00  0.00    +0.000 OA
ATOM     15  C   UNL     1      28.575  11.877  19.580  0.00  0.00    +0.000 C 
BRANCH  15  16
ATOM     16  C   UNL     1      28.622  13.221  20.189  0.00  0.00    +0.000 A 
ATOM     17  C   UNL     1      28.843  15.735  21.470  0.00  0.00    +0.000 A 
ATOM     18  C   UNL     1      29.017  14.342  19.466  0.00  0.00    +0.000 A 
ATOM     19  C   UNL     1      28.364  13.337  21.552  0.00  0.00    +0.000 A 
ATOM     20  C   UNL     1      29.112  15.581  20.101  0.00  0.00    +0.000 A 
ATOM     21  C   UNL     1      28.462  14.582  22.176  0.00  0.00    +0.000 A 
BRANCH  17  22
ATOM     22  N   UNL     1      28.924  16.999  22.105  0.00  0.00    +0.000 N 
ATOM     23  C   UNL     1      29.423  18.163  21.391  0.00  0.00    +0.000 C 
ATOM     24  C   UNL     1      28.940  17.111  23.554  0.00  0.00    +0.000 C 
ENDBRANCH  17  22
ENDBRANCH  15  16
ENDBRANCH   1  15
TORSDOF 6
ENDMDL
MODEL 3
REMARK VINA RESULT:      -5.2     17.506     20.779
REMARK  Name = Trichostatin_A.pdbqt.pdb
REMARK  6 active torsions:
REMARK  status: ('A' for Active; 'I' for Inactive)
REMARK    1  A    between atoms: C_1  and  C_15
REMARK    2  A    between atoms: C_4  and  C_6
REMARK    3  A    between atoms: C_7  and  C_10
REMARK    4  A    between atoms: N_9  and  O_12
REMARK    5  A    between atoms: C_15  and  C_16
REMARK    6  A    between atoms: C_17  and  N_22
REMARK                            x       y       z     vdW  Elec       q    Type
REMARK                         _______ _______ _______ _____ _____    ______ ____
ROOT
ATOM      1  C   UNL     1      11.572  21.800  31.040  0.00  0.00    +0.000 C 
ATOM      2  C   UNL     1      10.586  21.226  32.037  0.00  0.00    +0.000 C 
ATOM      3  C   UNL     1      11.499  23.199  30.833  0.00  0.00    +0.000 C 
ATOM      4  C   UNL     1      11.470  24.470  30.604  0.00  0.00    +0.000 C 
ATOM      5  C   UNL     1      12.424  25.372  31.326  0.00  0.00    +0.000 C 
ENDROOT
BRANCH   4   6
ATOM      6  C   UNL     1      10.691  24.981  29.541  0.00  0.00    +0.000 C 
ATOM      7  C   UNL     1      10.030  25.414  28.635  0.00  0.00    +0.000 C 
BRANCH   7  10
ATOM      8  O   UNL     1       9.459  27.044  27.097  0.00  0.00    +0.000 OA
ATOM      9  N   UNL     1       8.240  25.109  27.094  0.00  0.00    +0.000 N 
ATOM     10  C   UNL     1       9.232  25.929  27.553  0.00  0.00    +0.000 C 
ATOM     11  H   UNL     1       8.034  24.189  27.464  0.00  0.00    +0.000 HD
BRANCH   9  12
ATOM     12  O   UNL     1       7.433  25.587  26.040  0.00  0.00    +0.000 OA
ATOM     13  H   UNL     1       7.654  24.977  25.303  0.00  0.00    +0.000 HD
ENDBRANCH   9  12
ENDBRANCH   7  10
ENDBRANCH   4   6
BRANCH   1  15
ATOM     14  O   UNL     1      13.138  21.481  29.282  0.00  0.00    +0.000 OA
ATOM     15  C   UNL     1      12.386  20.962  30.108  0.00  0.00    +0.000 C 
BRANCH  15  16
ATOM     16  C   UNL     1      12.312  19.489  30.173  0.00  0.00    +0.000 A 
ATOM     17  C   UNL     1      12.195  16.662  30.115  0.00  0.00    +0.000 A 
ATOM     18  C   UNL     1      13.250  18.735  30.872  0.00  0.00    +0.000 A 
ATOM     19  C   UNL     1      11.333  18.844  29.422  0.00  0.00    +0.000 A 
ATOM     20  C   UNL     1      13.179  17.343  30.849  0.00  0.00    +0.000 A 
ATOM     21  C   UNL     1      11.272  17.450  29.408  0.00  0.00    +0.000 A 
BRANCH  17  22
ATOM     22  N   UNL     1      12.118  15.247  30.111  0.00  0.00    +0.000 N 
ATOM     23  C   UNL     1      10.913  14.562  30.550  0.00  0.00    +0.000 C 
ATOM     24  C   UNL     1      13.321  14.431  30.098  0.00  0.00    +0.000 C 
ENDBRANCH  17  22
ENDBRANCH  15  16
ENDBRANCH   1  15
TORSDOF 6
ENDMDL
MODEL 4
REMARK VINA RESULT:      -5.0     16.677     19.959
REMARK  Name = Trichostatin_A.pdbqt.pdb
REMARK  6 active torsions:
REMARK  status: ('A' for Active; 'I' for Inactive)
REMARK    1  A    between atoms: C_1  and  C_15
REMARK    2  A    between atoms: C_4  and  C_6
REMARK    3  A    between atoms: C_7  and  C_10
REMARK    4  A    between atoms: N_9  and  O_12
REMARK    5  A    between atoms: C_15  and  C_16
REMARK    6  A    between atoms: C_17  and  N_22
REMARK                            x       y       z     vdW  Elec       q    Type
REMARK                         _______ _______ _______ _____ _____    ______ ____
ROOT
ATOM      1  C   UNL     1       8.100  20.554  32.291  0.00  0.00    +0.000 C 
ATOM      2  C   UNL     1       7.295  20.788  33.553  0.00  0.00    +0.000 C 
ATOM      3  C   UNL     1       8.707  21.700  31.723  0.00  0.00    +0.000 C 
ATOM      4  C   UNL     1       9.276  22.715  31.161  0.00  0.00    +0.000 C 
ATOM      5  C   UNL     1      10.719  23.002  31.445  0.00  0.00    +0.000 C 
ENDROOT
BRANCH   4   6
ATOM      6  C   UNL     1       8.608  23.427  30.139  0.00  0.00    +0.000 C 
ATOM      7  C   UNL     1       8.040  24.029  29.267  0.00  0.00    +0.000 C 
BRANCH   7  10
ATOM      8  O   UNL     1       6.214  25.164  28.415  0.00  0.00    +0.000 OA
ATOM      9  N   UNL     1       8.044  24.932  27.064  0.00  0.00    +0.000 N 
ATOM     10  C   UNL     1       7.353  24.751  28.229  0.00  0.00    +0.000 C 
ATOM     11  H   UNL     1       8.983  24.592  26.890  0.00  0.00    +0.000 HD
BRANCH   9  12
ATOM     12  O   UNL     1       7.398  25.628  26.021  0.00  0.00    +0.000 OA
ATOM     13  H   UNL     1       8.109  25.730  25.352  0.00  0.00    +0.000 HD
ENDBRANCH   9  12
ENDBRANCH   7  10
ENDBRANCH   4   6
BRANCH   1  15
ATOM     14  O   UNL     1       6.982  18.756  31.215  0.00  0.00    +0.000 OA
ATOM     15  C   UNL     1       8.055  19.283  31.507  0.00  0.00    +0.000 C 
BRANCH  15  16
ATOM     16  C   UNL     1       9.307  18.641  31.056  0.00  0.00    +0.000 A 
ATOM     17  C   UNL     1      11.765  17.579  30.141  0.00  0.00    +0.000 A 
ATOM     18  C   UNL     1      10.156  17.984  31.940  0.00  0.00    +0.000 A 
ATOM     19  C   UNL     1       9.687  18.799  29.725  0.00  0.00    +0.000 A 
ATOM     20  C   UNL     1      11.361  17.451  31.480  0.00  0.00    +0.000 A 
ATOM     21  C   UNL     1      10.894  18.262  29.278  0.00  0.00    +0.000 A 
BRANCH  17  22
ATOM     22  N   UNL     1      12.982  17.020  29.678  0.00  0.00    +0.000 N 
ATOM     23  C   UNL     1      12.999  15.757  28.959  0.00  0.00    +0.000 C 
ATOM     24  C   UNL     1      14.257  17.421  30.251  0.00  0.00    +0.000 C 
ENDBRANCH  17  22
ENDBRANCH  15  16
ENDBRANCH   1  15
TORSDOF 6
ENDMDL
MODEL 5
REMARK VINA RESULT:      -5.0     20.200     21.818
REMARK  Name = Trichostatin_A.pdbqt.pdb
REMARK  6 active torsions:
REMARK  status: ('A' for Active; 'I' for Inactive)
REMARK    1  A    between atoms: C_1  and  C_15
REMARK    2  A    between atoms: C_4  and  C_6
REMARK    3  A    between atoms: C_7  and  C_10
REMARK    4  A    between atoms: N_9  and  O_12
REMARK    5  A    between atoms: C_15  and  C_16
REMARK    6  A    between atoms: C_17  and  N_22
REMARK                            x       y       z     vdW  Elec       q    Type
REMARK                         _______ _______ _______ _____ _____    ______ ____
ROOT
ATOM      1  C   UNL     1      22.877  13.449  26.364  0.00  0.00    +0.000 C 
ATOM      2  C   UNL     1      21.580  12.670  26.457  0.00  0.00    +0.000 C 
ATOM      3  C   UNL     1      22.855  14.755  26.908  0.00  0.00    +0.000 C 
ATOM      4  C   UNL     1      22.885  15.956  27.384  0.00  0.00    +0.000 C 
ATOM      5  C   UNL     1      23.414  16.189  28.766  0.00  0.00    +0.000 C 
ENDROOT
BRANCH   4   6
ATOM      6  C   UNL     1      22.614  17.060  26.542  0.00  0.00    +0.000 C 
ATOM      7  C   UNL     1      22.380  17.997  25.826  0.00  0.00    +0.000 C 
BRANCH   7  10
ATOM      8  O   UNL     1      22.164  19.005  23.757  0.00  0.00    +0.000 OA
ATOM      9  N   UNL     1      21.770  20.288  25.608  0.00  0.00    +0.000 N 
ATOM     10  C   UNL     1      22.099  19.123  24.975  0.00  0.00    +0.000 C 
ATOM     11  H   UNL     1      21.719  20.405  26.613  0.00  0.00    +0.000 HD
BRANCH   9  12
ATOM     12  O   UNL     1      21.498  21.415  24.804  0.00  0.00    +0.000 OA
ATOM     13  H   UNL     1      22.113  22.092  25.161  0.00  0.00    +0.000 HD
ENDBRANCH   9  12
ENDBRANCH   7  10
ENDBRANCH   4   6
BRANCH   1  15
ATOM     14  O   UNL     1      24.791  13.857  25.017  0.00  0.00    +0.000 OA
ATOM     15  C   UNL     1      24.036  13.025  25.521  0.00  0.00    +0.000 C 
BRANCH  15  16
ATOM     16  C   UNL     1      24.303  11.591  25.289  0.00  0.00    +0.000 A 
ATOM     17  C   UNL     1      24.949   8.893  24.727  0.00  0.00    +0.000 A 
ATOM     18  C   UNL     1      24.747  10.751  26.306  0.00  0.00    +0.000 A 
ATOM     19  C   UNL     1      24.207  11.104  23.988  0.00  0.00    +0.000 A 
ATOM     20  C   UNL     1      25.051   9.419  26.025  0.00  0.00    +0.000 A 
ATOM     21  C   UNL     1      24.514   9.769  23.720  0.00  0.00    +0.000 A 
BRANCH  17  22
ATOM     22  N   UNL     1      25.243   7.534  24.452  0.00  0.00    +0.000 N 
ATOM     23  C   UNL     1      24.964   6.496  25.431  0.00  0.00    +0.000 C 
ATOM     24  C   UNL     1      26.200   7.169  23.420  0.00  0.00    +0.000 C 
ENDBRANCH  17  22
ENDBRANCH  15  16
ENDBRANCH   1  15
TORSDOF 6
ENDMDL
MODEL 6
REMARK VINA RESULT:      -5.0     16.447     20.022
REMARK  Name = Trichostatin_A.pdbqt.pdb
REMARK  6 active torsions:
REMARK  status: ('A' for Active; 'I' for Inactive)
REMARK    1  A    between atoms: C_1  and  C_15
REMARK    2  A    between atoms: C_4  and  C_6
REMARK    3  A    between atoms: C_7  and  C_10
REMARK    4  A    between atoms: N_9  and  O_12
REMARK    5  A    between atoms: C_15  and  C_16
REMARK    6  A    between atoms: C_17  and  N_22
REMARK                            x       y       z     vdW  Elec       q    Type
REMARK                         _______ _______ _______ _____ _____    ______ ____
ROOT
ATOM      1  C   UNL     1       7.269  21.842  31.266  0.00  0.00    +0.000 C 
ATOM      2  C   UNL     1       8.003  22.343  32.494  0.00  0.00    +0.000 C 
ATOM      3  C   UNL     1       6.699  22.838  30.437  0.00  0.00    +0.000 C 
ATOM      4  C   UNL     1       6.155  23.707  29.651  0.00  0.00    +0.000 C 
ATOM      5  C   UNL     1       6.892  24.157  28.426  0.00  0.00    +0.000 C 
ENDROOT
BRANCH   4   6
ATOM      6  C   UNL     1       4.803  24.079  29.831  0.00  0.00    +0.000 C 
ATOM      7  C   UNL     1       3.654  24.399  29.983  0.00  0.00    +0.000 C 
BRANCH   7  10
ATOM      8  O   UNL     1       1.755  24.701  31.266  0.00  0.00    +0.000 OA
ATOM      9  N   UNL     1       1.622  25.205  29.039  0.00  0.00    +0.000 N 
ATOM     10  C   UNL     1       2.277  24.776  30.159  0.00  0.00    +0.000 C 
ATOM     11  H   UNL     1       2.035  25.266  28.117  0.00  0.00    +0.000 HD
BRANCH   9  12
ATOM     12  O   UNL     1       0.267  25.574  29.175  0.00  0.00    +0.000 OA
ATOM     13  H   UNL     1      -0.192  24.939  28.583  0.00  0.00    +0.000 HD
ENDBRANCH   9  12
ENDBRANCH   7  10
ENDBRANCH   4   6
BRANCH   1  15
ATOM     14  O   UNL     1       5.724  20.049  31.066  0.00  0.00    +0.000 OA
ATOM     15  C   UNL     1       6.901  20.410  31.051  0.00  0.00    +0.000 C 
BRANCH  15  16
ATOM     16  C   UNL     1       7.950  19.401  30.802  0.00  0.00    +0.000 A 
ATOM     17  C   UNL     1       9.833  17.364  30.240  0.00  0.00    +0.000 A 
ATOM     18  C   UNL     1       9.062  19.675  30.013  0.00  0.00    +0.000 A 
ATOM     19  C   UNL     1       7.754  18.111  31.290  0.00  0.00    +0.000 A 
ATOM     20  C   UNL     1       9.993  18.670  29.750  0.00  0.00    +0.000 A 
ATOM     21  C   UNL     1       8.692  17.114  31.020  0.00  0.00    +0.000 A 
BRANCH  17  22
ATOM     22  N   UNL     1      10.792  16.352  29.984  0.00  0.00    +0.000 N 
ATOM     23  C   UNL     1      10.580  14.988  30.439  0.00  0.00    +0.000 C 
ATOM     24  C   UNL     1      12.170  16.690  29.666  0.00  0.00    +0.000 C 
ENDBRANCH  17  22
ENDBRANCH  15  16
ENDBRANCH   1  15
TORSDOF 6
ENDMDL
MODEL 7
REMARK VINA RESULT:      -4.8     19.658     22.488
REMARK  Name = Trichostatin_A.pdbqt.pdb
REMARK  6 active torsions:
REMARK  status: ('A' for Active; 'I' for Inactive)
REMARK    1  A    between atoms: C_1  and  C_15
REMARK    2  A    between atoms: C_4  and  C_6
REMARK    3  A    between atoms: C_7  and  C_10
REMARK    4  A    between atoms: N_9  and  O_12
REMARK    5  A    between atoms: C_15  and  C_16
REMARK    6  A    between atoms: C_17  and  N_22
REMARK                            x       y       z     vdW  Elec       q    Type
REMARK                         _______ _______ _______ _____ _____    ______ ____
ROOT
ATOM      1  C   UNL     1       8.680  25.455  28.219  0.00  0.00    +0.000 C 
ATOM      2  C   UNL     1       8.847  25.852  26.766  0.00  0.00    +0.000 C 
ATOM      3  C   UNL     1       9.872  25.379  28.980  0.00  0.00    +0.000 C 
ATOM      4  C   UNL     1      10.929  25.288  29.717  0.00  0.00    +0.000 C 
ATOM      5  C   UNL     1      11.325  26.443  30.585  0.00  0.00    +0.000 C 
ENDROOT
BRANCH   4   6
ATOM      6  C   UNL     1      11.592  24.046  29.857  0.00  0.00    +0.000 C 
ATOM      7  C   UNL     1      12.157  22.992  29.973  0.00  0.00    +0.000 C 
BRANCH   7  10
ATOM      8  O   UNL     1      13.425  21.467  31.161  0.00  0.00    +0.000 OA
ATOM      9  N   UNL     1      12.778  20.888  29.045  0.00  0.00    +0.000 N 
ATOM     10  C   UNL     1      12.837  21.732  30.119  0.00  0.00    +0.000 C 
ATOM     11  H   UNL     1      12.303  21.094  28.175  0.00  0.00    +0.000 HD
BRANCH   9  12
ATOM     12  O   UNL     1      13.442  19.648  29.151  0.00  0.00    +0.000 OA
ATOM     13  H   UNL     1      13.207  19.351  30.057  0.00  0.00    +0.000 HD
ENDBRANCH   9  12
ENDBRANCH   7  10
ENDBRANCH   4   6
BRANCH   1  15
ATOM     14  O   UNL     1       6.316  25.268  28.359  0.00  0.00    +0.000 OA
ATOM     15  C   UNL     1       7.412  24.902  28.784  0.00  0.00    +0.000 C 
BRANCH  15  16
ATOM     16  C   UNL     1       7.455  23.890  29.859  0.00  0.00    +0.000 A 
ATOM     17  C   UNL     1       7.712  21.923  31.877  0.00  0.00    +0.000 A 
ATOM     18  C   UNL     1       7.259  24.228  31.195  0.00  0.00    +0.000 A 
ATOM     19  C   UNL     1       7.806  22.585  29.524  0.00  0.00    +0.000 A 
ATOM     20  C   UNL     1       7.376  23.251  32.183  0.00  0.00    +0.000 A 
ATOM     21  C   UNL     1       7.918  21.616  30.522  0.00  0.00    +0.000 A 
BRANCH  17  22
ATOM     22  N   UNL     1       7.811  20.931  32.885  0.00  0.00    +0.000 N 
ATOM     23  C   UNL     1       8.938  20.909  33.803  0.00  0.00    +0.000 C 
ATOM     24  C   UNL     1       7.073  19.683  32.783  0.00  0.00    +0.000 C 
ENDBRANCH  17  22
ENDBRANCH  15  16
ENDBRANCH   1  15
TORSDOF 6
ENDMDL
MODEL 8
REMARK VINA RESULT:      -4.8     17.287     21.144
REMARK  Name = Trichostatin_A.pdbqt.pdb
REMARK  6 active torsions:
REMARK  status: ('A' for Active; 'I' for Inactive)
REMARK    1  A    between atoms: C_1  and  C_15
REMARK    2  A    between atoms: C_4  and  C_6
REMARK    3  A    between atoms: C_7  and  C_10
REMARK    4  A    between atoms: N_9  and  O_12
REMARK    5  A    between atoms: C_15  and  C_16
REMARK    6  A    between atoms: C_17  and  N_22
REMARK                            x       y       z     vdW  Elec       q    Type
REMARK                         _______ _______ _______ _____ _____    ______ ____
ROOT
ATOM      1  C   UNL     1       7.888  24.136  29.262  0.00  0.00    +0.000 C 
ATOM      2  C   UNL     1       7.521  24.352  27.808  0.00  0.00    +0.000 C 
ATOM      3  C   UNL     1       9.235  24.402  29.606  0.00  0.00    +0.000 C 
ATOM      4  C   UNL     1      10.454  24.625  29.971  0.00  0.00    +0.000 C 
ATOM      5  C   UNL     1      10.812  25.945  30.583  0.00  0.00    +0.000 C 
ENDROOT
BRANCH   4   6
ATOM      6  C   UNL     1      11.396  23.571  29.980  0.00  0.00    +0.000 C 
ATOM      7  C   UNL     1      12.195  22.672  29.985  0.00  0.00    +0.000 C 
BRANCH   7  10
ATOM      8  O   UNL     1      14.311  21.812  30.337  0.00  0.00    +0.000 OA
ATOM      9  N   UNL     1      12.696  20.379  29.583  0.00  0.00    +0.000 N 
ATOM     10  C   UNL     1      13.156  21.601  29.987  0.00  0.00    +0.000 C 
ATOM     11  H   UNL     1      11.747  20.189  29.284  0.00  0.00    +0.000 HD
BRANCH   9  12
ATOM     12  O   UNL     1      13.614  19.308  29.564  0.00  0.00    +0.000 OA
ATOM     13  H   UNL     1      14.336  19.629  30.147  0.00  0.00    +0.000 HD
ENDBRANCH   9  12
ENDBRANCH   7  10
ENDBRANCH   4   6
BRANCH   1  15
ATOM     14  O   UNL     1       6.124  24.031  30.850  0.00  0.00    +0.000 OA
ATOM     15  C   UNL     1       7.007  23.428  30.240  0.00  0.00    +0.000 C 
BRANCH  15  16
ATOM     16  C   UNL     1       7.176  21.981  30.482  0.00  0.00    +0.000 A 
ATOM     17  C   UNL     1       7.654  19.247  31.039  0.00  0.00    +0.000 A 
ATOM     18  C   UNL     1       6.256  21.247  31.224  0.00  0.00    +0.000 A 
ATOM     19  C   UNL     1       8.347  21.370  30.040  0.00  0.00    +0.000 A 
ATOM     20  C   UNL     1       6.491  19.897  31.484  0.00  0.00    +0.000 A 
ATOM     21  C   UNL     1       8.571  20.018  30.307  0.00  0.00    +0.000 A 
BRANCH  17  22
ATOM     22  N   UNL     1       7.878  17.871  31.292  0.00  0.00    +0.000 N 
ATOM     23  C   UNL     1       9.057  17.197  30.772  0.00  0.00    +0.000 C 
ATOM     24  C   UNL     1       6.786  16.993  31.680  0.00  0.00    +0.000 C 
ENDBRANCH  17  22
ENDBRANCH  15  16
ENDBRANCH   1  15
TORSDOF 6
ENDMDL
MODEL 9
REMARK VINA RESULT:      -4.7     20.242     22.308
REMARK  Name = Trichostatin_A.pdbqt.pdb
REMARK  6 active torsions:
REMARK  status: ('A' for Active; 'I' for Inactive)
REMARK    1  A    between atoms: C_1  and  C_15
REMARK    2  A    between atoms: C_4  and  C_6
REMARK    3  A    between atoms: C_7  and  C_10
REMARK    4  A    between atoms: N_9  and  O_12
REMARK    5  A    between atoms: C_15  and  C_16
REMARK    6  A    between atoms: C_17  and  N_22
REMARK                            x       y       z     vdW  Elec       q    Type
REMARK                         _______ _______ _______ _____ _____    ______ ____
ROOT
ATOM      1  C   UNL     1      23.778  11.033  27.446  0.00  0.00    +0.000 C 
ATOM      2  C   UNL     1      24.755  11.499  28.506  0.00  0.00    +0.000 C 
ATOM      3  C   UNL     1      24.015   9.745  26.909  0.00  0.00    +0.000 C 
ATOM      4  C   UNL     1      24.192   8.579  26.381  0.00  0.00    +0.000 C 
ATOM      5  C   UNL     1      23.424   7.406  26.910  0.00  0.00    +0.000 C 
ENDROOT
BRANCH   4   6
ATOM      6  C   UNL     1      24.946   8.445  25.193  0.00  0.00    +0.000 C 
ATOM      7  C   UNL     1      25.583   8.329  24.180  0.00  0.00    +0.000 C 
BRANCH   7  10
ATOM      8  O   UNL     1      27.443   8.739  22.870  0.00  0.00    +0.000 OA
ATOM      9  N   UNL     1      25.777   7.455  21.974  0.00  0.00    +0.000 N 
ATOM     10  C   UNL     1      26.348   8.199  22.968  0.00  0.00    +0.000 C 
ATOM     11  H   UNL     1      24.871   7.007  22.035  0.00  0.00    +0.000 HD
BRANCH   9  12
ATOM     12  O   UNL     1      26.496   7.314  20.768  0.00  0.00    +0.000 OA
ATOM     13  H   UNL     1      27.376   7.686  20.993  0.00  0.00    +0.000 HD
ENDBRANCH   9  12
ENDBRANCH   7  10
ENDBRANCH   4   6
BRANCH   1  15
ATOM     14  O   UNL     1      21.710  11.503  26.375  0.00  0.00    +0.000 OA
ATOM     15  C   UNL     1      22.790  11.935  26.780  0.00  0.00    +0.000 C 
BRANCH  15  16
ATOM     16  C   UNL     1      23.090  13.371  26.607  0.00  0.00    +0.000 A 
ATOM     17  C   UNL     1      23.720  16.125  26.452  0.00  0.00    +0.000 A 
ATOM     18  C   UNL     1      24.059  13.817  25.714  0.00  0.00    +0.000 A 
ATOM     19  C   UNL     1      22.452  14.284  27.444  0.00  0.00    +0.000 A 
ATOM     20  C   UNL     1      24.356  15.178  25.634  0.00  0.00    +0.000 A 
ATOM     21  C   UNL     1      22.758  15.642  27.353  0.00  0.00    +0.000 A 
BRANCH  17  22
ATOM     22  N   UNL     1      24.014  17.508  26.352  0.00  0.00    +0.000 N 
ATOM     23  C   UNL     1      23.457  18.315  25.278  0.00  0.00    +0.000 C 
ATOM     24  C   UNL     1      25.179  18.076  27.010  0.00  0.00    +0.000 C 
ENDBRANCH  17  22
ENDBRANCH  15  16
ENDBRANCH   1  15
TORSDOF 6
ENDMDL
