MODEL 1
REMARK VINA RESULT:      -5.1      0.000      0.000
REMARK  Name = Trifluridine.pdbqt.pdb
REMARK  5 active torsions:
REMARK  status: ('A' for Active; 'I' for Inactive)
REMARK    1  A    between atoms: N_3  and  C1*_10
REMARK    2  A    between atoms: C_7  and  C_20
REMARK    3  A    between atoms: C4*_12  and  C5*_15
REMARK    4  A    between atoms: C3*_13  and  O3*_18
REMARK    5  A    between atoms: C5*_15  and  O5*_16
REMARK                            x       y       z     vdW  Elec       q    Type
REMARK                         _______ _______ _______ _____ _____    ______ ____
ROOT
ATOM      1  O   UNL     1       8.811  13.377  30.600  0.00  0.00    +0.000 OA
ATOM      2  O   UNL     1      11.019  16.775  28.447  0.00  0.00    +0.000 OA
ATOM      3  N   UNL     1      11.135  13.615  30.988  0.00  0.00    +0.000 N 
ATOM      4  N   UNL     1       9.969  15.063  29.559  0.00  0.00    +0.000 N 
ATOM      5  C   UNL     1      12.183  14.387  30.636  0.00  0.00    +0.000 A 
ATOM      6  C   UNL     1       9.882  13.944  30.420  0.00  0.00    +0.000 A 
ATOM      7  C   UNL     1      12.360  15.409  29.867  0.00  0.00    +0.000 A 
ATOM      8  C   UNL     1      11.091  15.830  29.220  0.00  0.00    +0.000 A 
ATOM      9  H   UNL     1       9.099  15.338  29.125  0.00  0.00    +0.000 HD
ENDROOT
BRANCH   3  10
ATOM     10  C1* UNL     1      11.335  12.575  31.849  0.00  0.00    +0.000 A 
ATOM     11  O4* UNL     1      11.683  12.776  33.189  0.00  0.00    +0.000 OA
ATOM     12  C4* UNL     1      11.833  11.508  33.766  0.00  0.00    +0.000 A 
ATOM     13  C3* UNL     1      11.570  10.503  32.768  0.00  0.00    +0.000 A 
ATOM     14  C2* UNL     1      11.271  11.194  31.580  0.00  0.00    +0.000 A 
BRANCH  13  15
ATOM     15  O3* UNL     1      12.193   9.288  32.812  0.00  0.00    +0.000 OA
ATOM     16  H3* UNL     1      11.549   8.562  32.743  0.00  0.00    +0.000 HD
ENDBRANCH  13  15
BRANCH  12  17
ATOM     17  C5* UNL     1      12.382  11.323  35.050  0.00  0.00    +0.000 C 
BRANCH  17  18
ATOM     18  O5* UNL     1      12.896  11.147  36.263  0.00  0.00    +0.000 OA
ATOM     19  H5* UNL     1      12.640  10.277  36.613  0.00  0.00    +0.000 HD
ENDBRANCH  17  18
ENDBRANCH  12  17
ENDBRANCH   3  10
BRANCH   7  20
ATOM     20  C   UNL     1      13.587  16.151  29.546  0.00  0.00    +0.000 C 
ATOM     21  F   UNL     1      14.619  15.829  30.365  0.00  0.00    +0.000 F 
ATOM     22  F   UNL     1      14.015  15.891  28.280  0.00  0.00    +0.000 F 
ATOM     23  F   UNL     1      13.415  17.495  29.616  0.00  0.00    +0.000 F 
ENDBRANCH   7  20
TORSDOF 5
ENDMDL
MODEL 2
REMARK VINA RESULT:      -5.0      5.719      7.597
REMARK  Name = Trifluridine.pdbqt.pdb
REMARK  5 active torsions:
REMARK  status: ('A' for Active; 'I' for Inactive)
REMARK    1  A    between atoms: N_3  and  C1*_10
REMARK    2  A    between atoms: C_7  and  C_20
REMARK    3  A    between atoms: C4*_12  and  C5*_15
REMARK    4  A    between atoms: C3*_13  and  O3*_18
REMARK    5  A    between atoms: C5*_15  and  O5*_16
REMARK                            x       y       z     vdW  Elec       q    Type
REMARK                         _______ _______ _______ _____ _____    ______ ____
ROOT
ATOM      1  O   UNL     1      13.588  22.027  29.878  0.00  0.00    +0.000 OA
ATOM      2  O   UNL     1       9.239  23.207  30.743  0.00  0.00    +0.000 OA
ATOM      3  N   UNL     1      12.029  20.296  30.305  0.00  0.00    +0.000 N 
ATOM      4  N   UNL     1      11.396  22.554  30.309  0.00  0.00    +0.000 N 
ATOM      5  C   UNL     1      10.726  20.107  30.593  0.00  0.00    +0.000 A 
ATOM      6  C   UNL     1      12.457  21.633  30.137  0.00  0.00    +0.000 A 
ATOM      7  C   UNL     1       9.699  20.870  30.771  0.00  0.00    +0.000 A 
ATOM      8  C   UNL     1      10.052  22.303  30.615  0.00  0.00    +0.000 A 
ATOM      9  H   UNL     1      11.651  23.525  30.200  0.00  0.00    +0.000 HD
ENDROOT
BRANCH   3  10
ATOM     10  C1* UNL     1      12.852  19.212  30.200  0.00  0.00    +0.000 A 
ATOM     11  O4* UNL     1      12.607  18.179  29.289  0.00  0.00    +0.000 OA
ATOM     12  C4* UNL     1      13.621  17.229  29.467  0.00  0.00    +0.000 A 
ATOM     13  C3* UNL     1      14.512  17.681  30.506  0.00  0.00    +0.000 A 
ATOM     14  C2* UNL     1      14.006  18.915  30.952  0.00  0.00    +0.000 A 
BRANCH  13  15
ATOM     15  O3* UNL     1      15.173  16.790  31.303  0.00  0.00    +0.000 OA
ATOM     16  H3* UNL     1      14.554  16.159  31.708  0.00  0.00    +0.000 HD
ENDBRANCH  13  15
BRANCH  12  17
ATOM     17  C5* UNL     1      13.579  15.957  28.864  0.00  0.00    +0.000 C 
BRANCH  17  18
ATOM     18  O5* UNL     1      13.538  14.758  28.291  0.00  0.00    +0.000 OA
ATOM     19  H5* UNL     1      14.244  14.679  27.628  0.00  0.00    +0.000 HD
ENDBRANCH  17  18
ENDBRANCH  12  17
ENDBRANCH   3  10
BRANCH   7  20
ATOM     20  C   UNL     1       8.313  20.525  31.114  0.00  0.00    +0.000 C 
ATOM     21  F   UNL     1       7.420  20.987  30.203  0.00  0.00    +0.000 F 
ATOM     22  F   UNL     1       8.129  19.177  31.171  0.00  0.00    +0.000 F 
ATOM     23  F   UNL     1       7.943  21.005  32.327  0.00  0.00    +0.000 F 
ENDBRANCH   7  20
TORSDOF 5
ENDMDL
MODEL 3
REMARK VINA RESULT:      -5.0      8.517     12.039
REMARK  Name = Trifluridine.pdbqt.pdb
REMARK  5 active torsions:
REMARK  status: ('A' for Active; 'I' for Inactive)
REMARK    1  A    between atoms: N_3  and  C1*_10
REMARK    2  A    between atoms: C_7  and  C_20
REMARK    3  A    between atoms: C4*_12  and  C5*_15
REMARK    4  A    between atoms: C3*_13  and  O3*_18
REMARK    5  A    between atoms: C5*_15  and  O5*_16
REMARK                            x       y       z     vdW  Elec       q    Type
REMARK                         _______ _______ _______ _____ _____    ______ ____
ROOT
ATOM      1  O   UNL     1       7.289  25.075  31.853  0.00  0.00    +0.000 OA
ATOM      2  O   UNL     1       7.514  20.728  33.307  0.00  0.00    +0.000 OA
ATOM      3  N   UNL     1       7.944  23.413  30.298  0.00  0.00    +0.000 N 
ATOM      4  N   UNL     1       7.412  22.881  32.519  0.00  0.00    +0.000 N 
ATOM      5  C   UNL     1       8.154  22.085  30.210  0.00  0.00    +0.000 A 
ATOM      6  C   UNL     1       7.530  23.911  31.555  0.00  0.00    +0.000 A 
ATOM      7  C   UNL     1       8.079  21.082  31.020  0.00  0.00    +0.000 A 
ATOM      8  C   UNL     1       7.651  21.508  32.375  0.00  0.00    +0.000 A 
ATOM      9  H   UNL     1       7.120  23.186  33.437  0.00  0.00    +0.000 HD
ENDROOT
BRANCH   3  10
ATOM     10  C1* UNL     1       8.142  24.193  29.195  0.00  0.00    +0.000 A 
ATOM     11  O4* UNL     1       8.968  25.322  29.223  0.00  0.00    +0.000 OA
ATOM     12  C4* UNL     1       8.921  25.893  27.944  0.00  0.00    +0.000 A 
ATOM     13  C3* UNL     1       8.053  25.103  27.108  0.00  0.00    +0.000 A 
ATOM     14  C2* UNL     1       7.574  24.055  27.914  0.00  0.00    +0.000 A 
BRANCH  13  15
ATOM     15  O3* UNL     1       7.342  25.677  26.092  0.00  0.00    +0.000 OA
ATOM     16  H3* UNL     1       6.935  24.999  25.524  0.00  0.00    +0.000 HD
ENDBRANCH  13  15
BRANCH  12  17
ATOM     17  C5* UNL     1       9.467  27.160  27.662  0.00  0.00    +0.000 C 
BRANCH  17  18
ATOM     18  O5* UNL     1       9.986  28.356  27.400  0.00  0.00    +0.000 OA
ATOM     19  H5* UNL     1      10.944  28.282  27.255  0.00  0.00    +0.000 HD
ENDBRANCH  17  18
ENDBRANCH  12  17
ENDBRANCH   3  10
BRANCH   7  20
ATOM     20  C   UNL     1       8.370  19.659  30.794  0.00  0.00    +0.000 C 
ATOM     21  F   UNL     1       7.272  18.875  30.931  0.00  0.00    +0.000 F 
ATOM     22  F   UNL     1       8.838  19.436  29.535  0.00  0.00    +0.000 F 
ATOM     23  F   UNL     1       9.319  19.183  31.638  0.00  0.00    +0.000 F 
ENDBRANCH   7  20
TORSDOF 5
ENDMDL
MODEL 4
REMARK VINA RESULT:      -5.0     11.282     13.731
REMARK  Name = Trifluridine.pdbqt.pdb
REMARK  5 active torsions:
REMARK  status: ('A' for Active; 'I' for Inactive)
REMARK    1  A    between atoms: N_3  and  C1*_10
REMARK    2  A    between atoms: C_7  and  C_20
REMARK    3  A    between atoms: C4*_12  and  C5*_15
REMARK    4  A    between atoms: C3*_13  and  O3*_18
REMARK    5  A    between atoms: C5*_15  and  O5*_16
REMARK                            x       y       z     vdW  Elec       q    Type
REMARK                         _______ _______ _______ _____ _____    ______ ____
ROOT
ATOM      1  O   UNL     1       9.103  22.704  29.727  0.00  0.00    +0.000 OA
ATOM      2  O   UNL     1       4.898  22.089  31.457  0.00  0.00    +0.000 OA
ATOM      3  N   UNL     1       7.419  24.262  29.138  0.00  0.00    +0.000 N 
ATOM      4  N   UNL     1       6.982  22.455  30.567  0.00  0.00    +0.000 N 
ATOM      5  C   UNL     1       6.115  24.526  29.353  0.00  0.00    +0.000 A 
ATOM      6  C   UNL     1       7.954  23.125  29.786  0.00  0.00    +0.000 A 
ATOM      7  C   UNL     1       5.162  23.981  30.033  0.00  0.00    +0.000 A 
ATOM      8  C   UNL     1       5.630  22.770  30.753  0.00  0.00    +0.000 A 
ATOM      9  H   UNL     1       7.314  21.632  31.051  0.00  0.00    +0.000 HD
ENDROOT
BRANCH   3  10
ATOM     10  C1* UNL     1       8.138  25.083  28.319  0.00  0.00    +0.000 A 
ATOM     11  O4* UNL     1       9.151  25.917  28.806  0.00  0.00    +0.000 OA
ATOM     12  C4* UNL     1       9.653  26.631  27.711  0.00  0.00    +0.000 A 
ATOM     13  C3* UNL     1       8.943  26.231  26.522  0.00  0.00    +0.000 A 
ATOM     14  C2* UNL     1       7.998  25.272  26.930  0.00  0.00    +0.000 A 
BRANCH  13  15
ATOM     15  O3* UNL     1       8.752  27.105  25.490  0.00  0.00    +0.000 OA
ATOM     16  H3* UNL     1       8.965  26.689  24.636  0.00  0.00    +0.000 HD
ENDBRANCH  13  15
BRANCH  12  17
ATOM     17  C5* UNL     1      10.541  27.715  27.858  0.00  0.00    +0.000 C 
BRANCH  17  18
ATOM     18  O5* UNL     1      11.382  28.734  27.999  0.00  0.00    +0.000 OA
ATOM     19  H5* UNL     1      11.639  28.831  28.931  0.00  0.00    +0.000 HD
ENDBRANCH  17  18
ENDBRANCH  12  17
ENDBRANCH   3  10
BRANCH   7  20
ATOM     20  C   UNL     1       3.749  24.367  30.160  0.00  0.00    +0.000 C 
ATOM     21  F   UNL     1       3.328  24.386  31.449  0.00  0.00    +0.000 F 
ATOM     22  F   UNL     1       3.524  25.617  29.671  0.00  0.00    +0.000 F 
ATOM     23  F   UNL     1       2.922  23.540  29.473  0.00  0.00    +0.000 F 
ENDBRANCH   7  20
TORSDOF 5
ENDMDL
MODEL 5
REMARK VINA RESULT:      -4.9     23.878     25.574
REMARK  Name = Trifluridine.pdbqt.pdb
REMARK  5 active torsions:
REMARK  status: ('A' for Active; 'I' for Inactive)
REMARK    1  A    between atoms: N_3  and  C1*_10
REMARK    2  A    between atoms: C_7  and  C_20
REMARK    3  A    between atoms: C4*_12  and  C5*_15
REMARK    4  A    between atoms: C3*_13  and  O3*_18
REMARK    5  A    between atoms: C5*_15  and  O5*_16
REMARK                            x       y       z     vdW  Elec       q    Type
REMARK                         _______ _______ _______ _____ _____    ______ ____
ROOT
ATOM      1  O   UNL     1      -1.989  30.535  16.465  0.00  0.00    +0.000 OA
ATOM      2  O   UNL     1      -3.732  26.436  17.569  0.00  0.00    +0.000 OA
ATOM      3  N   UNL     1      -0.969  28.607  15.543  0.00  0.00    +0.000 N 
ATOM      4  N   UNL     1      -2.821  28.457  16.973  0.00  0.00    +0.000 N 
ATOM      5  C   UNL     1      -1.077  27.264  15.541  0.00  0.00    +0.000 A 
ATOM      6  C   UNL     1      -1.910  29.321  16.321  0.00  0.00    +0.000 A 
ATOM      7  C   UNL     1      -1.858  26.399  16.098  0.00  0.00    +0.000 A 
ATOM      8  C   UNL     1      -2.886  27.058  16.942  0.00  0.00    +0.000 A 
ATOM      9  H   UNL     1      -3.514  28.919  17.545  0.00  0.00    +0.000 HD
ENDROOT
BRANCH   3  10
ATOM     10  C1* UNL     1       0.025  29.196  14.816  0.00  0.00    +0.000 A 
ATOM     11  O4* UNL     1       1.028  29.966  15.416  0.00  0.00    +0.000 OA
ATOM     12  C4* UNL     1       1.854  30.433  14.386  0.00  0.00    +0.000 A 
ATOM     13  C3* UNL     1       1.358  29.942  13.125  0.00  0.00    +0.000 A 
ATOM     14  C2* UNL     1       0.212  29.182  13.420  0.00  0.00    +0.000 A 
BRANCH  13  15
ATOM     15  O3* UNL     1       1.526  30.660  11.975  0.00  0.00    +0.000 OA
ATOM     16  H3* UNL     1       1.543  31.616  12.160  0.00  0.00    +0.000 HD
ENDBRANCH  13  15
BRANCH  12  17
ATOM     17  C5* UNL     1       2.847  31.409  14.598  0.00  0.00    +0.000 C 
BRANCH  17  18
ATOM     18  O5* UNL     1       3.785  32.329  14.802  0.00  0.00    +0.000 OA
ATOM     19  H5* UNL     1       4.651  31.904  14.925  0.00  0.00    +0.000 HD
ENDBRANCH  17  18
ENDBRANCH  12  17
ENDBRANCH   3  10
BRANCH   7  20
ATOM     20  C   UNL     1      -1.847  24.931  16.029  0.00  0.00    +0.000 C 
ATOM     21  F   UNL     1      -2.936  24.431  15.395  0.00  0.00    +0.000 F 
ATOM     22  F   UNL     1      -0.765  24.469  15.343  0.00  0.00    +0.000 F 
ATOM     23  F   UNL     1      -1.788  24.355  17.256  0.00  0.00    +0.000 F 
ENDBRANCH   7  20
TORSDOF 5
ENDMDL
MODEL 6
REMARK VINA RESULT:      -4.9     11.519     13.140
REMARK  Name = Trifluridine.pdbqt.pdb
REMARK  5 active torsions:
REMARK  status: ('A' for Active; 'I' for Inactive)
REMARK    1  A    between atoms: N_3  and  C1*_10
REMARK    2  A    between atoms: C_7  and  C_20
REMARK    3  A    between atoms: C4*_12  and  C5*_15
REMARK    4  A    between atoms: C3*_13  and  O3*_18
REMARK    5  A    between atoms: C5*_15  and  O5*_16
REMARK                            x       y       z     vdW  Elec       q    Type
REMARK                         _______ _______ _______ _____ _____    ______ ____
ROOT
ATOM      1  O   UNL     1       6.226  23.076  31.888  0.00  0.00    +0.000 OA
ATOM      2  O   UNL     1       9.917  24.760  29.741  0.00  0.00    +0.000 OA
ATOM      3  N   UNL     1       5.909  24.138  29.795  0.00  0.00    +0.000 N 
ATOM      4  N   UNL     1       8.035  23.931  30.762  0.00  0.00    +0.000 N 
ATOM      5  C   UNL     1       6.601  24.757  28.818  0.00  0.00    +0.000 A 
ATOM      6  C   UNL     1       6.652  23.660  30.898  0.00  0.00    +0.000 A 
ATOM      7  C   UNL     1       7.841  25.052  28.609  0.00  0.00    +0.000 A 
ATOM      8  C   UNL     1       8.706  24.587  29.722  0.00  0.00    +0.000 A 
ATOM      9  H   UNL     1       8.611  23.610  31.526  0.00  0.00    +0.000 HD
ENDROOT
BRANCH   3  10
ATOM     10  C1* UNL     1       4.554  24.014  29.675  0.00  0.00    +0.000 A 
ATOM     11  O4* UNL     1       3.949  22.812  29.293  0.00  0.00    +0.000 OA
ATOM     12  C4* UNL     1       2.569  23.047  29.246  0.00  0.00    +0.000 A 
ATOM     13  C3* UNL     1       2.313  24.418  29.608  0.00  0.00    +0.000 A 
ATOM     14  C2* UNL     1       3.567  25.002  29.861  0.00  0.00    +0.000 A 
BRANCH  13  15
ATOM     15  O3* UNL     1       1.244  25.094  29.091  0.00  0.00    +0.000 OA
ATOM     16  H3* UNL     1       0.671  24.499  28.576  0.00  0.00    +0.000 HD
ENDBRANCH  13  15
BRANCH  12  17
ATOM     17  C5* UNL     1       1.663  22.118  28.698  0.00  0.00    +0.000 C 
BRANCH  17  18
ATOM     18  O5* UNL     1       0.803  21.245  28.183  0.00  0.00    +0.000 OA
ATOM     19  H5* UNL     1       1.227  20.376  28.084  0.00  0.00    +0.000 HD
ENDBRANCH  17  18
ENDBRANCH  12  17
ENDBRANCH   3  10
BRANCH   7  20
ATOM     20  C   UNL     1       8.467  25.769  27.489  0.00  0.00    +0.000 C 
ATOM     21  F   UNL     1       8.847  27.027  27.824  0.00  0.00    +0.000 F 
ATOM     22  F   UNL     1       9.593  25.138  27.056  0.00  0.00    +0.000 F 
ATOM     23  F   UNL     1       7.651  25.863  26.410  0.00  0.00    +0.000 F 
ENDBRANCH   7  20
TORSDOF 5
ENDMDL
MODEL 7
REMARK VINA RESULT:      -4.8     23.372     24.448
REMARK  Name = Trifluridine.pdbqt.pdb
REMARK  5 active torsions:
REMARK  status: ('A' for Active; 'I' for Inactive)
REMARK    1  A    between atoms: N_3  and  C1*_10
REMARK    2  A    between atoms: C_7  and  C_20
REMARK    3  A    between atoms: C4*_12  and  C5*_15
REMARK    4  A    between atoms: C3*_13  and  O3*_18
REMARK    5  A    between atoms: C5*_15  and  O5*_16
REMARK                            x       y       z     vdW  Elec       q    Type
REMARK                         _______ _______ _______ _____ _____    ______ ____
ROOT
ATOM      1  O   UNL     1      -3.342  27.728  18.909  0.00  0.00    +0.000 OA
ATOM      2  O   UNL     1       0.465  29.246  16.844  0.00  0.00    +0.000 OA
ATOM      3  N   UNL     1      -2.549  26.536  17.023  0.00  0.00    +0.000 N 
ATOM      4  N   UNL     1      -1.438  28.434  17.839  0.00  0.00    +0.000 N 
ATOM      5  C   UNL     1      -1.552  26.553  16.116  0.00  0.00    +0.000 A 
ATOM      6  C   UNL     1      -2.536  27.556  18.002  0.00  0.00    +0.000 A 
ATOM      7  C   UNL     1      -0.525  27.302  15.886  0.00  0.00    +0.000 A 
ATOM      8  C   UNL     1      -0.427  28.409  16.869  0.00  0.00    +0.000 A 
ATOM      9  H   UNL     1      -1.385  29.183  18.515  0.00  0.00    +0.000 HD
ENDROOT
BRANCH   3  10
ATOM     10  C1* UNL     1      -3.502  25.562  16.946  0.00  0.00    +0.000 A 
ATOM     11  O4* UNL     1      -4.692  25.741  16.233  0.00  0.00    +0.000 OA
ATOM     12  C4* UNL     1      -5.441  24.567  16.388  0.00  0.00    +0.000 A 
ATOM     13  C3* UNL     1      -4.700  23.642  17.208  0.00  0.00    +0.000 A 
ATOM     14  C2* UNL     1      -3.500  24.290  17.550  0.00  0.00    +0.000 A 
BRANCH  13  15
ATOM     15  O3* UNL     1      -5.344  22.745  18.013  0.00  0.00    +0.000 OA
ATOM     16  H3* UNL     1      -6.088  23.166  18.479  0.00  0.00    +0.000 HD
ENDBRANCH  13  15
BRANCH  12  17
ATOM     17  C5* UNL     1      -6.785  24.469  15.979  0.00  0.00    +0.000 C 
BRANCH  17  18
ATOM     18  O5* UNL     1      -8.054  24.371  15.596  0.00  0.00    +0.000 OA
ATOM     19  H5* UNL     1      -8.115  23.877  14.761  0.00  0.00    +0.000 HD
ENDBRANCH  17  18
ENDBRANCH  12  17
ENDBRANCH   3  10
BRANCH   7  20
ATOM     20  C   UNL     1       0.487  27.220  14.823  0.00  0.00    +0.000 C 
ATOM     21  F   UNL     1       1.749  27.125  15.312  0.00  0.00    +0.000 F 
ATOM     22  F   UNL     1       0.303  26.123  14.038  0.00  0.00    +0.000 F 
ATOM     23  F   UNL     1       0.452  28.289  13.989  0.00  0.00    +0.000 F 
ENDBRANCH   7  20
TORSDOF 5
ENDMDL
MODEL 8
REMARK VINA RESULT:      -4.8      6.404     10.025
REMARK  Name = Trifluridine.pdbqt.pdb
REMARK  5 active torsions:
REMARK  status: ('A' for Active; 'I' for Inactive)
REMARK    1  A    between atoms: N_3  and  C1*_10
REMARK    2  A    between atoms: C_7  and  C_20
REMARK    3  A    between atoms: C4*_12  and  C5*_15
REMARK    4  A    between atoms: C3*_13  and  O3*_18
REMARK    5  A    between atoms: C5*_15  and  O5*_16
REMARK                            x       y       z     vdW  Elec       q    Type
REMARK                         _______ _______ _______ _____ _____    ______ ____
ROOT
ATOM      1  O   UNL     1       6.158  20.704  31.387  0.00  0.00    +0.000 OA
ATOM      2  O   UNL     1       8.751  16.928  31.103  0.00  0.00    +0.000 OA
ATOM      3  N   UNL     1       8.261  20.876  30.311  0.00  0.00    +0.000 N 
ATOM      4  N   UNL     1       7.497  18.848  31.206  0.00  0.00    +0.000 N 
ATOM      5  C   UNL     1       9.333  20.129  29.980  0.00  0.00    +0.000 A 
ATOM      6  C   UNL     1       7.212  20.218  30.993  0.00  0.00    +0.000 A 
ATOM      7  C   UNL     1       9.682  18.895  30.132  0.00  0.00    +0.000 A 
ATOM      8  C   UNL     1       8.636  18.118  30.844  0.00  0.00    +0.000 A 
ATOM      9  H   UNL     1       6.777  18.332  31.692  0.00  0.00    +0.000 HD
ENDROOT
BRANCH   3  10
ATOM     10  C1* UNL     1       8.247  22.202  29.985  0.00  0.00    +0.000 A 
ATOM     11  O4* UNL     1       7.690  22.666  28.789  0.00  0.00    +0.000 OA
ATOM     12  C4* UNL     1       7.870  24.055  28.768  0.00  0.00    +0.000 A 
ATOM     13  C3* UNL     1       8.547  24.461  29.974  0.00  0.00    +0.000 A 
ATOM     14  C2* UNL     1       8.779  23.285  30.711  0.00  0.00    +0.000 A 
BRANCH  13  15
ATOM     15  O3* UNL     1       9.374  25.548  29.985  0.00  0.00    +0.000 OA
ATOM     16  H3* UNL     1       9.153  26.147  30.719  0.00  0.00    +0.000 HD
ENDBRANCH  13  15
BRANCH  12  17
ATOM     17  C5* UNL     1       7.618  24.833  27.621  0.00  0.00    +0.000 C 
BRANCH  17  18
ATOM     18  O5* UNL     1       7.385  25.570  26.539  0.00  0.00    +0.000 OA
ATOM     19  H5* UNL     1       6.441  25.793  26.482  0.00  0.00    +0.000 HD
ENDBRANCH  17  18
ENDBRANCH  12  17
ENDBRANCH   3  10
BRANCH   7  20
ATOM     20  C   UNL     1      10.918  18.205  29.737  0.00  0.00    +0.000 C 
ATOM     21  F   UNL     1      11.809  19.035  29.141  0.00  0.00    +0.000 F 
ATOM     22  F   UNL     1      11.560  17.672  30.813  0.00  0.00    +0.000 F 
ATOM     23  F   UNL     1      10.688  17.174  28.887  0.00  0.00    +0.000 F 
ENDBRANCH   7  20
TORSDOF 5
ENDMDL
MODEL 9
REMARK VINA RESULT:      -4.8     23.894     24.897
REMARK  Name = Trifluridine.pdbqt.pdb
REMARK  5 active torsions:
REMARK  status: ('A' for Active; 'I' for Inactive)
REMARK    1  A    between atoms: N_3  and  C1*_10
REMARK    2  A    between atoms: C_7  and  C_20
REMARK    3  A    between atoms: C4*_12  and  C5*_15
REMARK    4  A    between atoms: C3*_13  and  O3*_18
REMARK    5  A    between atoms: C5*_15  and  O5*_16
REMARK                            x       y       z     vdW  Elec       q    Type
REMARK                         _______ _______ _______ _____ _____    ______ ____
ROOT
ATOM      1  O   UNL     1      -2.767  30.997  16.807  0.00  0.00    +0.000 OA
ATOM      2  O   UNL     1       0.487  29.434  13.973  0.00  0.00    +0.000 OA
ATOM      3  N   UNL     1      -2.237  28.690  16.885  0.00  0.00    +0.000 N 
ATOM      4  N   UNL     1      -1.142  30.157  15.420  0.00  0.00    +0.000 N 
ATOM      5  C   UNL     1      -1.422  27.782  16.312  0.00  0.00    +0.000 A 
ATOM      6  C   UNL     1      -2.125  30.024  16.428  0.00  0.00    +0.000 A 
ATOM      7  C   UNL     1      -0.511  27.805  15.397  0.00  0.00    +0.000 A 
ATOM      8  C   UNL     1      -0.321  29.173  14.853  0.00  0.00    +0.000 A 
ATOM      9  H   UNL     1      -1.024  31.093  15.058  0.00  0.00    +0.000 HD
ENDROOT
BRANCH   3  10
ATOM     10  C1* UNL     1      -3.114  28.283  17.849  0.00  0.00    +0.000 A 
ATOM     11  O4* UNL     1      -3.685  29.180  18.759  0.00  0.00    +0.000 OA
ATOM     12  C4* UNL     1      -4.503  28.428  19.612  0.00  0.00    +0.000 A 
ATOM     13  C3* UNL     1      -4.441  27.041  19.223  0.00  0.00    +0.000 A 
ATOM     14  C2* UNL     1      -3.560  26.977  18.128  0.00  0.00    +0.000 A 
BRANCH  13  15
ATOM     15  O3* UNL     1      -4.590  26.045  20.146  0.00  0.00    +0.000 OA
ATOM     16  H3* UNL     1      -3.736  25.627  20.350  0.00  0.00    +0.000 HD
ENDBRANCH  13  15
BRANCH  12  17
ATOM     17  C5* UNL     1      -5.075  28.968  20.780  0.00  0.00    +0.000 C 
BRANCH  17  18
ATOM     18  O5* UNL     1      -5.616  29.473  21.885  0.00  0.00    +0.000 OA
ATOM     19  H5* UNL     1      -6.125  30.273  21.674  0.00  0.00    +0.000 HD
ENDBRANCH  17  18
ENDBRANCH  12  17
ENDBRANCH   3  10
BRANCH   7  20
ATOM     20  C   UNL     1       0.298  26.713  14.839  0.00  0.00    +0.000 C 
ATOM     21  F   UNL     1      -0.125  25.491  15.247  0.00  0.00    +0.000 F 
ATOM     22  F   UNL     1       0.247  26.695  13.478  0.00  0.00    +0.000 F 
ATOM     23  F   UNL     1       1.610  26.819  15.164  0.00  0.00    +0.000 F 
ENDBRANCH   7  20
TORSDOF 5
ENDMDL
