MODEL 1
REMARK VINA RESULT:      -7.4      0.000      0.000
REMARK  Name = Troglitazone.pdbqt.pdb
REMARK  4 active torsions:
REMARK  status: ('A' for Active; 'I' for Inactive)
REMARK    1  A    between atoms: C_1  and  O_2
REMARK    2  A    between atoms: C_1  and  C_18
REMARK    3  A    between atoms: O_2  and  C_3
REMARK    4  A    between atoms: C_26  and  O_32
REMARK                            x       y       z     vdW  Elec       q    Type
REMARK                         _______ _______ _______ _____ _____    ______ ____
ROOT
ATOM      1  C   UNL     1      30.447  11.182  18.361  0.00  0.00    +0.000 C 
ENDROOT
BRANCH   1   2
ATOM      2  C   UNL     1      30.537  12.018  17.151  0.00  0.00    +0.000 C 
ATOM      3  O   UNL     1      30.381  13.419  17.580  0.00  0.00    +0.000 OA
ATOM      4  C   UNL     1      29.760  14.402  16.800  0.00  0.00    +0.000 A 
ATOM      5  C   UNL     1      28.847  14.119  15.741  0.00  0.00    +0.000 A 
ATOM      6  C   UNL     1      30.023  15.745  17.142  0.00  0.00    +0.000 A 
ATOM      7  C   UNL     1      28.644  12.736  15.497  0.00  0.00    +0.000 C 
ATOM      8  C   UNL     1      28.230  15.145  15.015  0.00  0.00    +0.000 A 
ATOM      9  C   UNL     1      29.474  11.716  16.201  0.00  0.00    +0.000 C 
ATOM     10  C   UNL     1      28.515  16.478  15.351  0.00  0.00    +0.000 A 
ATOM     11  C   UNL     1      27.266  14.817  13.895  0.00  0.00    +0.000 C 
ATOM     12  C   UNL     1      29.402  16.778  16.406  0.00  0.00    +0.000 A 
ATOM     13  C   UNL     1      29.622  18.264  16.692  0.00  0.00    +0.000 C 
ATOM     14  C   UNL     1      30.960  16.036  18.307  0.00  0.00    +0.000 C 
ATOM     15  C   UNL     1      31.930  11.907  16.484  0.00  0.00    +0.000 C 
BRANCH  10  16
ATOM     16  O   UNL     1      27.916  17.511  14.649  0.00  0.00    +0.000 OA
ATOM     17  H   UNL     1      26.980  17.576  14.940  0.00  0.00    +0.000 HD
ENDBRANCH  10  16
ENDBRANCH   1   2
BRANCH   1  18
ATOM     18  O   UNL     1      30.377  10.426  19.458  0.00  0.00    +0.000 OA
BRANCH  18  19
ATOM     19  C   UNL     1      29.450  10.843  20.381  0.00  0.00    +0.000 C 
ATOM     20  C   UNL     1      29.756  11.228  21.688  0.00  0.00    +0.000 C 
ATOM     21  C   UNL     1      28.745  11.643  22.552  0.00  0.00    +0.000 C 
ATOM     22  C   UNL     1      27.425  11.673  22.110  0.00  0.00    +0.000 C 
ATOM     23  C   UNL     1      27.114  11.289  20.807  0.00  0.00    +0.000 C 
ATOM     24  C   UNL     1      28.127  10.875  19.944  0.00  0.00    +0.000 C 
ATOM     25  C   UNL     1      26.390  12.098  22.991  0.00  0.00    +0.000 C 
ATOM     26  C   UNL     1      25.358  12.511  23.862  0.00  0.00    +0.000 C 
ATOM     27  S   UNL     1      25.479  13.810  24.987  0.00  0.00    +0.000 S 
ATOM     28  C   UNL     1      23.833  13.572  25.542  0.00  0.00    +0.000 C 
ATOM     29  O   UNL     1      23.293  14.249  26.399  0.00  0.00    +0.000 OA
ATOM     30  N   UNL     1      23.267  12.536  24.873  0.00  0.00    +0.000 N 
ATOM     31  C   UNL     1      24.015  11.897  23.929  0.00  0.00    +0.000 C 
ATOM     32  H   UNL     1      22.317  12.259  25.060  0.00  0.00    +0.000 HD
ATOM     33  O   UNL     1      23.629  10.964  23.246  0.00  0.00    +0.000 OA
ENDBRANCH  18  19
ENDBRANCH   1  18
TORSDOF 4
ENDMDL
MODEL 2
REMARK VINA RESULT:      -7.4     24.378     26.473
REMARK  Name = Troglitazone.pdbqt.pdb
REMARK  4 active torsions:
REMARK  status: ('A' for Active; 'I' for Inactive)
REMARK    1  A    between atoms: C_1  and  O_2
REMARK    2  A    between atoms: C_1  and  C_18
REMARK    3  A    between atoms: O_2  and  C_3
REMARK    4  A    between atoms: C_26  and  O_32
REMARK                            x       y       z     vdW  Elec       q    Type
REMARK                         _______ _______ _______ _____ _____    ______ ____
ROOT
ATOM      1  C   UNL     1       6.209  24.092  30.086  0.00  0.00    +0.000 C 
ENDROOT
BRANCH   1   2
ATOM      2  C   UNL     1       7.497  24.272  29.395  0.00  0.00    +0.000 C 
ATOM      3  O   UNL     1       8.017  25.593  29.785  0.00  0.00    +0.000 OA
ATOM      4  C   UNL     1       8.774  26.409  28.935  0.00  0.00    +0.000 A 
ATOM      5  C   UNL     1       8.775  26.293  27.513  0.00  0.00    +0.000 A 
ATOM      6  C   UNL     1       9.526  27.436  29.542  0.00  0.00    +0.000 A 
ATOM      7  C   UNL     1       7.971  25.237  27.011  0.00  0.00    +0.000 C 
ATOM      8  C   UNL     1       9.528  27.158  26.710  0.00  0.00    +0.000 A 
ATOM      9  C   UNL     1       7.344  24.258  27.946  0.00  0.00    +0.000 C 
ATOM     10  C   UNL     1      10.287  28.165  27.326  0.00  0.00    +0.000 A 
ATOM     11  C   UNL     1       9.511  27.013  25.203  0.00  0.00    +0.000 C 
ATOM     12  C   UNL     1      10.287  28.306  28.730  0.00  0.00    +0.000 A 
ATOM     13  C   UNL     1      11.137  29.448  29.287  0.00  0.00    +0.000 C 
ATOM     14  C   UNL     1       9.479  27.584  31.058  0.00  0.00    +0.000 C 
ATOM     15  C   UNL     1       8.542  23.226  29.856  0.00  0.00    +0.000 C 
BRANCH  10  16
ATOM     16  O   UNL     1      11.039  29.035  26.554  0.00  0.00    +0.000 OA
ATOM     17  H   UNL     1      10.423  29.644  26.091  0.00  0.00    +0.000 HD
ENDBRANCH  10  16
ENDBRANCH   1   2
BRANCH   1  18
ATOM     18  O   UNL     1       5.045  23.919  30.715  0.00  0.00    +0.000 OA
BRANCH  18  19
ATOM     19  C   UNL     1       4.392  22.753  30.402  0.00  0.00    +0.000 C 
ATOM     20  C   UNL     1       3.271  22.673  29.573  0.00  0.00    +0.000 C 
ATOM     21  C   UNL     1       2.680  21.440  29.307  0.00  0.00    +0.000 C 
ATOM     22  C   UNL     1       3.210  20.283  29.872  0.00  0.00    +0.000 C 
ATOM     23  C   UNL     1       4.328  20.356  30.701  0.00  0.00    +0.000 C 
ATOM     24  C   UNL     1       4.918  21.590  30.964  0.00  0.00    +0.000 C 
ATOM     25  C   UNL     1       2.609  19.021  29.601  0.00  0.00    +0.000 C 
ATOM     26  C   UNL     1       2.012  17.767  29.343  0.00  0.00    +0.000 C 
ATOM     27  S   UNL     1       1.383  17.270  27.819  0.00  0.00    +0.000 S 
ATOM     28  C   UNL     1       0.913  15.703  28.448  0.00  0.00    +0.000 C 
ATOM     29  O   UNL     1       0.379  14.829  27.786  0.00  0.00    +0.000 OA
ATOM     30  N   UNL     1       1.237  15.618  29.762  0.00  0.00    +0.000 N 
ATOM     31  C   UNL     1       1.849  16.690  30.342  0.00  0.00    +0.000 C 
ATOM     32  H   UNL     1       1.044  14.781  30.289  0.00  0.00    +0.000 HD
ATOM     33  O   UNL     1       2.206  16.744  31.507  0.00  0.00    +0.000 OA
ENDBRANCH  18  19
ENDBRANCH   1  18
TORSDOF 4
ENDMDL
MODEL 3
REMARK VINA RESULT:      -7.1     11.041     14.960
REMARK  Name = Troglitazone.pdbqt.pdb
REMARK  4 active torsions:
REMARK  status: ('A' for Active; 'I' for Inactive)
REMARK    1  A    between atoms: C_1  and  O_2
REMARK    2  A    between atoms: C_1  and  C_18
REMARK    3  A    between atoms: O_2  and  C_3
REMARK    4  A    between atoms: C_26  and  O_32
REMARK                            x       y       z     vdW  Elec       q    Type
REMARK                         _______ _______ _______ _____ _____    ______ ____
ROOT
ATOM      1  C   UNL     1      20.709  18.817  30.904  0.00  0.00    +0.000 C 
ENDROOT
BRANCH   1   2
ATOM      2  C   UNL     1      21.756  18.671  29.880  0.00  0.00    +0.000 C 
ATOM      3  O   UNL     1      21.935  19.992  29.251  0.00  0.00    +0.000 OA
ATOM      4  C   UNL     1      22.273  20.168  27.904  0.00  0.00    +0.000 A 
ATOM      5  C   UNL     1      22.068  19.180  26.896  0.00  0.00    +0.000 A 
ATOM      6  C   UNL     1      22.790  21.428  27.537  0.00  0.00    +0.000 A 
ATOM      7  C   UNL     1      21.528  17.958  27.374  0.00  0.00    +0.000 C 
ATOM      8  C   UNL     1      22.396  19.423  25.557  0.00  0.00    +0.000 A 
ATOM      9  C   UNL     1      21.373  17.725  28.840  0.00  0.00    +0.000 C 
ATOM     10  C   UNL     1      22.928  20.674  25.206  0.00  0.00    +0.000 A 
ATOM     11  C   UNL     1      22.169  18.357  24.506  0.00  0.00    +0.000 C 
ATOM     12  C   UNL     1      23.122  21.671  26.186  0.00  0.00    +0.000 A 
ATOM     13  C   UNL     1      23.691  22.998  25.685  0.00  0.00    +0.000 C 
ATOM     14  C   UNL     1      22.957  22.495  28.612  0.00  0.00    +0.000 C 
ATOM     15  C   UNL     1      23.119  18.288  30.508  0.00  0.00    +0.000 C 
BRANCH  10  16
ATOM     16  O   UNL     1      23.258  20.941  23.888  0.00  0.00    +0.000 OA
ATOM     17  H   UNL     1      22.480  21.354  23.454  0.00  0.00    +0.000 HD
ENDBRANCH  10  16
ENDBRANCH   1   2
BRANCH   1  18
ATOM     18  O   UNL     1      19.758  18.960  31.830  0.00  0.00    +0.000 OA
BRANCH  18  19
ATOM     19  C   UNL     1      18.516  18.516  31.449  0.00  0.00    +0.000 C 
ATOM     20  C   UNL     1      18.277  17.313  30.781  0.00  0.00    +0.000 C 
ATOM     21  C   UNL     1      16.978  16.944  30.442  0.00  0.00    +0.000 C 
ATOM     22  C   UNL     1      15.914  17.780  30.770  0.00  0.00    +0.000 C 
ATOM     23  C   UNL     1      16.145  18.982  31.436  0.00  0.00    +0.000 C 
ATOM     24  C   UNL     1      17.446  19.348  31.776  0.00  0.00    +0.000 C 
ATOM     25  C   UNL     1      14.584  17.405  30.426  0.00  0.00    +0.000 C 
ATOM     26  C   UNL     1      13.263  17.042  30.079  0.00  0.00    +0.000 C 
ATOM     27  S   UNL     1      12.621  15.446  30.176  0.00  0.00    +0.000 S 
ATOM     28  C   UNL     1      11.051  15.970  29.599  0.00  0.00    +0.000 C 
ATOM     29  O   UNL     1      10.093  15.231  29.451  0.00  0.00    +0.000 OA
ATOM     30  N   UNL     1      11.072  17.304  29.355  0.00  0.00    +0.000 N 
ATOM     31  C   UNL     1      12.231  17.982  29.593  0.00  0.00    +0.000 C 
ATOM     32  H   UNL     1      10.249  17.780  29.020  0.00  0.00    +0.000 HD
ATOM     33  O   UNL     1      12.385  19.181  29.432  0.00  0.00    +0.000 OA
ENDBRANCH  18  19
ENDBRANCH   1  18
TORSDOF 4
ENDMDL
MODEL 4
REMARK VINA RESULT:      -7.0     17.780     20.243
REMARK  Name = Troglitazone.pdbqt.pdb
REMARK  4 active torsions:
REMARK  status: ('A' for Active; 'I' for Inactive)
REMARK    1  A    between atoms: C_1  and  O_2
REMARK    2  A    between atoms: C_1  and  C_18
REMARK    3  A    between atoms: O_2  and  C_3
REMARK    4  A    between atoms: C_26  and  O_32
REMARK                            x       y       z     vdW  Elec       q    Type
REMARK                         _______ _______ _______ _____ _____    ______ ____
ROOT
ATOM      1  C   UNL     1      14.992  -4.088  17.061  0.00  0.00    +0.000 C 
ENDROOT
BRANCH   1   2
ATOM      2  C   UNL     1      16.406  -4.112  16.649  0.00  0.00    +0.000 C 
ATOM      3  O   UNL     1      17.038  -2.901  17.201  0.00  0.00    +0.000 OA
ATOM      4  C   UNL     1      18.072  -2.207  16.560  0.00  0.00    +0.000 A 
ATOM      5  C   UNL     1      18.345  -2.298  15.163  0.00  0.00    +0.000 A 
ATOM      6  C   UNL     1      18.837  -1.328  17.355  0.00  0.00    +0.000 A 
ATOM      7  C   UNL     1      17.504  -3.198  14.459  0.00  0.00    +0.000 C 
ATOM      8  C   UNL     1      19.373  -1.555  14.569  0.00  0.00    +0.000 A 
ATOM      9  C   UNL     1      16.552  -4.076  15.200  0.00  0.00    +0.000 C 
ATOM     10  C   UNL     1      20.140  -0.698  15.373  0.00  0.00    +0.000 A 
ATOM     11  C   UNL     1      19.641  -1.670  13.084  0.00  0.00    +0.000 C 
ATOM     12  C   UNL     1      19.876  -0.582  16.754  0.00  0.00    +0.000 A 
ATOM     13  C   UNL     1      20.764   0.394  17.525  0.00  0.00    +0.000 C 
ATOM     14  C   UNL     1      18.506  -1.201  18.836  0.00  0.00    +0.000 C 
ATOM     15  C   UNL     1      17.156  -5.323  17.256  0.00  0.00    +0.000 C 
BRANCH  10  16
ATOM     16  O   UNL     1      21.162   0.049  14.810  0.00  0.00    +0.000 OA
ATOM     17  H   UNL     1      20.778   0.605  14.097  0.00  0.00    +0.000 HD
ENDBRANCH  10  16
ENDBRANCH   1   2
BRANCH   1  18
ATOM     18  O   UNL     1      13.714  -4.060  17.442  0.00  0.00    +0.000 OA
BRANCH  18  19
ATOM     19  C   UNL     1      13.522  -3.879  18.789  0.00  0.00    +0.000 C 
ATOM     20  C   UNL     1      12.351  -4.212  19.473  0.00  0.00    +0.000 C 
ATOM     21  C   UNL     1      12.253  -3.996  20.845  0.00  0.00    +0.000 C 
ATOM     22  C   UNL     1      13.329  -3.446  21.538  0.00  0.00    +0.000 C 
ATOM     23  C   UNL     1      14.500  -3.112  20.862  0.00  0.00    +0.000 C 
ATOM     24  C   UNL     1      14.596  -3.330  19.489  0.00  0.00    +0.000 C 
ATOM     25  C   UNL     1      13.232  -3.226  22.941  0.00  0.00    +0.000 C 
ATOM     26  C   UNL     1      13.139  -2.998  24.332  0.00  0.00    +0.000 C 
ATOM     27  S   UNL     1      12.383  -4.060  25.457  0.00  0.00    +0.000 S 
ATOM     28  C   UNL     1      12.760  -3.009  26.807  0.00  0.00    +0.000 C 
ATOM     29  O   UNL     1      12.465  -3.246  27.966  0.00  0.00    +0.000 OA
ATOM     30  N   UNL     1      13.426  -1.912  26.365  0.00  0.00    +0.000 N 
ATOM     31  C   UNL     1      13.689  -1.817  25.031  0.00  0.00    +0.000 C 
ATOM     32  H   UNL     1      13.728  -1.198  27.008  0.00  0.00    +0.000 HD
ATOM     33  O   UNL     1      14.289  -0.897  24.502  0.00  0.00    +0.000 OA
ENDBRANCH  18  19
ENDBRANCH   1  18
TORSDOF 4
ENDMDL
MODEL 5
REMARK VINA RESULT:      -6.7     19.550     24.666
REMARK  Name = Troglitazone.pdbqt.pdb
REMARK  4 active torsions:
REMARK  status: ('A' for Active; 'I' for Inactive)
REMARK    1  A    between atoms: C_1  and  O_2
REMARK    2  A    between atoms: C_1  and  C_18
REMARK    3  A    between atoms: O_2  and  C_3
REMARK    4  A    between atoms: C_26  and  O_32
REMARK                            x       y       z     vdW  Elec       q    Type
REMARK                         _______ _______ _______ _____ _____    ______ ____
ROOT
ATOM      1  C   UNL     1       6.310  23.216  30.546  0.00  0.00    +0.000 C 
ENDROOT
BRANCH   1   2
ATOM      2  C   UNL     1       6.713  24.563  30.106  0.00  0.00    +0.000 C 
ATOM      3  O   UNL     1       8.177  24.645  30.246  0.00  0.00    +0.000 OA
ATOM      4  C   UNL     1       8.857  25.821  30.585  0.00  0.00    +0.000 A 
ATOM      5  C   UNL     1       8.250  26.932  31.242  0.00  0.00    +0.000 A 
ATOM      6  C   UNL     1      10.239  25.861  30.302  0.00  0.00    +0.000 A 
ATOM      7  C   UNL     1       6.862  26.776  31.492  0.00  0.00    +0.000 C 
ATOM      8  C   UNL     1       8.988  28.071  31.586  0.00  0.00    +0.000 A 
ATOM      9  C   UNL     1       6.122  25.605  30.936  0.00  0.00    +0.000 C 
ATOM     10  C   UNL     1      10.357  28.107  31.282  0.00  0.00    +0.000 A 
ATOM     11  C   UNL     1       8.317  29.236  32.283  0.00  0.00    +0.000 C 
ATOM     12  C   UNL     1      10.981  27.012  30.647  0.00  0.00    +0.000 A 
ATOM     13  C   UNL     1      12.479  27.158  30.382  0.00  0.00    +0.000 C 
ATOM     14  C   UNL     1      10.890  24.649  29.646  0.00  0.00    +0.000 C 
ATOM     15  C   UNL     1       6.393  24.794  28.609  0.00  0.00    +0.000 C 
BRANCH  10  16
ATOM     16  O   UNL     1      11.110  29.221  31.614  0.00  0.00    +0.000 OA
ATOM     17  H   UNL     1      10.696  30.007  31.196  0.00  0.00    +0.000 HD
ENDBRANCH  10  16
ENDBRANCH   1   2
BRANCH   1  18
ATOM     18  O   UNL     1       5.940  22.001  30.951  0.00  0.00    +0.000 OA
BRANCH  18  19
ATOM     19  C   UNL     1       6.901  21.031  30.810  0.00  0.00    +0.000 C 
ATOM     20  C   UNL     1       8.146  21.234  30.209  0.00  0.00    +0.000 C 
ATOM     21  C   UNL     1       9.060  20.187  30.118  0.00  0.00    +0.000 C 
ATOM     22  C   UNL     1       8.731  18.935  30.629  0.00  0.00    +0.000 C 
ATOM     23  C   UNL     1       7.491  18.726  31.229  0.00  0.00    +0.000 C 
ATOM     24  C   UNL     1       6.578  19.774  31.320  0.00  0.00    +0.000 C 
ATOM     25  C   UNL     1       9.665  17.864  30.539  0.00  0.00    +0.000 C 
ATOM     26  C   UNL     1      10.584  16.794  30.445  0.00  0.00    +0.000 C 
ATOM     27  S   UNL     1      12.286  16.935  30.673  0.00  0.00    +0.000 S 
ATOM     28  C   UNL     1      12.533  15.223  30.390  0.00  0.00    +0.000 C 
ATOM     29  O   UNL     1      13.619  14.670  30.428  0.00  0.00    +0.000 OA
ATOM     30  N   UNL     1      11.344  14.622  30.134  0.00  0.00    +0.000 N 
ATOM     31  C   UNL     1      10.219  15.393  30.148  0.00  0.00    +0.000 C 
ATOM     32  H   UNL     1      11.294  13.632  29.951  0.00  0.00    +0.000 HD
ATOM     33  O   UNL     1       9.089  14.983  29.950  0.00  0.00    +0.000 OA
ENDBRANCH  18  19
ENDBRANCH   1  18
TORSDOF 4
ENDMDL
MODEL 6
REMARK VINA RESULT:      -6.5     19.650     22.279
REMARK  Name = Troglitazone.pdbqt.pdb
REMARK  4 active torsions:
REMARK  status: ('A' for Active; 'I' for Inactive)
REMARK    1  A    between atoms: C_1  and  O_2
REMARK    2  A    between atoms: C_1  and  C_18
REMARK    3  A    between atoms: O_2  and  C_3
REMARK    4  A    between atoms: C_26  and  O_32
REMARK                            x       y       z     vdW  Elec       q    Type
REMARK                         _______ _______ _______ _____ _____    ______ ____
ROOT
ATOM      1  C   UNL     1      18.386  26.956   2.578  0.00  0.00    +0.000 C 
ENDROOT
BRANCH   1   2
ATOM      2  C   UNL     1      19.371  27.987   2.946  0.00  0.00    +0.000 C 
ATOM      3  O   UNL     1      20.590  27.285   3.383  0.00  0.00    +0.000 OA
ATOM      4  C   UNL     1      21.446  27.770   4.380  0.00  0.00    +0.000 A 
ATOM      5  C   UNL     1      21.058  28.721   5.370  0.00  0.00    +0.000 A 
ATOM      6  C   UNL     1      22.746  27.224   4.423  0.00  0.00    +0.000 A 
ATOM      7  C   UNL     1      19.725  29.189   5.241  0.00  0.00    +0.000 C 
ATOM      8  C   UNL     1      21.948  29.146   6.364  0.00  0.00    +0.000 A 
ATOM      9  C   UNL     1      18.906  28.815   4.052  0.00  0.00    +0.000 C 
ATOM     10  C   UNL     1      23.245  28.610   6.385  0.00  0.00    +0.000 A 
ATOM     11  C   UNL     1      21.510  30.157   7.402  0.00  0.00    +0.000 C 
ATOM     12  C   UNL     1      23.643  27.656   5.425  0.00  0.00    +0.000 A 
ATOM     13  C   UNL     1      25.073  27.131   5.557  0.00  0.00    +0.000 C 
ATOM     14  C   UNL     1      23.135  26.171   3.393  0.00  0.00    +0.000 C 
ATOM     15  C   UNL     1      19.769  28.856   1.727  0.00  0.00    +0.000 C 
BRANCH  10  16
ATOM     16  O   UNL     1      24.144  29.012   7.359  0.00  0.00    +0.000 OA
ATOM     17  H   UNL     1      24.758  29.666   6.958  0.00  0.00    +0.000 HD
ENDBRANCH  10  16
ENDBRANCH   1   2
BRANCH   1  18
ATOM     18  O   UNL     1      17.491  26.021   2.256  0.00  0.00    +0.000 OA
BRANCH  18  19
ATOM     19  C   UNL     1      17.985  24.741   2.224  0.00  0.00    +0.000 C 
ATOM     20  C   UNL     1      17.229  23.595   2.477  0.00  0.00    +0.000 C 
ATOM     21  C   UNL     1      17.820  22.335   2.414  0.00  0.00    +0.000 C 
ATOM     22  C   UNL     1      19.171  22.220   2.097  0.00  0.00    +0.000 C 
ATOM     23  C   UNL     1      19.931  23.360   1.844  0.00  0.00    +0.000 C 
ATOM     24  C   UNL     1      19.338  24.619   1.906  0.00  0.00    +0.000 C 
ATOM     25  C   UNL     1      19.777  20.933   2.030  0.00  0.00    +0.000 C 
ATOM     26  C   UNL     1      20.387  19.660   1.970  0.00  0.00    +0.000 C 
ATOM     27  S   UNL     1      19.654  18.246   1.314  0.00  0.00    +0.000 S 
ATOM     28  C   UNL     1      21.071  17.273   1.652  0.00  0.00    +0.000 C 
ATOM     29  O   UNL     1      21.170  16.087   1.386  0.00  0.00    +0.000 OA
ATOM     30  N   UNL     1      22.025  18.036   2.243  0.00  0.00    +0.000 N 
ATOM     31  C   UNL     1      21.750  19.355   2.453  0.00  0.00    +0.000 C 
ATOM     32  H   UNL     1      22.914  17.640   2.505  0.00  0.00    +0.000 HD
ATOM     33  O   UNL     1      22.518  20.156   2.958  0.00  0.00    +0.000 OA
ENDBRANCH  18  19
ENDBRANCH   1  18
TORSDOF 4
ENDMDL
MODEL 7
REMARK VINA RESULT:      -6.3      7.099     12.108
REMARK  Name = Troglitazone.pdbqt.pdb
REMARK  4 active torsions:
REMARK  status: ('A' for Active; 'I' for Inactive)
REMARK    1  A    between atoms: C_1  and  O_2
REMARK    2  A    between atoms: C_1  and  C_18
REMARK    3  A    between atoms: O_2  and  C_3
REMARK    4  A    between atoms: C_26  and  O_32
REMARK                            x       y       z     vdW  Elec       q    Type
REMARK                         _______ _______ _______ _____ _____    ______ ____
ROOT
ATOM      1  C   UNL     1      29.231  19.923  18.087  0.00  0.00    +0.000 C 
ENDROOT
BRANCH   1   2
ATOM      2  C   UNL     1      30.007  18.701  17.816  0.00  0.00    +0.000 C 
ATOM      3  O   UNL     1      29.185  17.852  16.937  0.00  0.00    +0.000 OA
ATOM      4  C   UNL     1      29.199  16.453  16.980  0.00  0.00    +0.000 A 
ATOM      5  C   UNL     1      29.639  15.695  18.105  0.00  0.00    +0.000 A 
ATOM      6  C   UNL     1      28.687  15.776  15.853  0.00  0.00    +0.000 A 
ATOM      7  C   UNL     1      30.117  16.478  19.188  0.00  0.00    +0.000 C 
ATOM      8  C   UNL     1      29.599  14.295  18.105  0.00  0.00    +0.000 A 
ATOM      9  C   UNL     1      30.285  17.952  19.035  0.00  0.00    +0.000 C 
ATOM     10  C   UNL     1      29.105  13.632  16.970  0.00  0.00    +0.000 A 
ATOM     11  C   UNL     1      30.073  13.515  19.313  0.00  0.00    +0.000 C 
ATOM     12  C   UNL     1      28.651  14.364  15.853  0.00  0.00    +0.000 A 
ATOM     13  C   UNL     1      28.119  13.536  14.683  0.00  0.00    +0.000 C 
ATOM     14  C   UNL     1      28.172  16.595  14.676  0.00  0.00    +0.000 C 
ATOM     15  C   UNL     1      31.312  19.014  17.043  0.00  0.00    +0.000 C 
BRANCH  10  16
ATOM     16  O   UNL     1      29.054  12.248  16.945  0.00  0.00    +0.000 OA
ATOM     17  H   UNL     1      28.757  11.969  16.052  0.00  0.00    +0.000 HD
ENDBRANCH  10  16
ENDBRANCH   1   2
BRANCH   1  18
ATOM     18  O   UNL     1      28.531  21.034  18.322  0.00  0.00    +0.000 OA
BRANCH  18  19
ATOM     19  C   UNL     1      28.623  21.988  17.339  0.00  0.00    +0.000 C 
ATOM     20  C   UNL     1      28.822  21.712  15.985  0.00  0.00    +0.000 C 
ATOM     21  C   UNL     1      28.895  22.751  15.060  0.00  0.00    +0.000 C 
ATOM     22  C   UNL     1      28.770  24.069  15.489  0.00  0.00    +0.000 C 
ATOM     23  C   UNL     1      28.572  24.352  16.838  0.00  0.00    +0.000 C 
ATOM     24  C   UNL     1      28.498  23.311  17.762  0.00  0.00    +0.000 C 
ATOM     25  C   UNL     1      28.844  25.133  14.544  0.00  0.00    +0.000 C 
ATOM     26  C   UNL     1      28.924  26.193  13.614  0.00  0.00    +0.000 C 
ATOM     27  S   UNL     1      28.237  26.172  12.034  0.00  0.00    +0.000 S 
ATOM     28  C   UNL     1      28.808  27.793  11.691  0.00  0.00    +0.000 C 
ATOM     29  O   UNL     1      28.610  28.383  10.643  0.00  0.00    +0.000 OA
ATOM     30  N   UNL     1      29.488  28.278  12.760  0.00  0.00    +0.000 N 
ATOM     31  C   UNL     1      29.600  27.483  13.863  0.00  0.00    +0.000 C 
ATOM     32  H   UNL     1      29.886  29.203  12.742  0.00  0.00    +0.000 HD
ATOM     33  O   UNL     1      30.169  27.797  14.894  0.00  0.00    +0.000 OA
ENDBRANCH  18  19
ENDBRANCH   1  18
TORSDOF 4
ENDMDL
MODEL 8
REMARK VINA RESULT:      -6.3      3.972      9.761
REMARK  Name = Troglitazone.pdbqt.pdb
REMARK  4 active torsions:
REMARK  status: ('A' for Active; 'I' for Inactive)
REMARK    1  A    between atoms: C_1  and  O_2
REMARK    2  A    between atoms: C_1  and  C_18
REMARK    3  A    between atoms: O_2  and  C_3
REMARK    4  A    between atoms: C_26  and  O_32
REMARK                            x       y       z     vdW  Elec       q    Type
REMARK                         _______ _______ _______ _____ _____    ______ ____
ROOT
ATOM      1  C   UNL     1      28.143  15.742  23.092  0.00  0.00    +0.000 C 
ENDROOT
BRANCH   1   2
ATOM      2  C   UNL     1      27.568  15.078  24.274  0.00  0.00    +0.000 C 
ATOM      3  O   UNL     1      26.906  13.850  23.802  0.00  0.00    +0.000 OA
ATOM      4  C   UNL     1      25.749  13.321  24.388  0.00  0.00    +0.000 A 
ATOM      5  C   UNL     1      24.842  14.078  25.186  0.00  0.00    +0.000 A 
ATOM      6  C   UNL     1      25.455  11.969  24.108  0.00  0.00    +0.000 A 
ATOM      7  C   UNL     1      25.228  15.429  25.389  0.00  0.00    +0.000 C 
ATOM      8  C   UNL     1      23.683  13.504  25.721  0.00  0.00    +0.000 A 
ATOM      9  C   UNL     1      26.565  15.908  24.929  0.00  0.00    +0.000 C 
ATOM     10  C   UNL     1      23.410  12.154  25.451  0.00  0.00    +0.000 A 
ATOM     11  C   UNL     1      22.737  14.331  26.565  0.00  0.00    +0.000 C 
ATOM     12  C   UNL     1      24.286  11.391  24.651  0.00  0.00    +0.000 A 
ATOM     13  C   UNL     1      23.878   9.937  24.411  0.00  0.00    +0.000 C 
ATOM     14  C   UNL     1      26.404  11.182  23.213  0.00  0.00    +0.000 C 
ATOM     15  C   UNL     1      28.667  14.639  25.273  0.00  0.00    +0.000 C 
BRANCH  10  16
ATOM     16  O   UNL     1      22.269  11.562  25.966  0.00  0.00    +0.000 OA
ATOM     17  H   UNL     1      21.574  12.252  26.044  0.00  0.00    +0.000 HD
ENDBRANCH  10  16
ENDBRANCH   1   2
BRANCH   1  18
ATOM     18  O   UNL     1      28.673  16.336  22.021  0.00  0.00    +0.000 OA
BRANCH  18  19
ATOM     19  C   UNL     1      28.823  15.519  20.928  0.00  0.00    +0.000 C 
ATOM     20  C   UNL     1      28.445  14.176  20.887  0.00  0.00    +0.000 C 
ATOM     21  C   UNL     1      28.631  13.429  19.726  0.00  0.00    +0.000 C 
ATOM     22  C   UNL     1      29.198  14.025  18.603  0.00  0.00    +0.000 C 
ATOM     23  C   UNL     1      29.577  15.365  18.637  0.00  0.00    +0.000 C 
ATOM     24  C   UNL     1      29.389  16.111  19.799  0.00  0.00    +0.000 C 
ATOM     25  C   UNL     1      29.388  13.264  17.415  0.00  0.00    +0.000 C 
ATOM     26  C   UNL     1      29.587  12.512  16.235  0.00  0.00    +0.000 C 
ATOM     27  S   UNL     1      28.483  11.347  15.611  0.00  0.00    +0.000 S 
ATOM     28  C   UNL     1      29.518  11.001  14.240  0.00  0.00    +0.000 C 
ATOM     29  O   UNL     1      29.251  10.197  13.363  0.00  0.00    +0.000 OA
ATOM     30  N   UNL     1      30.641  11.759  14.308  0.00  0.00    +0.000 N 
ATOM     31  C   UNL     1      30.769  12.623  15.355  0.00  0.00    +0.000 C 
ATOM     32  H   UNL     1      31.351  11.694  13.596  0.00  0.00    +0.000 HD
ATOM     33  O   UNL     1      31.716  13.371  15.531  0.00  0.00    +0.000 OA
ENDBRANCH  18  19
ENDBRANCH   1  18
TORSDOF 4
ENDMDL
MODEL 9
REMARK VINA RESULT:      -6.3      6.995     10.597
REMARK  Name = Troglitazone.pdbqt.pdb
REMARK  4 active torsions:
REMARK  status: ('A' for Active; 'I' for Inactive)
REMARK    1  A    between atoms: C_1  and  O_2
REMARK    2  A    between atoms: C_1  and  C_18
REMARK    3  A    between atoms: O_2  and  C_3
REMARK    4  A    between atoms: C_26  and  O_32
REMARK                            x       y       z     vdW  Elec       q    Type
REMARK                         _______ _______ _______ _____ _____    ______ ____
ROOT
ATOM      1  C   UNL     1      25.085  13.029  26.477  0.00  0.00    +0.000 C 
ENDROOT
BRANCH   1   2
ATOM      2  C   UNL     1      23.740  13.616  26.595  0.00  0.00    +0.000 C 
ATOM      3  O   UNL     1      23.843  15.023  26.169  0.00  0.00    +0.000 OA
ATOM      4  C   UNL     1      23.072  16.055  26.716  0.00  0.00    +0.000 A 
ATOM      5  C   UNL     1      22.437  15.985  27.992  0.00  0.00    +0.000 A 
ATOM      6  C   UNL     1      22.981  17.247  25.968  0.00  0.00    +0.000 A 
ATOM      7  C   UNL     1      22.608  14.747  28.663  0.00  0.00    +0.000 C 
ATOM      8  C   UNL     1      21.703  17.062  28.503  0.00  0.00    +0.000 A 
ATOM      9  C   UNL     1      23.256  13.596  27.969  0.00  0.00    +0.000 C 
ATOM     10  C   UNL     1      21.605  18.237  27.741  0.00  0.00    +0.000 A 
ATOM     11  C   UNL     1      21.039  16.961  29.860  0.00  0.00    +0.000 C 
ATOM     12  C   UNL     1      22.239  18.332  26.485  0.00  0.00    +0.000 A 
ATOM     13  C   UNL     1      22.076  19.665  25.753  0.00  0.00    +0.000 C 
ATOM     14  C   UNL     1      23.705  17.331  24.629  0.00  0.00    +0.000 C 
ATOM     15  C   UNL     1      22.733  12.932  25.638  0.00  0.00    +0.000 C 
BRANCH  10  16
ATOM     16  O   UNL     1      20.886  19.318  28.226  0.00  0.00    +0.000 OA
ATOM     17  H   UNL     1      21.300  19.608  29.068  0.00  0.00    +0.000 HD
ENDBRANCH  10  16
ENDBRANCH   1   2
BRANCH   1  18
ATOM     18  O   UNL     1      26.299  12.487  26.367  0.00  0.00    +0.000 OA
BRANCH  18  19
ATOM     19  C   UNL     1      26.418  11.543  25.377  0.00  0.00    +0.000 C 
ATOM     20  C   UNL     1      26.426  11.829  24.010  0.00  0.00    +0.000 C 
ATOM     21  C   UNL     1      26.558  10.802  23.079  0.00  0.00    +0.000 C 
ATOM     22  C   UNL     1      26.683   9.485  23.514  0.00  0.00    +0.000 C 
ATOM     23  C   UNL     1      26.676   9.193  24.876  0.00  0.00    +0.000 C 
ATOM     24  C   UNL     1      26.544  10.223  25.806  0.00  0.00    +0.000 C 
ATOM     25  C   UNL     1      26.820   8.433  22.564  0.00  0.00    +0.000 C 
ATOM     26  C   UNL     1      26.948   7.384  21.626  0.00  0.00    +0.000 C 
ATOM     27  S   UNL     1      27.879   7.464  20.179  0.00  0.00    +0.000 S 
ATOM     28  C   UNL     1      27.458   5.821  19.738  0.00  0.00    +0.000 C 
ATOM     29  O   UNL     1      27.854   5.257  18.732  0.00  0.00    +0.000 OA
ATOM     30  N   UNL     1      26.641   5.286  20.679  0.00  0.00    +0.000 N 
ATOM     31  C   UNL     1      26.311   6.057  21.754  0.00  0.00    +0.000 C 
ATOM     32  H   UNL     1      26.302   4.341  20.591  0.00  0.00    +0.000 HD
ATOM     33  O   UNL     1      25.600   5.699  22.678  0.00  0.00    +0.000 OA
ENDBRANCH  18  19
ENDBRANCH   1  18
TORSDOF 4
ENDMDL
